MODEL 1
REMARK VINA RESULT:      -9.5      0.000      0.000
REMARK  Name = 
REMARK  8 active torsions:
REMARK  status: ('A' for Active; 'I' for Inactive)
REMARK    1  A    between atoms: C_1  and  C_2
REMARK    2  A    between atoms: C_2  and  N_3
REMARK    3  A    between atoms: N_3  and  N_4
REMARK    4  A    between atoms: C_5  and  C_7
REMARK    5  A    between atoms: C_11  and  C_12
REMARK    6  A    between atoms: C_12  and  O_14
REMARK    7  A    between atoms: N_19  and  C_20
REMARK    8  A    between atoms: C_24  and  C_25
REMARK                            x       y       z     vdW  Elec       q    Type
REMARK                         _______ _______ _______ _____ _____    ______ ____
ROOT
ATOM      1  C   UNL     1       0.720   7.713  21.084  0.00  0.00    +0.000 C 
ATOM      2  C   UNL     1       1.626   7.864  19.876  0.00  0.00    +0.000 C 
ATOM      3  C   UNL     1       2.413   6.829  19.469  0.00  0.00    +0.000 C 
ATOM      4  C   UNL     1       3.380   6.849  18.285  0.00  0.00    +0.000 C 
ATOM      5  O   UNL     1       3.559   7.790  17.531  0.00  0.00    +0.000 OA
ATOM      6  N   UNL     1       4.038   5.605  18.319  0.00  0.00    +0.000 N 
ATOM      7  C   UNL     1       3.556   4.798  19.379  0.00  0.00    +0.000 A 
ATOM      8  C   UNL     1       3.883   3.483  19.704  0.00  0.00    +0.000 A 
ATOM      9  C   UNL     1       3.232   2.863  20.776  0.00  0.00    +0.000 A 
ATOM     10  C   UNL     1       2.247   3.545  21.488  0.00  0.00    +0.000 A 
ATOM     11  C   UNL     1       1.904   4.854  21.141  0.00  0.00    +0.000 A 
ATOM     12  C   UNL     1       2.562   5.487  20.088  0.00  0.00    +0.000 A 
ENDROOT
BRANCH   6  13
ATOM     13  C   UNL     1       5.054   5.169  17.421  0.00  0.00    +0.000 A 
ATOM     14  C   UNL     1       6.400   5.105  17.824  0.00  0.00    +0.000 A 
ATOM     15  C   UNL     1       7.403   4.701  16.938  0.00  0.00    +0.000 A 
ATOM     16  C   UNL     1       7.081   4.352  15.631  0.00  0.00    +0.000 A 
ATOM     17  C   UNL     1       5.752   4.415  15.194  0.00  0.00    +0.000 A 
ATOM     18  C   UNL     1       5.414   4.057  13.774  0.00  0.00    +0.000 C 
ATOM     19  C   UNL     1       4.746   4.826  16.094  0.00  0.00    +0.000 A 
ENDBRANCH   6  13
BRANCH   2  20
ATOM     20  N   UNL     1       1.445   9.112  19.274  0.00  0.00    +0.000 N 
ATOM     21  H   UNL     1       1.520   9.899  19.931  0.00  0.00    +0.000 HD
BRANCH  20  22
ATOM     22  N   UNL     1       0.322   9.319  18.429  0.00  0.00    +0.000 N 
ATOM     23  C   UNL     1      -0.724  10.112  18.905  0.00  0.00    +0.000 C 
ATOM     24  O   UNL     1      -0.768  10.602  20.029  0.00  0.00    +0.000 OA
ATOM     25  H   UNL     1       0.474   9.197  17.436  0.00  0.00    +0.000 HD
BRANCH  23  26
ATOM     26  C   UNL     1      -1.826  10.383  17.938  0.00  0.00    +0.000 A 
ATOM     27  C   UNL     1      -1.771   9.888  16.628  0.00  0.00    +0.000 A 
ATOM     28  C   UNL     1      -2.799  10.177  15.727  0.00  0.00    +0.000 A 
ATOM     29  C   UNL     1      -3.870  10.959  16.128  0.00  0.00    +0.000 A 
ATOM     30  C   UNL     1      -3.962  11.442  17.442  0.00  0.00    +0.000 A 
ATOM     31  C   UNL     1      -2.930  11.142  18.352  0.00  0.00    +0.000 A 
BRANCH  30  32
ATOM     32  C   UNL     1      -5.117  12.342  17.772  0.00  0.00    +0.000 C 
ATOM     33  O   UNL     1      -6.059  12.481  17.002  0.00  0.00    +0.000 OA
BRANCH  32  34
ATOM     34  O   UNL     1      -5.037  12.937  18.963  0.00  0.00    +0.000 OA
ATOM     35  H   UNL     1      -4.223  13.443  19.145  0.00  0.00    +0.000 HD
ENDBRANCH  32  34
ENDBRANCH  30  32
ENDBRANCH  23  26
ENDBRANCH  20  22
ENDBRANCH   2  20
TORSDOF 6
ENDMDL
MODEL 2
REMARK VINA RESULT:      -9.4      1.533      2.105
REMARK  Name = 
REMARK  8 active torsions:
REMARK  status: ('A' for Active; 'I' for Inactive)
REMARK    1  A    between atoms: C_1  and  C_2
REMARK    2  A    between atoms: C_2  and  N_3
REMARK    3  A    between atoms: N_3  and  N_4
REMARK    4  A    between atoms: C_5  and  C_7
REMARK    5  A    between atoms: C_11  and  C_12
REMARK    6  A    between atoms: C_12  and  O_14
REMARK    7  A    between atoms: N_19  and  C_20
REMARK    8  A    between atoms: C_24  and  C_25
REMARK                            x       y       z     vdW  Elec       q    Type
REMARK                         _______ _______ _______ _____ _____    ______ ____
ROOT
ATOM      1  C   UNL     1       1.165   6.360  20.854  0.00  0.00    +0.000 C 
ATOM      2  C   UNL     1       2.146   6.831  19.797  0.00  0.00    +0.000 C 
ATOM      3  C   UNL     1       2.753   5.934  18.970  0.00  0.00    +0.000 C 
ATOM      4  C   UNL     1       3.769   6.267  17.877  0.00  0.00    +0.000 C 
ATOM      5  O   UNL     1       4.155   7.386  17.584  0.00  0.00    +0.000 OA
ATOM      6  N   UNL     1       4.188   5.025  17.365  0.00  0.00    +0.000 N 
ATOM      7  C   UNL     1       3.511   3.954  18.000  0.00  0.00    +0.000 A 
ATOM      8  C   UNL     1       3.577   2.588  17.732  0.00  0.00    +0.000 A 
ATOM      9  C   UNL     1       2.768   1.710  18.461  0.00  0.00    +0.000 A 
ATOM     10  C   UNL     1       1.886   2.202  19.423  0.00  0.00    +0.000 A 
ATOM     11  C   UNL     1       1.805   3.574  19.668  0.00  0.00    +0.000 A 
ATOM     12  C   UNL     1       2.623   4.455  18.961  0.00  0.00    +0.000 A 
ENDROOT
BRANCH   6  13
ATOM     13  C   UNL     1       5.154   4.823  16.338  0.00  0.00    +0.000 A 
ATOM     14  C   UNL     1       6.510   5.129  16.548  0.00  0.00    +0.000 A 
ATOM     15  C   UNL     1       7.457   4.955  15.534  0.00  0.00    +0.000 A 
ATOM     16  C   UNL     1       7.067   4.472  14.290  0.00  0.00    +0.000 A 
ATOM     17  C   UNL     1       5.722   4.168  14.044  0.00  0.00    +0.000 A 
ATOM     18  C   UNL     1       5.304   3.665  12.691  0.00  0.00    +0.000 C 
ATOM     19  C   UNL     1       4.772   4.348  15.072  0.00  0.00    +0.000 A 
ENDBRANCH   6  13
BRANCH   2  20
ATOM     20  N   UNL     1       2.226   8.226  19.782  0.00  0.00    +0.000 N 
ATOM     21  H   UNL     1       2.811   8.611  20.535  0.00  0.00    +0.000 HD
BRANCH  20  22
ATOM     22  N   UNL     1       1.032   8.990  19.684  0.00  0.00    +0.000 N 
ATOM     23  C   UNL     1       0.773   9.656  18.484  0.00  0.00    +0.000 C 
ATOM     24  O   UNL     1       1.532   9.673  17.521  0.00  0.00    +0.000 OA
ATOM     25  H   UNL     1       0.283   8.740  20.316  0.00  0.00    +0.000 HD
BRANCH  23  26
ATOM     26  C   UNL     1      -0.543  10.354  18.401  0.00  0.00    +0.000 A 
ATOM     27  C   UNL     1      -0.964  11.217  19.421  0.00  0.00    +0.000 A 
ATOM     28  C   UNL     1      -2.212  11.839  19.339  0.00  0.00    +0.000 A 
ATOM     29  C   UNL     1      -3.036  11.596  18.252  0.00  0.00    +0.000 A 
ATOM     30  C   UNL     1      -2.625  10.758  17.204  0.00  0.00    +0.000 A 
ATOM     31  C   UNL     1      -1.362  10.139  17.283  0.00  0.00    +0.000 A 
BRANCH  30  32
ATOM     32  C   UNL     1      -3.607  10.490  16.102  0.00  0.00    +0.000 C 
ATOM     33  O   UNL     1      -3.316   9.781  15.146  0.00  0.00    +0.000 OA
BRANCH  32  34
ATOM     34  O   UNL     1      -4.802  11.056  16.270  0.00  0.00    +0.000 OA
ATOM     35  H   UNL     1      -4.972  11.876  15.769  0.00  0.00    +0.000 HD
ENDBRANCH  32  34
ENDBRANCH  30  32
ENDBRANCH  23  26
ENDBRANCH  20  22
ENDBRANCH   2  20
TORSDOF 6
ENDMDL
MODEL 3
REMARK VINA RESULT:      -9.3      1.071      1.631
REMARK  Name = 
REMARK  8 active torsions:
REMARK  status: ('A' for Active; 'I' for Inactive)
REMARK    1  A    between atoms: C_1  and  C_2
REMARK    2  A    between atoms: C_2  and  N_3
REMARK    3  A    between atoms: N_3  and  N_4
REMARK    4  A    between atoms: C_5  and  C_7
REMARK    5  A    between atoms: C_11  and  C_12
REMARK    6  A    between atoms: C_12  and  O_14
REMARK    7  A    between atoms: N_19  and  C_20
REMARK    8  A    between atoms: C_24  and  C_25
REMARK                            x       y       z     vdW  Elec       q    Type
REMARK                         _______ _______ _______ _____ _____    ______ ____
ROOT
ATOM      1  C   UNL     1       0.659   7.823  20.993  0.00  0.00    +0.000 C 
ATOM      2  C   UNL     1       1.651   7.957  19.853  0.00  0.00    +0.000 C 
ATOM      3  C   UNL     1       2.403   6.890  19.463  0.00  0.00    +0.000 C 
ATOM      4  C   UNL     1       3.447   6.889  18.347  0.00  0.00    +0.000 C 
ATOM      5  O   UNL     1       3.730   7.840  17.638  0.00  0.00    +0.000 OA
ATOM      6  N   UNL     1       4.030   5.608  18.380  0.00  0.00    +0.000 N 
ATOM      7  C   UNL     1       3.432   4.799  19.378  0.00  0.00    +0.000 A 
ATOM      8  C   UNL     1       3.660   3.457  19.678  0.00  0.00    +0.000 A 
ATOM      9  C   UNL     1       2.904   2.845  20.683  0.00  0.00    +0.000 A 
ATOM     10  C   UNL     1       1.913   3.562  21.353  0.00  0.00    +0.000 A 
ATOM     11  C   UNL     1       1.670   4.899  21.029  0.00  0.00    +0.000 A 
ATOM     12  C   UNL     1       2.433   5.523  20.044  0.00  0.00    +0.000 A 
ENDROOT
BRANCH   6  13
ATOM     13  C   UNL     1       5.077   5.139  17.537  0.00  0.00    +0.000 A 
ATOM     14  C   UNL     1       6.395   5.026  18.012  0.00  0.00    +0.000 A 
ATOM     15  C   UNL     1       7.431   4.590  17.180  0.00  0.00    +0.000 A 
ATOM     16  C   UNL     1       7.169   4.259  15.855  0.00  0.00    +0.000 A 
ATOM     17  C   UNL     1       5.869   4.371  15.346  0.00  0.00    +0.000 A 
ATOM     18  C   UNL     1       5.596   4.031  13.908  0.00  0.00    +0.000 C 
ATOM     19  C   UNL     1       4.829   4.814  16.193  0.00  0.00    +0.000 A 
ENDBRANCH   6  13
BRANCH   2  20
ATOM     20  N   UNL     1       1.583   9.232  19.283  0.00  0.00    +0.000 N 
ATOM     21  H   UNL     1       2.458   9.766  19.367  0.00  0.00    +0.000 HD
BRANCH  20  22
ATOM     22  N   UNL     1       0.490  10.079  19.607  0.00  0.00    +0.000 N 
ATOM     23  C   UNL     1      -0.493  10.287  18.636  0.00  0.00    +0.000 C 
ATOM     24  O   UNL     1      -0.452   9.831  17.498  0.00  0.00    +0.000 OA
ATOM     25  H   UNL     1       0.285  10.199  20.590  0.00  0.00    +0.000 HD
BRANCH  23  26
ATOM     26  C   UNL     1      -1.668  11.098  19.065  0.00  0.00    +0.000 A 
ATOM     27  C   UNL     1      -1.619  11.875  20.230  0.00  0.00    +0.000 A 
ATOM     28  C   UNL     1      -2.740  12.606  20.631  0.00  0.00    +0.000 A 
ATOM     29  C   UNL     1      -3.903  12.556  19.880  0.00  0.00    +0.000 A 
ATOM     30  C   UNL     1      -3.968  11.808  18.694  0.00  0.00    +0.000 A 
ATOM     31  C   UNL     1      -2.834  11.080  18.285  0.00  0.00    +0.000 A 
BRANCH  30  32
ATOM     32  C   UNL     1      -5.287  11.749  17.981  0.00  0.00    +0.000 C 
ATOM     33  O   UNL     1      -6.074  10.828  18.168  0.00  0.00    +0.000 OA
BRANCH  32  34
ATOM     34  O   UNL     1      -5.528  12.779  17.169  0.00  0.00    +0.000 OA
ATOM     35  H   UNL     1      -5.042  12.792  16.323  0.00  0.00    +0.000 HD
ENDBRANCH  32  34
ENDBRANCH  30  32
ENDBRANCH  23  26
ENDBRANCH  20  22
ENDBRANCH   2  20
TORSDOF 6
ENDMDL
MODEL 4
REMARK VINA RESULT:      -9.2      1.331      1.839
REMARK  Name = 
REMARK  8 active torsions:
REMARK  status: ('A' for Active; 'I' for Inactive)
REMARK    1  A    between atoms: C_1  and  C_2
REMARK    2  A    between atoms: C_2  and  N_3
REMARK    3  A    between atoms: N_3  and  N_4
REMARK    4  A    between atoms: C_5  and  C_7
REMARK    5  A    between atoms: C_11  and  C_12
REMARK    6  A    between atoms: C_12  and  O_14
REMARK    7  A    between atoms: N_19  and  C_20
REMARK    8  A    between atoms: C_24  and  C_25
REMARK                            x       y       z     vdW  Elec       q    Type
REMARK                         _______ _______ _______ _____ _____    ______ ____
ROOT
ATOM      1  C   UNL     1       0.521   7.924  21.034  0.00  0.00    +0.000 C 
ATOM      2  C   UNL     1       1.441   8.138  19.848  0.00  0.00    +0.000 C 
ATOM      3  C   UNL     1       2.258   7.135  19.418  0.00  0.00    +0.000 C 
ATOM      4  C   UNL     1       3.242   7.218  18.251  0.00  0.00    +0.000 C 
ATOM      5  O   UNL     1       3.411   8.188  17.533  0.00  0.00    +0.000 OA
ATOM      6  N   UNL     1       3.928   5.989  18.252  0.00  0.00    +0.000 N 
ATOM      7  C   UNL     1       3.448   5.135  19.276  0.00  0.00    +0.000 A 
ATOM      8  C   UNL     1       3.800   3.816  19.561  0.00  0.00    +0.000 A 
ATOM      9  C   UNL     1       3.147   3.146  20.601  0.00  0.00    +0.000 A 
ATOM     10  C   UNL     1       2.135   3.781  21.320  0.00  0.00    +0.000 A 
ATOM     11  C   UNL     1       1.768   5.092  21.012  0.00  0.00    +0.000 A 
ATOM     12  C   UNL     1       2.428   5.776  19.993  0.00  0.00    +0.000 A 
ENDROOT
BRANCH   6  13
ATOM     13  C   UNL     1       4.967   5.606  17.357  0.00  0.00    +0.000 A 
ATOM     14  C   UNL     1       6.317   5.856  17.663  0.00  0.00    +0.000 A 
ATOM     15  C   UNL     1       7.338   5.504  16.775  0.00  0.00    +0.000 A 
ATOM     16  C   UNL     1       7.030   4.896  15.563  0.00  0.00    +0.000 A 
ATOM     17  C   UNL     1       5.696   4.643  15.222  0.00  0.00    +0.000 A 
ATOM     18  C   UNL     1       5.369   4.004  13.902  0.00  0.00    +0.000 C 
ATOM     19  C   UNL     1       4.671   5.003  16.123  0.00  0.00    +0.000 A 
ENDBRANCH   6  13
BRANCH   2  20
ATOM     20  N   UNL     1       1.241   9.401  19.286  0.00  0.00    +0.000 N 
ATOM     21  H   UNL     1       1.386  10.173  19.950  0.00  0.00    +0.000 HD
BRANCH  20  22
ATOM     22  N   UNL     1       0.060   9.650  18.537  0.00  0.00    +0.000 N 
ATOM     23  C   UNL     1      -0.890  10.521  19.076  0.00  0.00    +0.000 C 
ATOM     24  O   UNL     1      -0.802  11.048  20.180  0.00  0.00    +0.000 OA
ATOM     25  H   UNL     1       0.113   9.487  17.540  0.00  0.00    +0.000 HD
BRANCH  23  26
ATOM     26  C   UNL     1      -2.059  10.828  18.201  0.00  0.00    +0.000 A 
ATOM     27  C   UNL     1      -3.139  11.580  18.683  0.00  0.00    +0.000 A 
ATOM     28  C   UNL     1      -4.238  11.832  17.858  0.00  0.00    +0.000 A 
ATOM     29  C   UNL     1      -4.262  11.332  16.566  0.00  0.00    +0.000 A 
ATOM     30  C   UNL     1      -3.181  10.601  16.052  0.00  0.00    +0.000 A 
ATOM     31  C   UNL     1      -2.069  10.356  16.881  0.00  0.00    +0.000 A 
BRANCH  30  32
ATOM     32  C   UNL     1      -3.320  10.033  14.670  0.00  0.00    +0.000 C 
ATOM     33  O   UNL     1      -4.420   9.813  14.178  0.00  0.00    +0.000 OA
BRANCH  32  34
ATOM     34  O   UNL     1      -2.166   9.826  14.034  0.00  0.00    +0.000 OA
ATOM     35  H   UNL     1      -1.373   9.722  14.592  0.00  0.00    +0.000 HD
ENDBRANCH  32  34
ENDBRANCH  30  32
ENDBRANCH  23  26
ENDBRANCH  20  22
ENDBRANCH   2  20
TORSDOF 6
ENDMDL
MODEL 5
REMARK VINA RESULT:      -9.1      1.022      1.214
REMARK  Name = 
REMARK  8 active torsions:
REMARK  status: ('A' for Active; 'I' for Inactive)
REMARK    1  A    between atoms: C_1  and  C_2
REMARK    2  A    between atoms: C_2  and  N_3
REMARK    3  A    between atoms: N_3  and  N_4
REMARK    4  A    between atoms: C_5  and  C_7
REMARK    5  A    between atoms: C_11  and  C_12
REMARK    6  A    between atoms: C_12  and  O_14
REMARK    7  A    between atoms: N_19  and  C_20
REMARK    8  A    between atoms: C_24  and  C_25
REMARK                            x       y       z     vdW  Elec       q    Type
REMARK                         _______ _______ _______ _____ _____    ______ ____
ROOT
ATOM      1  C   UNL     1       0.781   7.532  21.322  0.00  0.00    +0.000 C 
ATOM      2  C   UNL     1       1.765   7.748  20.188  0.00  0.00    +0.000 C 
ATOM      3  C   UNL     1       2.483   6.703  19.688  0.00  0.00    +0.000 C 
ATOM      4  C   UNL     1       3.515   6.780  18.563  0.00  0.00    +0.000 C 
ATOM      5  O   UNL     1       3.818   7.787  17.946  0.00  0.00    +0.000 OA
ATOM      6  N   UNL     1       4.061   5.486  18.467  0.00  0.00    +0.000 N 
ATOM      7  C   UNL     1       3.450   4.602  19.390  0.00  0.00    +0.000 A 
ATOM      8  C   UNL     1       3.643   3.232  19.558  0.00  0.00    +0.000 A 
ATOM      9  C   UNL     1       2.880   2.547  20.509  0.00  0.00    +0.000 A 
ATOM     10  C   UNL     1       1.917   3.224  21.257  0.00  0.00    +0.000 A 
ATOM     11  C   UNL     1       1.708   4.591  21.065  0.00  0.00    +0.000 A 
ATOM     12  C   UNL     1       2.480   5.286  20.135  0.00  0.00    +0.000 A 
ENDROOT
BRANCH   6  13
ATOM     13  C   UNL     1       5.086   5.072  17.569  0.00  0.00    +0.000 A 
ATOM     14  C   UNL     1       6.426   4.992  17.986  0.00  0.00    +0.000 A 
ATOM     15  C   UNL     1       7.439   4.610  17.101  0.00  0.00    +0.000 A 
ATOM     16  C   UNL     1       7.132   4.301  15.781  0.00  0.00    +0.000 A 
ATOM     17  C   UNL     1       5.809   4.381  15.330  0.00  0.00    +0.000 A 
ATOM     18  C   UNL     1       5.486   4.065  13.896  0.00  0.00    +0.000 C 
ATOM     19  C   UNL     1       4.793   4.769  16.229  0.00  0.00    +0.000 A 
ENDBRANCH   6  13
BRANCH   2  20
ATOM     20  N   UNL     1       1.727   9.072  19.744  0.00  0.00    +0.000 N 
ATOM     21  H   UNL     1       2.306   9.710  20.306  0.00  0.00    +0.000 HD
BRANCH  20  22
ATOM     22  N   UNL     1       0.471   9.686  19.493  0.00  0.00    +0.000 N 
ATOM     23  C   UNL     1      -0.008   9.695  18.181  0.00  0.00    +0.000 C 
ATOM     24  O   UNL     1       0.607   9.256  17.214  0.00  0.00    +0.000 OA
ATOM     25  H   UNL     1      -0.161   9.761  20.280  0.00  0.00    +0.000 HD
BRANCH  23  26
ATOM     26  C   UNL     1      -1.377  10.256  17.993  0.00  0.00    +0.000 A 
ATOM     27  C   UNL     1      -2.140   9.925  16.866  0.00  0.00    +0.000 A 
ATOM     28  C   UNL     1      -3.409  10.484  16.693  0.00  0.00    +0.000 A 
ATOM     29  C   UNL     1      -3.909  11.370  17.634  0.00  0.00    +0.000 A 
ATOM     30  C   UNL     1      -3.176  11.694  18.785  0.00  0.00    +0.000 A 
ATOM     31  C   UNL     1      -1.901  11.122  18.964  0.00  0.00    +0.000 A 
BRANCH  30  32
ATOM     32  C   UNL     1      -3.758  12.717  19.715  0.00  0.00    +0.000 C 
ATOM     33  O   UNL     1      -4.943  12.698  20.024  0.00  0.00    +0.000 OA
BRANCH  32  34
ATOM     34  O   UNL     1      -2.882  13.606  20.185  0.00  0.00    +0.000 OA
ATOM     35  H   UNL     1      -2.234  13.279  20.836  0.00  0.00    +0.000 HD
ENDBRANCH  32  34
ENDBRANCH  30  32
ENDBRANCH  23  26
ENDBRANCH  20  22
ENDBRANCH   2  20
TORSDOF 6
ENDMDL
MODEL 6
REMARK VINA RESULT:      -9.1      2.409      2.882
REMARK  Name = 
REMARK  8 active torsions:
REMARK  status: ('A' for Active; 'I' for Inactive)
REMARK    1  A    between atoms: C_1  and  C_2
REMARK    2  A    between atoms: C_2  and  N_3
REMARK    3  A    between atoms: N_3  and  N_4
REMARK    4  A    between atoms: C_5  and  C_7
REMARK    5  A    between atoms: C_11  and  C_12
REMARK    6  A    between atoms: C_12  and  O_14
REMARK    7  A    between atoms: N_19  and  C_20
REMARK    8  A    between atoms: C_24  and  C_25
REMARK                            x       y       z     vdW  Elec       q    Type
REMARK                         _______ _______ _______ _____ _____    ______ ____
ROOT
ATOM      1  C   UNL     1       0.742   7.384  21.346  0.00  0.00    +0.000 C 
ATOM      2  C   UNL     1       1.659   7.624  20.161  0.00  0.00    +0.000 C 
ATOM      3  C   UNL     1       2.442   6.619  19.679  0.00  0.00    +0.000 C 
ATOM      4  C   UNL     1       3.419   6.726  18.508  0.00  0.00    +0.000 C 
ATOM      5  O   UNL     1       3.611   7.723  17.832  0.00  0.00    +0.000 OA
ATOM      6  N   UNL     1       4.068   5.478  18.446  0.00  0.00    +0.000 N 
ATOM      7  C   UNL     1       3.570   4.593  19.434  0.00  0.00    +0.000 A 
ATOM      8  C   UNL     1       3.885   3.253  19.655  0.00  0.00    +0.000 A 
ATOM      9  C   UNL     1       3.221   2.555  20.669  0.00  0.00    +0.000 A 
ATOM     10  C   UNL     1       2.234   3.185  21.426  0.00  0.00    +0.000 A 
ATOM     11  C   UNL     1       1.904   4.520  21.182  0.00  0.00    +0.000 A 
ATOM     12  C   UNL     1       2.576   5.230  20.189  0.00  0.00    +0.000 A 
ENDROOT
BRANCH   6  13
ATOM     13  C   UNL     1       5.087   5.107  17.524  0.00  0.00    +0.000 A 
ATOM     14  C   UNL     1       6.441   5.101  17.904  0.00  0.00    +0.000 A 
ATOM     15  C   UNL     1       7.447   4.761  16.995  0.00  0.00    +0.000 A 
ATOM     16  C   UNL     1       7.120   4.421  15.687  0.00  0.00    +0.000 A 
ATOM     17  C   UNL     1       5.782   4.427  15.272  0.00  0.00    +0.000 A 
ATOM     18  C   UNL     1       5.437   4.078  13.852  0.00  0.00    +0.000 C 
ATOM     19  C   UNL     1       4.773   4.773  16.196  0.00  0.00    +0.000 A 
ENDBRANCH   6  13
BRANCH   2  20
ATOM     20  N   UNL     1       1.492   8.918  19.660  0.00  0.00    +0.000 N 
ATOM     21  H   UNL     1       2.284   9.542  19.862  0.00  0.00    +0.000 HD
BRANCH  20  22
ATOM     22  N   UNL     1       0.279   9.611  19.915  0.00  0.00    +0.000 N 
ATOM     23  C   UNL     1       0.324  10.733  20.746  0.00  0.00    +0.000 C 
ATOM     24  O   UNL     1       1.332  11.133  21.319  0.00  0.00    +0.000 OA
ATOM     25  H   UNL     1      -0.461   9.494  19.236  0.00  0.00    +0.000 HD
BRANCH  23  26
ATOM     26  C   UNL     1      -0.957  11.483  20.894  0.00  0.00    +0.000 A 
ATOM     27  C   UNL     1      -1.612  12.013  19.775  0.00  0.00    +0.000 A 
ATOM     28  C   UNL     1      -2.796  12.738  19.937  0.00  0.00    +0.000 A 
ATOM     29  C   UNL     1      -3.317  12.938  21.205  0.00  0.00    +0.000 A 
ATOM     30  C   UNL     1      -2.694  12.393  22.338  0.00  0.00    +0.000 A 
ATOM     31  C   UNL     1      -1.507  11.653  22.173  0.00  0.00    +0.000 A 
BRANCH  30  32
ATOM     32  C   UNL     1      -3.283  12.718  23.679  0.00  0.00    +0.000 C 
ATOM     33  O   UNL     1      -4.068  11.959  24.233  0.00  0.00    +0.000 OA
BRANCH  32  34
ATOM     34  O   UNL     1      -2.859  13.866  24.209  0.00  0.00    +0.000 OA
ATOM     35  H   UNL     1      -3.544  14.460  24.570  0.00  0.00    +0.000 HD
ENDBRANCH  32  34
ENDBRANCH  30  32
ENDBRANCH  23  26
ENDBRANCH  20  22
ENDBRANCH   2  20
TORSDOF 6
ENDMDL
MODEL 7
REMARK VINA RESULT:      -9.1      1.324      1.929
REMARK  Name = 
REMARK  8 active torsions:
REMARK  status: ('A' for Active; 'I' for Inactive)
REMARK    1  A    between atoms: C_1  and  C_2
REMARK    2  A    between atoms: C_2  and  N_3
REMARK    3  A    between atoms: N_3  and  N_4
REMARK    4  A    between atoms: C_5  and  C_7
REMARK    5  A    between atoms: C_11  and  C_12
REMARK    6  A    between atoms: C_12  and  O_14
REMARK    7  A    between atoms: N_19  and  C_20
REMARK    8  A    between atoms: C_24  and  C_25
REMARK                            x       y       z     vdW  Elec       q    Type
REMARK                         _______ _______ _______ _____ _____    ______ ____
ROOT
ATOM      1  C   UNL     1       0.892   7.533  21.251  0.00  0.00    +0.000 C 
ATOM      2  C   UNL     1       1.812   7.723  20.060  0.00  0.00    +0.000 C 
ATOM      3  C   UNL     1       2.555   6.684  19.588  0.00  0.00    +0.000 C 
ATOM      4  C   UNL     1       3.530   6.739  18.412  0.00  0.00    +0.000 C 
ATOM      5  O   UNL     1       3.756   7.719  17.722  0.00  0.00    +0.000 OA
ATOM      6  N   UNL     1       4.133   5.468  18.365  0.00  0.00    +0.000 N 
ATOM      7  C   UNL     1       3.609   4.615  19.367  0.00  0.00    +0.000 A 
ATOM      8  C   UNL     1       3.875   3.267  19.606  0.00  0.00    +0.000 A 
ATOM      9  C   UNL     1       3.190   2.608  20.631  0.00  0.00    +0.000 A 
ATOM     10  C   UNL     1       2.231   3.284  21.384  0.00  0.00    +0.000 A 
ATOM     11  C   UNL     1       1.948   4.627  21.122  0.00  0.00    +0.000 A 
ATOM     12  C   UNL     1       2.641   5.298  20.117  0.00  0.00    +0.000 A 
ENDROOT
BRANCH   6  13
ATOM     13  C   UNL     1       5.135   5.047  17.445  0.00  0.00    +0.000 A 
ATOM     14  C   UNL     1       6.488   4.987  17.823  0.00  0.00    +0.000 A 
ATOM     15  C   UNL     1       7.477   4.598  16.915  0.00  0.00    +0.000 A 
ATOM     16  C   UNL     1       7.134   4.262  15.610  0.00  0.00    +0.000 A 
ATOM     17  C   UNL     1       5.797   4.322  15.197  0.00  0.00    +0.000 A 
ATOM     18  C   UNL     1       5.435   3.978  13.780  0.00  0.00    +0.000 C 
ATOM     19  C   UNL     1       4.805   4.718  16.120  0.00  0.00    +0.000 A 
ENDBRANCH   6  13
BRANCH   2  20
ATOM     20  N   UNL     1       1.690   9.015  19.541  0.00  0.00    +0.000 N 
ATOM     21  H   UNL     1       2.400   9.669  19.896  0.00  0.00    +0.000 HD
BRANCH  20  22
ATOM     22  N   UNL     1       0.421   9.654  19.559  0.00  0.00    +0.000 N 
ATOM     23  C   UNL     1       0.258  10.770  20.383  0.00  0.00    +0.000 C 
ATOM     24  O   UNL     1       1.119  11.208  21.138  0.00  0.00    +0.000 OA
ATOM     25  H   UNL     1      -0.169   9.512  18.749  0.00  0.00    +0.000 HD
BRANCH  23  26
ATOM     26  C   UNL     1      -1.059  11.464  20.282  0.00  0.00    +0.000 A 
ATOM     27  C   UNL     1      -1.495  12.328  21.295  0.00  0.00    +0.000 A 
ATOM     28  C   UNL     1      -2.744  12.946  21.197  0.00  0.00    +0.000 A 
ATOM     29  C   UNL     1      -3.554  12.699  20.100  0.00  0.00    +0.000 A 
ATOM     30  C   UNL     1      -3.127  11.860  19.059  0.00  0.00    +0.000 A 
ATOM     31  C   UNL     1      -1.863  11.246  19.154  0.00  0.00    +0.000 A 
BRANCH  30  32
ATOM     32  C   UNL     1      -4.095  11.588  17.945  0.00  0.00    +0.000 C 
ATOM     33  O   UNL     1      -4.047  10.549  17.297  0.00  0.00    +0.000 OA
BRANCH  32  34
ATOM     34  O   UNL     1      -5.004  12.543  17.751  0.00  0.00    +0.000 OA
ATOM     35  H   UNL     1      -4.775  13.437  18.069  0.00  0.00    +0.000 HD
ENDBRANCH  32  34
ENDBRANCH  30  32
ENDBRANCH  23  26
ENDBRANCH  20  22
ENDBRANCH   2  20
TORSDOF 6
ENDMDL
MODEL 8
REMARK VINA RESULT:      -9.0      1.953      2.768
REMARK  Name = 
REMARK  8 active torsions:
REMARK  status: ('A' for Active; 'I' for Inactive)
REMARK    1  A    between atoms: C_1  and  C_2
REMARK    2  A    between atoms: C_2  and  N_3
REMARK    3  A    between atoms: N_3  and  N_4
REMARK    4  A    between atoms: C_5  and  C_7
REMARK    5  A    between atoms: C_11  and  C_12
REMARK    6  A    between atoms: C_12  and  O_14
REMARK    7  A    between atoms: N_19  and  C_20
REMARK    8  A    between atoms: C_24  and  C_25
REMARK                            x       y       z     vdW  Elec       q    Type
REMARK                         _______ _______ _______ _____ _____    ______ ____
ROOT
ATOM      1  C   UNL     1       0.766   7.634  21.103  0.00  0.00    +0.000 C 
ATOM      2  C   UNL     1       1.704   7.793  19.922  0.00  0.00    +0.000 C 
ATOM      3  C   UNL     1       2.470   6.748  19.502  0.00  0.00    +0.000 C 
ATOM      4  C   UNL     1       3.465   6.774  18.342  0.00  0.00    +0.000 C 
ATOM      5  O   UNL     1       3.689   7.731  17.620  0.00  0.00    +0.000 OA
ATOM      6  N   UNL     1       4.087   5.511  18.353  0.00  0.00    +0.000 N 
ATOM      7  C   UNL     1       3.556   4.688  19.377  0.00  0.00    +0.000 A 
ATOM      8  C   UNL     1       3.838   3.355  19.670  0.00  0.00    +0.000 A 
ATOM      9  C   UNL     1       3.144   2.724  20.708  0.00  0.00    +0.000 A 
ATOM     10  C   UNL     1       2.161   3.413  21.418  0.00  0.00    +0.000 A 
ATOM     11  C   UNL     1       1.865   4.741  21.102  0.00  0.00    +0.000 A 
ATOM     12  C   UNL     1       2.566   5.385  20.084  0.00  0.00    +0.000 A 
ENDROOT
BRANCH   6  13
ATOM     13  C   UNL     1       5.111   5.071  17.467  0.00  0.00    +0.000 A 
ATOM     14  C   UNL     1       6.450   4.996  17.886  0.00  0.00    +0.000 A 
ATOM     15  C   UNL     1       7.462   4.588  17.011  0.00  0.00    +0.000 A 
ATOM     16  C   UNL     1       7.154   4.248  15.699  0.00  0.00    +0.000 A 
ATOM     17  C   UNL     1       5.831   4.323  15.245  0.00  0.00    +0.000 A 
ATOM     18  C   UNL     1       5.509   3.974  13.819  0.00  0.00    +0.000 C 
ATOM     19  C   UNL     1       4.816   4.738  16.134  0.00  0.00    +0.000 A 
ENDBRANCH   6  13
BRANCH   2  20
ATOM     20  N   UNL     1       1.573   9.063  19.353  0.00  0.00    +0.000 N 
ATOM     21  H   UNL     1       2.472   9.541  19.205  0.00  0.00    +0.000 HD
BRANCH  20  22
ATOM     22  N   UNL     1       0.646   9.983  19.912  0.00  0.00    +0.000 N 
ATOM     23  C   UNL     1      -0.392  10.448  19.101  0.00  0.00    +0.000 C 
ATOM     24  O   UNL     1      -0.530  10.159  17.917  0.00  0.00    +0.000 OA
ATOM     25  H   UNL     1       0.560   9.983  20.920  0.00  0.00    +0.000 HD
BRANCH  23  26
ATOM     26  C   UNL     1      -1.395  11.326  19.769  0.00  0.00    +0.000 A 
ATOM     27  C   UNL     1      -2.585  11.681  19.120  0.00  0.00    +0.000 A 
ATOM     28  C   UNL     1      -3.499  12.529  19.751  0.00  0.00    +0.000 A 
ATOM     29  C   UNL     1      -3.224  13.024  21.016  0.00  0.00    +0.000 A 
ATOM     30  C   UNL     1      -2.053  12.661  21.697  0.00  0.00    +0.000 A 
ATOM     31  C   UNL     1      -1.137  11.798  21.065  0.00  0.00    +0.000 A 
BRANCH  30  32
ATOM     32  C   UNL     1      -1.798  13.300  23.030  0.00  0.00    +0.000 C 
ATOM     33  O   UNL     1      -2.703  13.816  23.675  0.00  0.00    +0.000 OA
BRANCH  32  34
ATOM     34  O   UNL     1      -0.534  13.228  23.450  0.00  0.00    +0.000 OA
ATOM     35  H   UNL     1      -0.174  12.334  23.603  0.00  0.00    +0.000 HD
ENDBRANCH  32  34
ENDBRANCH  30  32
ENDBRANCH  23  26
ENDBRANCH  20  22
ENDBRANCH   2  20
TORSDOF 6
ENDMDL
MODEL 9
REMARK VINA RESULT:      -8.9      1.473      1.962
REMARK  Name = 
REMARK  8 active torsions:
REMARK  status: ('A' for Active; 'I' for Inactive)
REMARK    1  A    between atoms: C_1  and  C_2
REMARK    2  A    between atoms: C_2  and  N_3
REMARK    3  A    between atoms: N_3  and  N_4
REMARK    4  A    between atoms: C_5  and  C_7
REMARK    5  A    between atoms: C_11  and  C_12
REMARK    6  A    between atoms: C_12  and  O_14
REMARK    7  A    between atoms: N_19  and  C_20
REMARK    8  A    between atoms: C_24  and  C_25
REMARK                            x       y       z     vdW  Elec       q    Type
REMARK                         _______ _______ _______ _____ _____    ______ ____
ROOT
ATOM      1  C   UNL     1       1.174   6.420  20.939  0.00  0.00    +0.000 C 
ATOM      2  C   UNL     1       2.137   6.882  19.862  0.00  0.00    +0.000 C 
ATOM      3  C   UNL     1       2.753   5.978  19.051  0.00  0.00    +0.000 C 
ATOM      4  C   UNL     1       3.753   6.303  17.942  0.00  0.00    +0.000 C 
ATOM      5  O   UNL     1       4.117   7.421  17.618  0.00  0.00    +0.000 OA
ATOM      6  N   UNL     1       4.191   5.056  17.455  0.00  0.00    +0.000 N 
ATOM      7  C   UNL     1       3.540   3.989  18.122  0.00  0.00    +0.000 A 
ATOM      8  C   UNL     1       3.628   2.618  17.886  0.00  0.00    +0.000 A 
ATOM      9  C   UNL     1       2.842   1.743  18.643  0.00  0.00    +0.000 A 
ATOM     10  C   UNL     1       1.959   2.242  19.601  0.00  0.00    +0.000 A 
ATOM     11  C   UNL     1       1.855   3.618  19.814  0.00  0.00    +0.000 A 
ATOM     12  C   UNL     1       2.650   4.496  19.079  0.00  0.00    +0.000 A 
ENDROOT
BRANCH   6  13
ATOM     13  C   UNL     1       5.152   4.847  16.425  0.00  0.00    +0.000 A 
ATOM     14  C   UNL     1       6.513   5.128  16.635  0.00  0.00    +0.000 A 
ATOM     15  C   UNL     1       7.455   4.948  15.618  0.00  0.00    +0.000 A 
ATOM     16  C   UNL     1       7.055   4.482  14.370  0.00  0.00    +0.000 A 
ATOM     17  C   UNL     1       5.705   4.203  14.124  0.00  0.00    +0.000 A 
ATOM     18  C   UNL     1       5.277   3.720  12.767  0.00  0.00    +0.000 C 
ATOM     19  C   UNL     1       4.760   4.390  15.156  0.00  0.00    +0.000 A 
ENDBRANCH   6  13
BRANCH   2  20
ATOM     20  N   UNL     1       2.191   8.278  19.812  0.00  0.00    +0.000 N 
ATOM     21  H   UNL     1       2.746   8.694  20.572  0.00  0.00    +0.000 HD
BRANCH  20  22
ATOM     22  N   UNL     1       0.987   9.016  19.661  0.00  0.00    +0.000 N 
ATOM     23  C   UNL     1       0.721   9.594  18.417  0.00  0.00    +0.000 C 
ATOM     24  O   UNL     1       1.482   9.556  17.457  0.00  0.00    +0.000 OA
ATOM     25  H   UNL     1       0.239   8.799  20.306  0.00  0.00    +0.000 HD
BRANCH  23  26
ATOM     26  C   UNL     1      -0.605  10.265  18.284  0.00  0.00    +0.000 A 
ATOM     27  C   UNL     1      -1.477   9.929  17.240  0.00  0.00    +0.000 A 
ATOM     28  C   UNL     1      -2.702  10.590  17.114  0.00  0.00    +0.000 A 
ATOM     29  C   UNL     1      -3.050  11.581  18.018  0.00  0.00    +0.000 A 
ATOM     30  C   UNL     1      -2.206  11.914  19.088  0.00  0.00    +0.000 A 
ATOM     31  C   UNL     1      -0.976  11.240  19.220  0.00  0.00    +0.000 A 
BRANCH  30  32
ATOM     32  C   UNL     1      -2.624  13.048  19.977  0.00  0.00    +0.000 C 
ATOM     33  O   UNL     1      -1.799  13.784  20.504  0.00  0.00    +0.000 OA
BRANCH  32  34
ATOM     34  O   UNL     1      -3.943  13.192  20.112  0.00  0.00    +0.000 OA
ATOM     35  H   UNL     1      -4.466  13.216  19.289  0.00  0.00    +0.000 HD
ENDBRANCH  32  34
ENDBRANCH  30  32
ENDBRANCH  23  26
ENDBRANCH  20  22
ENDBRANCH   2  20
TORSDOF 6
ENDMDL
