MODEL 1
REMARK VINA RESULT:      -7.7      0.000      0.000
REMARK  Name = 
REMARK  3 active torsions:
REMARK  status: ('A' for Active; 'I' for Inactive)
REMARK    1  A    between atoms: C_1  and  S_2
REMARK    2  A    between atoms: S_2  and  N_5
REMARK    3  A    between atoms: N_8  and  C_9
REMARK                            x       y       z     vdW  Elec       q    Type
REMARK                         _______ _______ _______ _____ _____    ______ ____
ROOT
ATOM      1  C   UNL     1       2.341   7.122  19.125  0.00  0.00    +0.000 C 
ATOM      2  C   UNL     1       2.366   5.853  19.572  0.00  0.00    +0.000 C 
ATOM      3 CL   UNL     1       1.406   5.329  20.926  0.00  0.00    +0.000 Cl
ATOM      4  C   UNL     1       3.234   4.801  18.987  0.00  0.00    +0.000 C 
ATOM      5  O   UNL     1       3.258   3.651  19.411  0.00  0.00    +0.000 OA
ATOM      6  C   UNL     1       4.101   5.181  17.864  0.00  0.00    +0.000 A 
ATOM      7  C   UNL     1       4.992   4.238  17.335  0.00  0.00    +0.000 A 
ATOM      8  C   UNL     1       5.823   4.582  16.269  0.00  0.00    +0.000 A 
ATOM      9  C   UNL     1       5.765   5.864  15.726  0.00  0.00    +0.000 A 
ATOM     10  C   UNL     1       4.880   6.805  16.254  0.00  0.00    +0.000 A 
ATOM     11  C   UNL     1       4.049   6.463  17.328  0.00  0.00    +0.000 A 
ATOM     12  C   UNL     1       3.148   7.473  17.898  0.00  0.00    +0.000 C 
ATOM     13  O   UNL     1       3.074   8.588  17.373  0.00  0.00    +0.000 OA
ENDROOT
BRANCH   1  17
ATOM     14  N   UNL     1      -0.368  10.078  20.673  0.00  0.00    +0.000 NA
ATOM     15  C   UNL     1      -0.176   9.872  19.207  0.00  0.00    +0.000 C 
ATOM     16  C   UNL     1       1.230   9.358  18.851  0.00  0.00    +0.000 C 
ATOM     17  N   UNL     1       1.603   8.181  19.670  0.00  0.00    +0.000 N 
ATOM     18  C   UNL     1       1.395   8.341  21.124  0.00  0.00    +0.000 C 
ATOM     19  C   UNL     1      -0.049   8.795  21.398  0.00  0.00    +0.000 C 
BRANCH  14  21
ATOM     20  C   UNL     1      -0.834  12.805  20.738  0.00  0.00    +0.000 C 
ATOM     21  S   UNL     1       0.153  11.490  21.436  0.00  0.00    +0.000 S 
ATOM     22  O   UNL     1       1.525  11.745  21.091  0.00  0.00    +0.000 OA
ATOM     23  O   UNL     1      -0.252  11.364  22.830  0.00  0.00    +0.000 OA
ENDBRANCH  14  21
ENDBRANCH   1  17
TORSDOF 2
ENDMDL
MODEL 2
REMARK VINA RESULT:      -7.6      3.481      7.325
REMARK  Name = 
REMARK  3 active torsions:
REMARK  status: ('A' for Active; 'I' for Inactive)
REMARK    1  A    between atoms: C_1  and  S_2
REMARK    2  A    between atoms: S_2  and  N_5
REMARK    3  A    between atoms: N_8  and  C_9
REMARK                            x       y       z     vdW  Elec       q    Type
REMARK                         _______ _______ _______ _____ _____    ______ ____
ROOT
ATOM      1  C   UNL     1       2.204   7.200  19.254  0.00  0.00    +0.000 C 
ATOM      2  C   UNL     1       2.335   8.235  18.403  0.00  0.00    +0.000 C 
ATOM      3 CL   UNL     1       3.187   8.089  16.893  0.00  0.00    +0.000 Cl
ATOM      4  C   UNL     1       1.806   9.592  18.685  0.00  0.00    +0.000 C 
ATOM      5  O   UNL     1       1.943  10.530  17.908  0.00  0.00    +0.000 OA
ATOM      6  C   UNL     1       1.108   9.800  19.960  0.00  0.00    +0.000 A 
ATOM      7  C   UNL     1       0.664  11.084  20.299  0.00  0.00    +0.000 A 
ATOM      8  C   UNL     1      -0.001  11.300  21.506  0.00  0.00    +0.000 A 
ATOM      9  C   UNL     1      -0.227  10.234  22.375  0.00  0.00    +0.000 A 
ATOM     10  C   UNL     1       0.217   8.955  22.040  0.00  0.00    +0.000 A 
ATOM     11  C   UNL     1       0.890   8.739  20.831  0.00  0.00    +0.000 A 
ATOM     12  C   UNL     1       1.384   7.394  20.507  0.00  0.00    +0.000 C 
ATOM     13  O   UNL     1       1.131   6.453  21.267  0.00  0.00    +0.000 OA
ENDROOT
BRANCH   1  17
ATOM     14  N   UNL     1       4.086   3.456  18.301  0.00  0.00    +0.000 NA
ATOM     15  C   UNL     1       2.926   3.979  17.520  0.00  0.00    +0.000 C 
ATOM     16  C   UNL     1       1.986   4.863  18.358  0.00  0.00    +0.000 C 
ATOM     17  N   UNL     1       2.735   5.914  19.088  0.00  0.00    +0.000 N 
ATOM     18  C   UNL     1       3.907   5.434  19.846  0.00  0.00    +0.000 C 
ATOM     19  C   UNL     1       4.825   4.613  18.923  0.00  0.00    +0.000 C 
BRANCH  14  21
ATOM     20  C   UNL     1       2.373   2.251  20.110  0.00  0.00    +0.000 C 
ATOM     21  S   UNL     1       3.942   2.083  19.273  0.00  0.00    +0.000 S 
ATOM     22  O   UNL     1       4.973   2.092  20.274  0.00  0.00    +0.000 OA
ATOM     23  O   UNL     1       3.805   0.958  18.357  0.00  0.00    +0.000 OA
ENDBRANCH  14  21
ENDBRANCH   1  17
TORSDOF 2
ENDMDL
MODEL 3
REMARK VINA RESULT:      -7.4      5.827      7.536
REMARK  Name = 
REMARK  3 active torsions:
REMARK  status: ('A' for Active; 'I' for Inactive)
REMARK    1  A    between atoms: C_1  and  S_2
REMARK    2  A    between atoms: S_2  and  N_5
REMARK    3  A    between atoms: N_8  and  C_9
REMARK                            x       y       z     vdW  Elec       q    Type
REMARK                         _______ _______ _______ _____ _____    ______ ____
ROOT
ATOM      1  C   UNL     1      -2.094  12.257  20.461  0.00  0.00    +0.000 C 
ATOM      2  C   UNL     1      -1.043  11.445  20.242  0.00  0.00    +0.000 C 
ATOM      3 CL   UNL     1       0.301  11.353  21.344  0.00  0.00    +0.000 Cl
ATOM      4  C   UNL     1      -0.911  10.592  19.036  0.00  0.00    +0.000 C 
ATOM      5  O   UNL     1       0.058   9.866  18.841  0.00  0.00    +0.000 OA
ATOM      6  C   UNL     1      -1.991  10.647  18.041  0.00  0.00    +0.000 A 
ATOM      7  C   UNL     1      -1.867   9.917  16.852  0.00  0.00    +0.000 A 
ATOM      8  C   UNL     1      -2.882   9.958  15.897  0.00  0.00    +0.000 A 
ATOM      9  C   UNL     1      -4.024  10.724  16.127  0.00  0.00    +0.000 A 
ATOM     10  C   UNL     1      -4.147  11.453  17.310  0.00  0.00    +0.000 A 
ATOM     11  C   UNL     1      -3.125  11.418  18.267  0.00  0.00    +0.000 A 
ATOM     12  C   UNL     1      -3.251  12.219  19.492  0.00  0.00    +0.000 C 
ATOM     13  O   UNL     1      -4.291  12.852  19.700  0.00  0.00    +0.000 OA
ENDROOT
BRANCH   1  17
ATOM     14  N   UNL     1      -3.055  15.111  23.527  0.00  0.00    +0.000 NA
ATOM     15  C   UNL     1      -2.583  15.533  22.174  0.00  0.00    +0.000 C 
ATOM     16  C   UNL     1      -1.658  14.497  21.511  0.00  0.00    +0.000 C 
ATOM     17  N   UNL     1      -2.253  13.140  21.537  0.00  0.00    +0.000 N 
ATOM     18  C   UNL     1      -2.758  12.705  22.855  0.00  0.00    +0.000 C 
ATOM     19  C   UNL     1      -3.722  13.763  23.420  0.00  0.00    +0.000 C 
BRANCH  14  21
ATOM     20  C   UNL     1      -2.151  17.094  25.232  0.00  0.00    +0.000 C 
ATOM     21  S   UNL     1      -2.100  15.340  24.900  0.00  0.00    +0.000 S 
ATOM     22  O   UNL     1      -0.738  14.993  24.601  0.00  0.00    +0.000 OA
ATOM     23  O   UNL     1      -2.810  14.690  25.993  0.00  0.00    +0.000 OA
ENDBRANCH  14  21
ENDBRANCH   1  17
TORSDOF 2
ENDMDL
MODEL 4
REMARK VINA RESULT:      -7.4      2.046      2.814
REMARK  Name = 
REMARK  3 active torsions:
REMARK  status: ('A' for Active; 'I' for Inactive)
REMARK    1  A    between atoms: C_1  and  S_2
REMARK    2  A    between atoms: S_2  and  N_5
REMARK    3  A    between atoms: N_8  and  C_9
REMARK                            x       y       z     vdW  Elec       q    Type
REMARK                         _______ _______ _______ _____ _____    ______ ____
ROOT
ATOM      1  C   UNL     1       1.181   9.069  19.572  0.00  0.00    +0.000 C 
ATOM      2  C   UNL     1       1.069   8.042  20.434  0.00  0.00    +0.000 C 
ATOM      3 CL   UNL     1       0.035   8.116  21.832  0.00  0.00    +0.000 Cl
ATOM      4  C   UNL     1       1.836   6.780  20.301  0.00  0.00    +0.000 C 
ATOM      5  O   UNL     1       1.735   5.856  21.100  0.00  0.00    +0.000 OA
ATOM      6  C   UNL     1       2.759   6.660  19.164  0.00  0.00    +0.000 A 
ATOM      7  C   UNL     1       3.560   5.517  19.046  0.00  0.00    +0.000 A 
ATOM      8  C   UNL     1       4.442   5.388  17.974  0.00  0.00    +0.000 A 
ATOM      9  C   UNL     1       4.525   6.396  17.016  0.00  0.00    +0.000 A 
ATOM     10  C   UNL     1       3.730   7.536  17.133  0.00  0.00    +0.000 A 
ATOM     11  C   UNL     1       2.848   7.670  18.213  0.00  0.00    +0.000 A 
ATOM     12  C   UNL     1       2.043   8.891  18.344  0.00  0.00    +0.000 C 
ATOM     13  O   UNL     1       2.094   9.752  17.460  0.00  0.00    +0.000 OA
ENDROOT
BRANCH   1  17
ATOM     14  N   UNL     1      -0.525  13.010  19.406  0.00  0.00    +0.000 NA
ATOM     15  C   UNL     1       0.908  12.783  19.760  0.00  0.00    +0.000 C 
ATOM     16  C   UNL     1       1.151  11.425  20.442  0.00  0.00    +0.000 C 
ATOM     17  N   UNL     1       0.544  10.313  19.672  0.00  0.00    +0.000 N 
ATOM     18  C   UNL     1      -0.864  10.520  19.279  0.00  0.00    +0.000 C 
ATOM     19  C   UNL     1      -1.009  11.867  18.550  0.00  0.00    +0.000 C 
BRANCH  14  21
ATOM     20  C   UNL     1      -1.567  15.361  20.428  0.00  0.00    +0.000 C 
ATOM     21  S   UNL     1      -1.631  13.580  20.548  0.00  0.00    +0.000 S 
ATOM     22  O   UNL     1      -1.191  13.216  21.866  0.00  0.00    +0.000 OA
ATOM     23  O   UNL     1      -2.945  13.179  20.065  0.00  0.00    +0.000 OA
ENDBRANCH  14  21
ENDBRANCH   1  17
TORSDOF 2
ENDMDL
MODEL 5
REMARK VINA RESULT:      -7.3      5.114      6.292
REMARK  Name = 
REMARK  3 active torsions:
REMARK  status: ('A' for Active; 'I' for Inactive)
REMARK    1  A    between atoms: C_1  and  S_2
REMARK    2  A    between atoms: S_2  and  N_5
REMARK    3  A    between atoms: N_8  and  C_9
REMARK                            x       y       z     vdW  Elec       q    Type
REMARK                         _______ _______ _______ _____ _____    ______ ____
ROOT
ATOM      1  C   UNL     1       5.321   4.346  17.013  0.00  0.00    +0.000 C 
ATOM      2  C   UNL     1       6.213   5.336  17.200  0.00  0.00    +0.000 C 
ATOM      3 CL   UNL     1       6.361   6.174  18.718  0.00  0.00    +0.000 Cl
ATOM      4  C   UNL     1       7.118   5.829  16.133  0.00  0.00    +0.000 C 
ATOM      5  O   UNL     1       7.918   6.740  16.311  0.00  0.00    +0.000 OA
ATOM      6  C   UNL     1       7.022   5.193  14.812  0.00  0.00    +0.000 A 
ATOM      7  C   UNL     1       7.802   5.682  13.756  0.00  0.00    +0.000 A 
ATOM      8  C   UNL     1       7.724   5.091  12.496  0.00  0.00    +0.000 A 
ATOM      9  C   UNL     1       6.870   4.010  12.286  0.00  0.00    +0.000 A 
ATOM     10  C   UNL     1       6.090   3.523  13.336  0.00  0.00    +0.000 A 
ATOM     11  C   UNL     1       6.164   4.120  14.601  0.00  0.00    +0.000 A 
ATOM     12  C   UNL     1       5.312   3.622  15.688  0.00  0.00    +0.000 C 
ATOM     13  O   UNL     1       4.598   2.632  15.497  0.00  0.00    +0.000 OA
ENDROOT
BRANCH   1  17
ATOM     14  N   UNL     1       2.332   2.531  19.512  0.00  0.00    +0.000 NA
ATOM     15  C   UNL     1       1.972   3.393  18.347  0.00  0.00    +0.000 C 
ATOM     16  C   UNL     1       3.032   4.466  18.042  0.00  0.00    +0.000 C 
ATOM     17  N   UNL     1       4.390   3.878  17.950  0.00  0.00    +0.000 N 
ATOM     18  C   UNL     1       4.765   2.994  19.072  0.00  0.00    +0.000 C 
ATOM     19  C   UNL     1       3.687   1.915  19.270  0.00  0.00    +0.000 C 
BRANCH  14  21
ATOM     20  C   UNL     1       2.248   4.802  21.090  0.00  0.00    +0.000 C 
ATOM     21  S   UNL     1       2.035   3.029  21.097  0.00  0.00    +0.000 S 
ATOM     22  O   UNL     1       3.033   2.474  21.970  0.00  0.00    +0.000 OA
ATOM     23  O   UNL     1       0.619   2.783  21.334  0.00  0.00    +0.000 OA
ENDBRANCH  14  21
ENDBRANCH   1  17
TORSDOF 2
ENDMDL
MODEL 6
REMARK VINA RESULT:      -7.1      8.452      9.335
REMARK  Name = 
REMARK  3 active torsions:
REMARK  status: ('A' for Active; 'I' for Inactive)
REMARK    1  A    between atoms: C_1  and  S_2
REMARK    2  A    between atoms: S_2  and  N_5
REMARK    3  A    between atoms: N_8  and  C_9
REMARK                            x       y       z     vdW  Elec       q    Type
REMARK                         _______ _______ _______ _____ _____    ______ ____
ROOT
ATOM      1  C   UNL     1       8.303  13.443  21.779  0.00  0.00    +0.000 C 
ATOM      2  C   UNL     1       8.329  14.657  21.198  0.00  0.00    +0.000 C 
ATOM      3 CL   UNL     1       7.598  16.053  21.938  0.00  0.00    +0.000 Cl
ATOM      4  C   UNL     1       8.940  14.912  19.870  0.00  0.00    +0.000 C 
ATOM      5  O   UNL     1       8.946  16.019  19.346  0.00  0.00    +0.000 OA
ATOM      6  C   UNL     1       9.543  13.771  19.168  0.00  0.00    +0.000 A 
ATOM      7  C   UNL     1      10.060  13.953  17.879  0.00  0.00    +0.000 A 
ATOM      8  C   UNL     1      10.635  12.881  17.198  0.00  0.00    +0.000 A 
ATOM      9  C   UNL     1      10.699  11.626  17.802  0.00  0.00    +0.000 A 
ATOM     10  C   UNL     1      10.183  11.443  19.085  0.00  0.00    +0.000 A 
ATOM     11  C   UNL     1       9.599  12.518  19.768  0.00  0.00    +0.000 A 
ATOM     12  C   UNL     1       9.027  12.303  21.103  0.00  0.00    +0.000 C 
ATOM     13  O   UNL     1       9.137  11.198  21.642  0.00  0.00    +0.000 OA
ENDROOT
BRANCH   1  17
ATOM     14  N   UNL     1       6.632  11.939  25.441  0.00  0.00    +0.000 NA
ATOM     15  C   UNL     1       6.094  11.543  24.106  0.00  0.00    +0.000 C 
ATOM     16  C   UNL     1       6.284  12.631  23.034  0.00  0.00    +0.000 C 
ATOM     17  N   UNL     1       7.685  13.115  22.992  0.00  0.00    +0.000 N 
ATOM     18  C   UNL     1       8.256  13.486  24.302  0.00  0.00    +0.000 C 
ATOM     19  C   UNL     1       8.082  12.324  25.296  0.00  0.00    +0.000 C 
BRANCH  14  21
ATOM     20  C   UNL     1       4.639  11.770  27.354  0.00  0.00    +0.000 C 
ATOM     21  S   UNL     1       5.730  12.897  26.500  0.00  0.00    +0.000 S 
ATOM     22  O   UNL     1       4.913  13.808  25.747  0.00  0.00    +0.000 OA
ATOM     23  O   UNL     1       6.675  13.392  27.493  0.00  0.00    +0.000 OA
ENDBRANCH  14  21
ENDBRANCH   1  17
TORSDOF 2
ENDMDL
MODEL 7
REMARK VINA RESULT:      -7.1      2.090      3.066
REMARK  Name = 
REMARK  3 active torsions:
REMARK  status: ('A' for Active; 'I' for Inactive)
REMARK    1  A    between atoms: C_1  and  S_2
REMARK    2  A    between atoms: S_2  and  N_5
REMARK    3  A    between atoms: N_8  and  C_9
REMARK                            x       y       z     vdW  Elec       q    Type
REMARK                         _______ _______ _______ _____ _____    ______ ____
ROOT
ATOM      1  C   UNL     1       2.503   6.727  18.769  0.00  0.00    +0.000 C 
ATOM      2  C   UNL     1       3.521   6.491  17.920  0.00  0.00    +0.000 C 
ATOM      3 CL   UNL     1       4.330   7.773  17.066  0.00  0.00    +0.000 Cl
ATOM      4  C   UNL     1       4.018   5.130  17.605  0.00  0.00    +0.000 C 
ATOM      5  O   UNL     1       4.938   4.926  16.820  0.00  0.00    +0.000 OA
ATOM      6  C   UNL     1       3.356   3.994  18.260  0.00  0.00    +0.000 A 
ATOM      7  C   UNL     1       3.744   2.689  17.929  0.00  0.00    +0.000 A 
ATOM      8  C   UNL     1       3.126   1.599  18.541  0.00  0.00    +0.000 A 
ATOM      9  C   UNL     1       2.123   1.808  19.487  0.00  0.00    +0.000 A 
ATOM     10  C   UNL     1       1.735   3.107  19.815  0.00  0.00    +0.000 A 
ATOM     11  C   UNL     1       2.351   4.202  19.197  0.00  0.00    +0.000 A 
ATOM     12  C   UNL     1       1.908   5.564  19.525  0.00  0.00    +0.000 C 
ATOM     13  O   UNL     1       1.053   5.731  20.400  0.00  0.00    +0.000 OA
ENDROOT
BRANCH   1  17
ATOM     14  N   UNL     1       0.277  10.299  19.638  0.00  0.00    +0.000 NA
ATOM     15  C   UNL     1       0.330   9.715  18.265  0.00  0.00    +0.000 C 
ATOM     16  C   UNL     1       1.636   8.951  17.986  0.00  0.00    +0.000 C 
ATOM     17  N   UNL     1       1.936   7.975  19.060  0.00  0.00    +0.000 N 
ATOM     18  C   UNL     1       1.861   8.514  20.433  0.00  0.00    +0.000 C 
ATOM     19  C   UNL     1       0.504   9.204  20.649  0.00  0.00    +0.000 C 
BRANCH  14  21
ATOM     20  C   UNL     1      -0.269  13.006  19.813  0.00  0.00    +0.000 C 
ATOM     21  S   UNL     1       1.014  11.776  19.992  0.00  0.00    +0.000 S 
ATOM     22  O   UNL     1       2.025  12.056  19.010  0.00  0.00    +0.000 OA
ATOM     23  O   UNL     1       1.347  11.727  21.409  0.00  0.00    +0.000 OA
ENDBRANCH  14  21
ENDBRANCH   1  17
TORSDOF 2
ENDMDL
MODEL 8
REMARK VINA RESULT:      -7.1      8.985      9.765
REMARK  Name = 
REMARK  3 active torsions:
REMARK  status: ('A' for Active; 'I' for Inactive)
REMARK    1  A    between atoms: C_1  and  S_2
REMARK    2  A    between atoms: S_2  and  N_5
REMARK    3  A    between atoms: N_8  and  C_9
REMARK                            x       y       z     vdW  Elec       q    Type
REMARK                         _______ _______ _______ _____ _____    ______ ____
ROOT
ATOM      1  C   UNL     1       9.214  13.292  22.156  0.00  0.00    +0.000 C 
ATOM      2  C   UNL     1       9.801  14.490  21.980  0.00  0.00    +0.000 C 
ATOM      3 CL   UNL     1       9.499  15.833  23.046  0.00  0.00    +0.000 Cl
ATOM      4  C   UNL     1      10.718  14.790  20.854  0.00  0.00    +0.000 C 
ATOM      5  O   UNL     1      11.237  15.890  20.697  0.00  0.00    +0.000 OA
ATOM      6  C   UNL     1      10.989  13.714  19.891  0.00  0.00    +0.000 A 
ATOM      7  C   UNL     1      11.787  13.980  18.771  0.00  0.00    +0.000 A 
ATOM      8  C   UNL     1      12.054  12.971  17.847  0.00  0.00    +0.000 A 
ATOM      9  C   UNL     1      11.530  11.694  18.040  0.00  0.00    +0.000 A 
ATOM     10  C   UNL     1      10.734  11.428  19.154  0.00  0.00    +0.000 A 
ATOM     11  C   UNL     1      10.460  12.443  20.080  0.00  0.00    +0.000 A 
ATOM     12  C   UNL     1       9.590  12.160  21.229  0.00  0.00    +0.000 C 
ATOM     13  O   UNL     1       9.175  11.011  21.410  0.00  0.00    +0.000 OA
ENDROOT
BRANCH   1  17
ATOM     14  N   UNL     1       6.408  11.752  25.023  0.00  0.00    +0.000 NA
ATOM     15  C   UNL     1       6.048  11.937  23.586  0.00  0.00    +0.000 C 
ATOM     16  C   UNL     1       6.828  13.080  22.913  0.00  0.00    +0.000 C 
ATOM     17  N   UNL     1       8.286  12.957  23.151  0.00  0.00    +0.000 N 
ATOM     18  C   UNL     1       8.674  12.742  24.559  0.00  0.00    +0.000 C 
ATOM     19  C   UNL     1       7.897  11.546  25.137  0.00  0.00    +0.000 C 
BRANCH  14  21
ATOM     20  C   UNL     1       4.596  11.624  27.110  0.00  0.00    +0.000 C 
ATOM     21  S   UNL     1       5.713  12.705  26.231  0.00  0.00    +0.000 S 
ATOM     22  O   UNL     1       4.928  13.747  25.629  0.00  0.00    +0.000 OA
ATOM     23  O   UNL     1       6.792  13.026  27.155  0.00  0.00    +0.000 OA
ENDBRANCH  14  21
ENDBRANCH   1  17
TORSDOF 2
ENDMDL
MODEL 9
REMARK VINA RESULT:      -7.1      2.489      3.680
REMARK  Name = 
REMARK  3 active torsions:
REMARK  status: ('A' for Active; 'I' for Inactive)
REMARK    1  A    between atoms: C_1  and  S_2
REMARK    2  A    between atoms: S_2  and  N_5
REMARK    3  A    between atoms: N_8  and  C_9
REMARK                            x       y       z     vdW  Elec       q    Type
REMARK                         _______ _______ _______ _____ _____    ______ ____
ROOT
ATOM      1  C   UNL     1       1.299   8.987  19.731  0.00  0.00    +0.000 C 
ATOM      2  C   UNL     1       1.995   9.068  18.582  0.00  0.00    +0.000 C 
ATOM      3 CL   UNL     1       2.047  10.525  17.632  0.00  0.00    +0.000 Cl
ATOM      4  C   UNL     1       2.742   7.926  18.001  0.00  0.00    +0.000 C 
ATOM      5  O   UNL     1       3.362   8.008  16.947  0.00  0.00    +0.000 OA
ATOM      6  C   UNL     1       2.711   6.650  18.730  0.00  0.00    +0.000 A 
ATOM      7  C   UNL     1       3.338   5.527  18.175  0.00  0.00    +0.000 A 
ATOM      8  C   UNL     1       3.318   4.309  18.852  0.00  0.00    +0.000 A 
ATOM      9  C   UNL     1       2.677   4.208  20.086  0.00  0.00    +0.000 A 
ATOM     10  C   UNL     1       2.050   5.326  20.638  0.00  0.00    +0.000 A 
ATOM     11  C   UNL     1       2.064   6.549  19.955  0.00  0.00    +0.000 A 
ATOM     12  C   UNL     1       1.369   7.708  20.531  0.00  0.00    +0.000 C 
ATOM     13  O   UNL     1       0.849   7.613  21.646  0.00  0.00    +0.000 OA
ENDROOT
BRANCH   1  17
ATOM     14  N   UNL     1      -0.947  12.402  21.060  0.00  0.00    +0.000 NA
ATOM     15  C   UNL     1       0.539  12.331  21.194  0.00  0.00    +0.000 C 
ATOM     16  C   UNL     1       1.061  10.892  21.351  0.00  0.00    +0.000 C 
ATOM     17  N   UNL     1       0.515   9.998  20.302  0.00  0.00    +0.000 N 
ATOM     18  C   UNL     1      -0.949  10.067  20.122  0.00  0.00    +0.000 C 
ATOM     19  C   UNL     1      -1.381  11.529  19.910  0.00  0.00    +0.000 C 
BRANCH  14  21
ATOM     20  C   UNL     1      -1.497  13.797  23.386  0.00  0.00    +0.000 C 
ATOM     21  S   UNL     1      -1.953  12.368  22.415  0.00  0.00    +0.000 S 
ATOM     22  O   UNL     1      -1.663  11.199  23.199  0.00  0.00    +0.000 OA
ATOM     23  O   UNL     1      -3.300  12.616  21.919  0.00  0.00    +0.000 OA
ENDBRANCH  14  21
ENDBRANCH   1  17
TORSDOF 2
ENDMDL
