MODEL 1
REMARK VINA RESULT:      -7.6      0.000      0.000
REMARK  Name = 
REMARK  2 active torsions:
REMARK  status: ('A' for Active; 'I' for Inactive)
REMARK    1  A    between atoms: C_3  and  C_4
REMARK    2  A    between atoms: C_12  and  N_13
REMARK                            x       y       z     vdW  Elec       q    Type
REMARK                         _______ _______ _______ _____ _____    ______ ____
ROOT
ATOM      1  C   UNL     1       2.305   6.678  19.312  0.00  0.00    +0.000 A 
ATOM      2  C   UNL     1       1.564   5.701  19.956  0.00  0.00    +0.000 A 
ATOM      3  C   UNL     1       2.152   4.471  20.199  0.00  0.00    +0.000 A 
ATOM      4  C   UNL     1       1.522   3.504  20.978  0.00  0.00    +0.000 A 
ATOM      5  N   UNL     1       2.128   2.396  21.447  0.00  0.00    +0.000 NA
ATOM      6  C   UNL     1       3.426   2.248  21.127  0.00  0.00    +0.000 A 
ATOM      7  C   UNL     1       4.108   3.095  20.268  0.00  0.00    +0.000 A 
ATOM      8  C   UNL     1       3.450   4.226  19.732  0.00  0.00    +0.000 A 
ATOM      9  C   UNL     1       3.995   5.145  18.795  0.00  0.00    +0.000 A 
ATOM     10  N   UNL     1       3.459   6.393  18.655  0.00  0.00    +0.000 NA
ENDROOT
BRANCH   9  11
ATOM     11  N   UNL     1       5.114   4.772  18.024  0.00  0.00    +0.000 N 
ATOM     12  C   UNL     1       6.396   5.422  18.364  0.00  0.00    +0.000 C 
ATOM     13  C   UNL     1       7.544   4.657  17.647  0.00  0.00    +0.000 C 
ATOM     14  N   UNL     1       7.385   4.532  16.181  0.00  0.00    +0.000 NA
ATOM     15  C   UNL     1       6.033   4.042  15.853  0.00  0.00    +0.000 C 
ATOM     16  C   UNL     1       4.908   4.840  16.551  0.00  0.00    +0.000 C 
ATOM     17  H   UNL     1       8.070   3.860  15.831  0.00  0.00    +0.000 HD
ENDBRANCH   9  11
BRANCH   1  20
ATOM     18  C   UNL     1       0.852   9.871  20.693  0.00  0.00    +0.000 A 
ATOM     19  C   UNL     1       1.370   8.588  20.638  0.00  0.00    +0.000 A 
ATOM     20  C   UNL     1       1.876   8.089  19.418  0.00  0.00    +0.000 A 
ATOM     21  C   UNL     1       1.907   8.963  18.335  0.00  0.00    +0.000 A 
ATOM     22  C   UNL     1       1.361  10.232  18.488  0.00  0.00    +0.000 A 
ATOM     23  N   UNL     1       0.818  10.697  19.634  0.00  0.00    +0.000 NA
ENDBRANCH   1  20
TORSDOF 2
ENDMDL
MODEL 2
REMARK VINA RESULT:      -7.5      1.390      1.392
REMARK  Name = 
REMARK  2 active torsions:
REMARK  status: ('A' for Active; 'I' for Inactive)
REMARK    1  A    between atoms: C_3  and  C_4
REMARK    2  A    between atoms: C_12  and  N_13
REMARK                            x       y       z     vdW  Elec       q    Type
REMARK                         _______ _______ _______ _____ _____    ______ ____
ROOT
ATOM      1  C   UNL     1       2.371   6.582  18.236  0.00  0.00    +0.000 A 
ATOM      2  C   UNL     1       1.463   5.554  18.423  0.00  0.00    +0.000 A 
ATOM      3  C   UNL     1       1.918   4.247  18.382  0.00  0.00    +0.000 A 
ATOM      4  C   UNL     1       1.092   3.176  18.717  0.00  0.00    +0.000 A 
ATOM      5  N   UNL     1       1.529   1.920  18.928  0.00  0.00    +0.000 NA
ATOM      6  C   UNL     1       2.853   1.722  18.801  0.00  0.00    +0.000 A 
ATOM      7  C   UNL     1       3.738   2.694  18.363  0.00  0.00    +0.000 A 
ATOM      8  C   UNL     1       3.264   3.997  18.089  0.00  0.00    +0.000 A 
ATOM      9  C   UNL     1       4.035   5.077  17.575  0.00  0.00    +0.000 A 
ATOM     10  N   UNL     1       3.611   6.365  17.728  0.00  0.00    +0.000 NA
ENDROOT
BRANCH   9  11
ATOM     11  N   UNL     1       5.258   4.812  16.928  0.00  0.00    +0.000 N 
ATOM     12  C   UNL     1       6.486   5.181  17.662  0.00  0.00    +0.000 C 
ATOM     13  C   UNL     1       7.704   4.526  16.950  0.00  0.00    +0.000 C 
ATOM     14  N   UNL     1       7.828   4.848  15.511  0.00  0.00    +0.000 NA
ATOM     15  C   UNL     1       6.539   4.636  14.825  0.00  0.00    +0.000 C 
ATOM     16  C   UNL     1       5.350   5.326  15.534  0.00  0.00    +0.000 C 
ATOM     17  H   UNL     1       8.525   4.230  15.093  0.00  0.00    +0.000 HD
ENDBRANCH   9  11
BRANCH   1  20
ATOM     18  C   UNL     1       1.131   9.416  20.391  0.00  0.00    +0.000 A 
ATOM     19  C   UNL     1       1.586   8.164  20.014  0.00  0.00    +0.000 A 
ATOM     20  C   UNL     1       2.014   7.944  18.687  0.00  0.00    +0.000 A 
ATOM     21  C   UNL     1       2.038   9.044  17.834  0.00  0.00    +0.000 A 
ATOM     22  C   UNL     1       1.560  10.261  18.303  0.00  0.00    +0.000 A 
ATOM     23  N   UNL     1       1.090  10.467  19.554  0.00  0.00    +0.000 NA
ENDBRANCH   1  20
TORSDOF 2
ENDMDL
MODEL 3
REMARK VINA RESULT:      -7.4      0.130      1.008
REMARK  Name = 
REMARK  2 active torsions:
REMARK  status: ('A' for Active; 'I' for Inactive)
REMARK    1  A    between atoms: C_3  and  C_4
REMARK    2  A    between atoms: C_12  and  N_13
REMARK                            x       y       z     vdW  Elec       q    Type
REMARK                         _______ _______ _______ _____ _____    ______ ____
ROOT
ATOM      1  C   UNL     1       2.232   6.625  19.369  0.00  0.00    +0.000 A 
ATOM      2  C   UNL     1       1.526   5.643  20.044  0.00  0.00    +0.000 A 
ATOM      3  C   UNL     1       2.149   4.434  20.304  0.00  0.00    +0.000 A 
ATOM      4  C   UNL     1       1.555   3.468  21.113  0.00  0.00    +0.000 A 
ATOM      5  N   UNL     1       2.197   2.387  21.597  0.00  0.00    +0.000 NA
ATOM      6  C   UNL     1       3.494   2.266  21.262  0.00  0.00    +0.000 A 
ATOM      7  C   UNL     1       4.142   3.112  20.376  0.00  0.00    +0.000 A 
ATOM      8  C   UNL     1       3.446   4.213  19.826  0.00  0.00    +0.000 A 
ATOM      9  C   UNL     1       3.955   5.126  18.861  0.00  0.00    +0.000 A 
ATOM     10  N   UNL     1       3.384   6.356  18.703  0.00  0.00    +0.000 NA
ENDROOT
BRANCH   9  11
ATOM     11  N   UNL     1       5.073   4.766  18.084  0.00  0.00    +0.000 N 
ATOM     12  C   UNL     1       6.350   5.428  18.417  0.00  0.00    +0.000 C 
ATOM     13  C   UNL     1       7.502   4.677  17.692  0.00  0.00    +0.000 C 
ATOM     14  N   UNL     1       7.336   4.553  16.227  0.00  0.00    +0.000 NA
ATOM     15  C   UNL     1       5.987   4.049  15.905  0.00  0.00    +0.000 C 
ATOM     16  C   UNL     1       4.858   4.834  16.612  0.00  0.00    +0.000 C 
ATOM     17  H   UNL     1       8.025   3.889  15.872  0.00  0.00    +0.000 HD
ENDBRANCH   9  11
BRANCH   1  20
ATOM     18  C   UNL     1       1.534  10.212  18.444  0.00  0.00    +0.000 A 
ATOM     19  C   UNL     1       1.850   8.870  18.323  0.00  0.00    +0.000 A 
ATOM     20  C   UNL     1       1.767   8.026  19.451  0.00  0.00    +0.000 A 
ATOM     21  C   UNL     1       1.278   8.583  20.630  0.00  0.00    +0.000 A 
ATOM     22  C   UNL     1       0.990   9.942  20.654  0.00  0.00    +0.000 A 
ATOM     23  N   UNL     1       1.125  10.771  19.595  0.00  0.00    +0.000 NA
ENDBRANCH   1  20
TORSDOF 2
ENDMDL
MODEL 4
REMARK VINA RESULT:      -7.3      1.442      1.750
REMARK  Name = 
REMARK  2 active torsions:
REMARK  status: ('A' for Active; 'I' for Inactive)
REMARK    1  A    between atoms: C_3  and  C_4
REMARK    2  A    between atoms: C_12  and  N_13
REMARK                            x       y       z     vdW  Elec       q    Type
REMARK                         _______ _______ _______ _____ _____    ______ ____
ROOT
ATOM      1  C   UNL     1       2.276   6.522  18.239  0.00  0.00    +0.000 A 
ATOM      2  C   UNL     1       1.452   5.438  18.487  0.00  0.00    +0.000 A 
ATOM      3  C   UNL     1       1.987   4.163  18.415  0.00  0.00    +0.000 A 
ATOM      4  C   UNL     1       1.257   3.043  18.806  0.00  0.00    +0.000 A 
ATOM      5  N   UNL     1       1.788   1.818  18.986  0.00  0.00    +0.000 NA
ATOM      6  C   UNL     1       3.111   1.706  18.770  0.00  0.00    +0.000 A 
ATOM      7  C   UNL     1       3.899   2.731  18.273  0.00  0.00    +0.000 A 
ATOM      8  C   UNL     1       3.324   4.000  18.031  0.00  0.00    +0.000 A 
ATOM      9  C   UNL     1       3.986   5.125  17.467  0.00  0.00    +0.000 A 
ATOM     10  N   UNL     1       3.491   6.384  17.648  0.00  0.00    +0.000 NA
ENDROOT
BRANCH   9  11
ATOM     11  N   UNL     1       5.177   4.937  16.738  0.00  0.00    +0.000 N 
ATOM     12  C   UNL     1       6.437   5.268  17.436  0.00  0.00    +0.000 C 
ATOM     13  C   UNL     1       7.625   4.697  16.611  0.00  0.00    +0.000 C 
ATOM     14  N   UNL     1       7.669   5.138  15.199  0.00  0.00    +0.000 NA
ATOM     15  C   UNL     1       6.349   4.958  14.565  0.00  0.00    +0.000 C 
ATOM     16  C   UNL     1       5.189   5.565  15.388  0.00  0.00    +0.000 C 
ATOM     17  H   UNL     1       8.352   4.570  14.697  0.00  0.00    +0.000 HD
ENDBRANCH   9  11
BRANCH   1  20
ATOM     18  C   UNL     1       1.577  10.226  18.301  0.00  0.00    +0.000 A 
ATOM     19  C   UNL     1       1.840   8.954  17.821  0.00  0.00    +0.000 A 
ATOM     20  C   UNL     1       1.863   7.860  18.713  0.00  0.00    +0.000 A 
ATOM     21  C   UNL     1       1.527   8.112  20.040  0.00  0.00    +0.000 A 
ATOM     22  C   UNL     1       1.281   9.423  20.428  0.00  0.00    +0.000 A 
ATOM     23  N   UNL     1       1.317  10.486  19.594  0.00  0.00    +0.000 NA
ENDBRANCH   1  20
TORSDOF 2
ENDMDL
MODEL 5
REMARK VINA RESULT:      -7.2      1.102      5.814
REMARK  Name = 
REMARK  2 active torsions:
REMARK  status: ('A' for Active; 'I' for Inactive)
REMARK    1  A    between atoms: C_3  and  C_4
REMARK    2  A    between atoms: C_12  and  N_13
REMARK                            x       y       z     vdW  Elec       q    Type
REMARK                         _______ _______ _______ _____ _____    ______ ____
ROOT
ATOM      1  C   UNL     1       4.605   4.880  17.800  0.00  0.00    +0.000 A 
ATOM      2  C   UNL     1       4.552   3.879  18.755  0.00  0.00    +0.000 A 
ATOM      3  C   UNL     1       3.473   3.843  19.622  0.00  0.00    +0.000 A 
ATOM      4  C   UNL     1       3.277   2.777  20.498  0.00  0.00    +0.000 A 
ATOM      5  N   UNL     1       2.140   2.563  21.187  0.00  0.00    +0.000 NA
ATOM      6  C   UNL     1       1.150   3.452  20.992  0.00  0.00    +0.000 A 
ATOM      7  C   UNL     1       1.286   4.601  20.230  0.00  0.00    +0.000 A 
ATOM      8  C   UNL     1       2.503   4.850  19.553  0.00  0.00    +0.000 A 
ATOM      9  C   UNL     1       2.813   6.010  18.790  0.00  0.00    +0.000 A 
ATOM     10  N   UNL     1       3.814   5.981  17.864  0.00  0.00    +0.000 NA
ENDROOT
BRANCH   9  11
ATOM     11  N   UNL     1       2.061   7.186  18.976  0.00  0.00    +0.000 N 
ATOM     12  C   UNL     1       2.335   8.299  18.044  0.00  0.00    +0.000 C 
ATOM     13  C   UNL     1       1.208   9.359  18.192  0.00  0.00    +0.000 C 
ATOM     14  N   UNL     1       1.003   9.859  19.570  0.00  0.00    +0.000 NA
ATOM     15  C   UNL     1       0.902   8.731  20.515  0.00  0.00    +0.000 C 
ATOM     16  C   UNL     1       2.054   7.709  20.370  0.00  0.00    +0.000 C 
ATOM     17  H   UNL     1       0.132  10.391  19.602  0.00  0.00    +0.000 HD
ENDBRANCH   9  11
BRANCH   1  20
ATOM     18  C   UNL     1       7.576   5.150  15.493  0.00  0.00    +0.000 A 
ATOM     19  C   UNL     1       6.804   5.207  16.641  0.00  0.00    +0.000 A 
ATOM     20  C   UNL     1       5.486   4.702  16.624  0.00  0.00    +0.000 A 
ATOM     21  C   UNL     1       5.054   4.083  15.455  0.00  0.00    +0.000 A 
ATOM     22  C   UNL     1       5.900   4.078  14.353  0.00  0.00    +0.000 A 
ATOM     23  N   UNL     1       7.141   4.614  14.340  0.00  0.00    +0.000 NA
ENDBRANCH   1  20
TORSDOF 2
ENDMDL
MODEL 6
REMARK VINA RESULT:      -7.1      1.130      5.859
REMARK  Name = 
REMARK  2 active torsions:
REMARK  status: ('A' for Active; 'I' for Inactive)
REMARK    1  A    between atoms: C_3  and  C_4
REMARK    2  A    between atoms: C_12  and  N_13
REMARK                            x       y       z     vdW  Elec       q    Type
REMARK                         _______ _______ _______ _____ _____    ______ ____
ROOT
ATOM      1  C   UNL     1       4.552   5.065  17.709  0.00  0.00    +0.000 A 
ATOM      2  C   UNL     1       4.545   4.028  18.626  0.00  0.00    +0.000 A 
ATOM      3  C   UNL     1       3.493   3.939  19.523  0.00  0.00    +0.000 A 
ATOM      4  C   UNL     1       3.344   2.838  20.362  0.00  0.00    +0.000 A 
ATOM      5  N   UNL     1       2.232   2.576  21.076  0.00  0.00    +0.000 NA
ATOM      6  C   UNL     1       1.220   3.452  20.945  0.00  0.00    +0.000 A 
ATOM      7  C   UNL     1       1.313   4.632  20.224  0.00  0.00    +0.000 A 
ATOM      8  C   UNL     1       2.504   4.930  19.522  0.00  0.00    +0.000 A 
ATOM      9  C   UNL     1       2.770   6.123  18.795  0.00  0.00    +0.000 A 
ATOM     10  N   UNL     1       3.743   6.149  17.838  0.00  0.00    +0.000 NA
ENDROOT
BRANCH   9  11
ATOM     11  N   UNL     1       2.003   7.277  19.048  0.00  0.00    +0.000 N 
ATOM     12  C   UNL     1       2.222   8.426  18.145  0.00  0.00    +0.000 C 
ATOM     13  C   UNL     1       1.080   9.457  18.371  0.00  0.00    +0.000 C 
ATOM     14  N   UNL     1       0.917   9.906  19.771  0.00  0.00    +0.000 NA
ATOM     15  C   UNL     1       0.873   8.745  20.679  0.00  0.00    +0.000 C 
ATOM     16  C   UNL     1       2.037   7.752  20.459  0.00  0.00    +0.000 C 
ATOM     17  H   UNL     1       0.038  10.419  19.853  0.00  0.00    +0.000 HD
ENDBRANCH   9  11
BRANCH   1  20
ATOM     18  C   UNL     1       5.731   4.119  14.255  0.00  0.00    +0.000 A 
ATOM     19  C   UNL     1       4.892   4.339  15.334  0.00  0.00    +0.000 A 
ATOM     20  C   UNL     1       5.399   4.949  16.502  0.00  0.00    +0.000 A 
ATOM     21  C   UNL     1       6.721   5.384  16.472  0.00  0.00    +0.000 A 
ATOM     22  C   UNL     1       7.485   5.115  15.343  0.00  0.00    +0.000 A 
ATOM     23  N   UNL     1       7.026   4.476  14.244  0.00  0.00    +0.000 NA
ENDBRANCH   1  20
TORSDOF 2
ENDMDL
MODEL 7
REMARK VINA RESULT:      -7.1      1.498      4.139
REMARK  Name = 
REMARK  2 active torsions:
REMARK  status: ('A' for Active; 'I' for Inactive)
REMARK    1  A    between atoms: C_3  and  C_4
REMARK    2  A    between atoms: C_12  and  N_13
REMARK                            x       y       z     vdW  Elec       q    Type
REMARK                         _______ _______ _______ _____ _____    ______ ____
ROOT
ATOM      1  C   UNL     1       2.465   7.645  18.735  0.00  0.00    +0.000 A 
ATOM      2  C   UNL     1       3.447   7.787  17.770  0.00  0.00    +0.000 A 
ATOM      3  C   UNL     1       4.069   6.651  17.281  0.00  0.00    +0.000 A 
ATOM      4  C   UNL     1       4.949   6.709  16.202  0.00  0.00    +0.000 A 
ATOM      5  N   UNL     1       5.396   5.630  15.531  0.00  0.00    +0.000 NA
ATOM      6  C   UNL     1       4.944   4.437  15.955  0.00  0.00    +0.000 A 
ATOM      7  C   UNL     1       4.158   4.268  17.084  0.00  0.00    +0.000 A 
ATOM      8  C   UNL     1       3.737   5.401  17.818  0.00  0.00    +0.000 A 
ATOM      9  C   UNL     1       2.987   5.383  19.025  0.00  0.00    +0.000 A 
ATOM     10  N   UNL     1       2.294   6.489  19.426  0.00  0.00    +0.000 NA
ENDROOT
BRANCH   9  11
ATOM     11  N   UNL     1       2.938   4.206  19.797  0.00  0.00    +0.000 N 
ATOM     12  C   UNL     1       2.136   4.262  21.037  0.00  0.00    +0.000 C 
ATOM     13  C   UNL     1       1.938   2.812  21.564  0.00  0.00    +0.000 C 
ATOM     14  N   UNL     1       3.190   2.052  21.776  0.00  0.00    +0.000 NA
ATOM     15  C   UNL     1       4.056   2.151  20.586  0.00  0.00    +0.000 C 
ATOM     16  C   UNL     1       4.266   3.605  20.102  0.00  0.00    +0.000 C 
ATOM     17  H   UNL     1       2.957   1.070  21.929  0.00  0.00    +0.000 HD
ENDBRANCH   9  11
BRANCH   1  20
ATOM     18  C   UNL     1       0.093  10.021  20.451  0.00  0.00    +0.000 A 
ATOM     19  C   UNL     1       1.079   9.068  20.264  0.00  0.00    +0.000 A 
ATOM     20  C   UNL     1       1.513   8.755  18.958  0.00  0.00    +0.000 A 
ATOM     21  C   UNL     1       0.975   9.499  17.912  0.00  0.00    +0.000 A 
ATOM     22  C   UNL     1      -0.013  10.433  18.198  0.00  0.00    +0.000 A 
ATOM     23  N   UNL     1      -0.479  10.697  19.439  0.00  0.00    +0.000 NA
ENDBRANCH   1  20
TORSDOF 2
ENDMDL
MODEL 8
REMARK VINA RESULT:      -7.0      1.357      1.694
REMARK  Name = 
REMARK  2 active torsions:
REMARK  status: ('A' for Active; 'I' for Inactive)
REMARK    1  A    between atoms: C_3  and  C_4
REMARK    2  A    between atoms: C_12  and  N_13
REMARK                            x       y       z     vdW  Elec       q    Type
REMARK                         _______ _______ _______ _____ _____    ______ ____
ROOT
ATOM      1  C   UNL     1       2.323   6.871  18.389  0.00  0.00    +0.000 A 
ATOM      2  C   UNL     1       1.407   5.834  18.346  0.00  0.00    +0.000 A 
ATOM      3  C   UNL     1       1.876   4.532  18.298  0.00  0.00    +0.000 A 
ATOM      4  C   UNL     1       1.015   3.443  18.413  0.00  0.00    +0.000 A 
ATOM      5  N   UNL     1       1.421   2.174  18.613  0.00  0.00    +0.000 NA
ATOM      6  C   UNL     1       2.749   1.983  18.706  0.00  0.00    +0.000 A 
ATOM      7  C   UNL     1       3.687   2.981  18.495  0.00  0.00    +0.000 A 
ATOM      8  C   UNL     1       3.255   4.301  18.229  0.00  0.00    +0.000 A 
ATOM      9  C   UNL     1       4.092   5.411  17.931  0.00  0.00    +0.000 A 
ATOM     10  N   UNL     1       3.635   6.687  18.092  0.00  0.00    +0.000 NA
ENDROOT
BRANCH   9  11
ATOM     11  N   UNL     1       5.412   5.189  17.491  0.00  0.00    +0.000 N 
ATOM     12  C   UNL     1       5.574   4.337  16.295  0.00  0.00    +0.000 C 
ATOM     13  C   UNL     1       7.036   4.476  15.782  0.00  0.00    +0.000 C 
ATOM     14  N   UNL     1       8.078   4.179  16.790  0.00  0.00    +0.000 NA
ATOM     15  C   UNL     1       7.802   4.910  18.042  0.00  0.00    +0.000 C 
ATOM     16  C   UNL     1       6.353   4.728  18.549  0.00  0.00    +0.000 C 
ATOM     17  H   UNL     1       8.983   4.483  16.428  0.00  0.00    +0.000 HD
ENDBRANCH   9  11
BRANCH   1  20
ATOM     18  C   UNL     1       0.918   9.590  20.591  0.00  0.00    +0.000 A 
ATOM     19  C   UNL     1       1.452   8.376  20.194  0.00  0.00    +0.000 A 
ATOM     20  C   UNL     1       1.879   8.201  18.860  0.00  0.00    +0.000 A 
ATOM     21  C   UNL     1       1.818   9.309  18.020  0.00  0.00    +0.000 A 
ATOM     22  C   UNL     1       1.263  10.485  18.509  0.00  0.00    +0.000 A 
ATOM     23  N   UNL     1       0.794  10.644  19.766  0.00  0.00    +0.000 NA
ENDBRANCH   1  20
TORSDOF 2
ENDMDL
MODEL 9
REMARK VINA RESULT:      -7.0      1.782      4.571
REMARK  Name = 
REMARK  2 active torsions:
REMARK  status: ('A' for Active; 'I' for Inactive)
REMARK    1  A    between atoms: C_3  and  C_4
REMARK    2  A    between atoms: C_12  and  N_13
REMARK                            x       y       z     vdW  Elec       q    Type
REMARK                         _______ _______ _______ _____ _____    ______ ____
ROOT
ATOM      1  C   UNL     1       2.523   8.022  18.238  0.00  0.00    +0.000 A 
ATOM      2  C   UNL     1       3.674   7.984  17.470  0.00  0.00    +0.000 A 
ATOM      3  C   UNL     1       4.214   6.753  17.138  0.00  0.00    +0.000 A 
ATOM      4  C   UNL     1       5.274   6.640  16.241  0.00  0.00    +0.000 A 
ATOM      5  N   UNL     1       5.684   5.478  15.697  0.00  0.00    +0.000 NA
ATOM      6  C   UNL     1       5.003   4.377  16.062  0.00  0.00    +0.000 A 
ATOM      7  C   UNL     1       4.010   4.371  17.028  0.00  0.00    +0.000 A 
ATOM      8  C   UNL     1       3.622   5.586  17.638  0.00  0.00    +0.000 A 
ATOM      9  C   UNL     1       2.669   5.730  18.684  0.00  0.00    +0.000 A 
ATOM     10  N   UNL     1       2.073   6.936  18.916  0.00  0.00    +0.000 NA
ENDROOT
BRANCH   9  11
ATOM     11  N   UNL     1       2.320   4.612  19.466  0.00  0.00    +0.000 N 
ATOM     12  C   UNL     1       1.183   3.800  18.986  0.00  0.00    +0.000 C 
ATOM     13  C   UNL     1       1.162   2.461  19.777  0.00  0.00    +0.000 C 
ATOM     14  N   UNL     1       1.125   2.609  21.248  0.00  0.00    +0.000 NA
ATOM     15  C   UNL     1       2.161   3.560  21.694  0.00  0.00    +0.000 C 
ATOM     16  C   UNL     1       2.139   4.896  20.916  0.00  0.00    +0.000 C 
ATOM     17  H   UNL     1       1.310   1.701  21.676  0.00  0.00    +0.000 HD
ENDBRANCH   9  11
BRANCH   1  20
ATOM     18  C   UNL     1       1.567  11.665  18.405  0.00  0.00    +0.000 A 
ATOM     19  C   UNL     1       2.334  10.521  18.267  0.00  0.00    +0.000 A 
ATOM     20  C   UNL     1       1.708   9.256  18.247  0.00  0.00    +0.000 A 
ATOM     21  C   UNL     1       0.317   9.232  18.281  0.00  0.00    +0.000 A 
ATOM     22  C   UNL     1      -0.367  10.434  18.423  0.00  0.00    +0.000 A 
ATOM     23  N   UNL     1       0.227  11.645  18.506  0.00  0.00    +0.000 NA
ENDBRANCH   1  20
TORSDOF 2
ENDMDL
