MODEL 1
REMARK VINA RESULT:      -7.8      0.000      0.000
REMARK  Name = 
REMARK  8 active torsions:
REMARK  status: ('A' for Active; 'I' for Inactive)
REMARK    1  A    between atoms: C_1  and  O_2
REMARK    2  A    between atoms: O_2  and  C_3
REMARK    3  A    between atoms: C_5  and  N_6
REMARK    4  A    between atoms: N_13  and  C_14
REMARK    5  A    between atoms: C_23  and  O_24
REMARK    6  A    between atoms: O_24  and  C_25
REMARK    7  A    between atoms: C_26  and  O_27
REMARK    8  A    between atoms: O_27  and  C_28
REMARK                            x       y       z     vdW  Elec       q    Type
REMARK                         _______ _______ _______ _____ _____    ______ ____
ROOT
ATOM      1  N   UNL     1       1.703   6.157  21.245  0.00  0.00    +0.000 N 
ATOM      2  C   UNL     1       2.044   4.961  20.613  0.00  0.00    +0.000 A 
ATOM      3  N   UNL     1       1.505   3.850  21.152  0.00  0.00    +0.000 NA
ATOM      4  C   UNL     1       1.819   2.644  20.627  0.00  0.00    +0.000 A 
ATOM      5  C   UNL     1       2.725   2.563  19.578  0.00  0.00    +0.000 A 
ATOM      6  C   UNL     1       3.294   1.529  18.799  0.00  0.00    +0.000 A 
ATOM      7  C   UNL     1       4.143   2.122  17.891  0.00  0.00    +0.000 A 
ATOM      8  N   UNL     1       4.151   3.495  18.104  0.00  0.00    +0.000 N 
ATOM      9  C   UNL     1       3.250   3.766  19.125  0.00  0.00    +0.000 A 
ATOM     10  N   UNL     1       2.906   4.981  19.589  0.00  0.00    +0.000 NA
ATOM     11  H   UNL     1       1.098   5.935  22.025  0.00  0.00    +0.000 HD
ENDROOT
BRANCH   1  14
ATOM     12  C   UNL     1       0.563   9.697  20.745  0.00  0.00    +0.000 A 
ATOM     13  C   UNL     1       0.700   8.413  21.309  0.00  0.00    +0.000 A 
ATOM     14  C   UNL     1       1.444   7.415  20.677  0.00  0.00    +0.000 A 
ATOM     15  C   UNL     1       1.994   7.713  19.433  0.00  0.00    +0.000 A 
ATOM     16  C   UNL     1       1.788   8.950  18.800  0.00  0.00    +0.000 A 
ATOM     17  C   UNL     1       1.054   9.966  19.452  0.00  0.00    +0.000 A 
BRANCH  12  19
ATOM     18  C   UNL     1      -0.471  10.335  22.783  0.00  0.00    +0.000 C 
ATOM     19  O   UNL     1      -0.067  10.692  21.457  0.00  0.00    +0.000 OA
ENDBRANCH  12  19
BRANCH  16  20
ATOM     20  O   UNL     1       2.396   8.980  17.567  0.00  0.00    +0.000 OA
ATOM     21  C   UNL     1       3.322   7.965  17.215  0.00  0.00    +0.000 C 
ENDBRANCH  16  20
BRANCH  17  22
ATOM     22  O   UNL     1       0.891  11.124  18.748  0.00  0.00    +0.000 OA
ATOM     23  C   UNL     1       1.782  12.214  18.893  0.00  0.00    +0.000 C 
ENDBRANCH  17  22
ENDBRANCH   1  14
BRANCH   8  24
ATOM     24  C   UNL     1       4.965   4.424  17.396  0.00  0.00    +0.000 A 
ATOM     25  C   UNL     1       5.907   5.198  18.080  0.00  0.00    +0.000 A 
ATOM     26  C   UNL     1       6.657   6.109  17.355  0.00  0.00    +0.000 A 
ATOM     27  N   UNL     1       6.514   6.314  16.030  0.00  0.00    +0.000 NA
ATOM     28  C   UNL     1       5.596   5.558  15.393  0.00  0.00    +0.000 A 
ATOM     29  C   UNL     1       4.814   4.600  16.019  0.00  0.00    +0.000 A 
ENDBRANCH   8  24
TORSDOF 5
ENDMDL
MODEL 2
REMARK VINA RESULT:      -7.7      0.473      1.004
REMARK  Name = 
REMARK  8 active torsions:
REMARK  status: ('A' for Active; 'I' for Inactive)
REMARK    1  A    between atoms: C_1  and  O_2
REMARK    2  A    between atoms: O_2  and  C_3
REMARK    3  A    between atoms: C_5  and  N_6
REMARK    4  A    between atoms: N_13  and  C_14
REMARK    5  A    between atoms: C_23  and  O_24
REMARK    6  A    between atoms: O_24  and  C_25
REMARK    7  A    between atoms: C_26  and  O_27
REMARK    8  A    between atoms: O_27  and  C_28
REMARK                            x       y       z     vdW  Elec       q    Type
REMARK                         _______ _______ _______ _____ _____    ______ ____
ROOT
ATOM      1  N   UNL     1       1.622   6.214  21.315  0.00  0.00    +0.000 N 
ATOM      2  C   UNL     1       1.941   5.046  20.622  0.00  0.00    +0.000 A 
ATOM      3  N   UNL     1       1.337   3.927  21.067  0.00  0.00    +0.000 NA
ATOM      4  C   UNL     1       1.625   2.744  20.478  0.00  0.00    +0.000 A 
ATOM      5  C   UNL     1       2.570   2.691  19.462  0.00  0.00    +0.000 A 
ATOM      6  C   UNL     1       3.130   1.685  18.642  0.00  0.00    +0.000 A 
ATOM      7  C   UNL     1       4.039   2.297  17.807  0.00  0.00    +0.000 A 
ATOM      8  N   UNL     1       4.092   3.652  18.108  0.00  0.00    +0.000 N 
ATOM      9  C   UNL     1       3.160   3.897  19.109  0.00  0.00    +0.000 A 
ATOM     10  N   UNL     1       2.846   5.094  19.635  0.00  0.00    +0.000 NA
ATOM     11  H   UNL     1       0.977   5.968  22.055  0.00  0.00    +0.000 HD
ENDROOT
BRANCH   1  14
ATOM     12  C   UNL     1       0.819   9.870  21.058  0.00  0.00    +0.000 A 
ATOM     13  C   UNL     1       0.881   8.556  21.564  0.00  0.00    +0.000 A 
ATOM     14  C   UNL     1       1.437   7.515  20.820  0.00  0.00    +0.000 A 
ATOM     15  C   UNL     1       1.871   7.806  19.529  0.00  0.00    +0.000 A 
ATOM     16  C   UNL     1       1.729   9.083  18.962  0.00  0.00    +0.000 A 
ATOM     17  C   UNL     1       1.187  10.141  19.725  0.00  0.00    +0.000 A 
BRANCH  12  19
ATOM     18  C   UNL     1      -0.624  10.537  22.819  0.00  0.00    +0.000 C 
ATOM     19  O   UNL     1       0.384  10.893  21.869  0.00  0.00    +0.000 OA
ENDBRANCH  12  19
BRANCH  16  20
ATOM     20  O   UNL     1       2.194   9.102  17.668  0.00  0.00    +0.000 OA
ATOM     21  C   UNL     1       3.104   8.106  17.233  0.00  0.00    +0.000 C 
ENDBRANCH  16  20
BRANCH  17  22
ATOM     22  O   UNL     1       1.070  11.338  19.080  0.00  0.00    +0.000 OA
ATOM     23  C   UNL     1      -0.186  11.835  18.656  0.00  0.00    +0.000 C 
ENDBRANCH  17  22
ENDBRANCH   1  14
BRANCH   8  24
ATOM     24  C   UNL     1       4.971   4.589  17.493  0.00  0.00    +0.000 A 
ATOM     25  C   UNL     1       4.833   4.895  16.136  0.00  0.00    +0.000 A 
ATOM     26  C   UNL     1       5.728   5.790  15.573  0.00  0.00    +0.000 A 
ATOM     27  N   UNL     1       6.742   6.365  16.250  0.00  0.00    +0.000 NA
ATOM     28  C   UNL     1       6.857   6.050  17.558  0.00  0.00    +0.000 A 
ATOM     29  C   UNL     1       5.999   5.189  18.223  0.00  0.00    +0.000 A 
ENDBRANCH   8  24
TORSDOF 5
ENDMDL
MODEL 3
REMARK VINA RESULT:      -7.5      0.556      2.536
REMARK  Name = 
REMARK  8 active torsions:
REMARK  status: ('A' for Active; 'I' for Inactive)
REMARK    1  A    between atoms: C_1  and  O_2
REMARK    2  A    between atoms: O_2  and  C_3
REMARK    3  A    between atoms: C_5  and  N_6
REMARK    4  A    between atoms: N_13  and  C_14
REMARK    5  A    between atoms: C_23  and  O_24
REMARK    6  A    between atoms: O_24  and  C_25
REMARK    7  A    between atoms: C_26  and  O_27
REMARK    8  A    between atoms: O_27  and  C_28
REMARK                            x       y       z     vdW  Elec       q    Type
REMARK                         _______ _______ _______ _____ _____    ______ ____
ROOT
ATOM      1  N   UNL     1       1.651   6.137  21.255  0.00  0.00    +0.000 N 
ATOM      2  C   UNL     1       1.969   4.944  20.606  0.00  0.00    +0.000 A 
ATOM      3  N   UNL     1       1.365   3.843  21.093  0.00  0.00    +0.000 NA
ATOM      4  C   UNL     1       1.652   2.639  20.549  0.00  0.00    +0.000 A 
ATOM      5  C   UNL     1       2.596   2.548  19.534  0.00  0.00    +0.000 A 
ATOM      6  C   UNL     1       3.155   1.512  18.751  0.00  0.00    +0.000 A 
ATOM      7  C   UNL     1       4.063   2.093  17.893  0.00  0.00    +0.000 A 
ATOM      8  N   UNL     1       4.117   3.458  18.143  0.00  0.00    +0.000 N 
ATOM      9  C   UNL     1       3.186   3.739  19.135  0.00  0.00    +0.000 A 
ATOM     10  N   UNL     1       2.873   4.956  19.617  0.00  0.00    +0.000 NA
ATOM     11  H   UNL     1       1.006   5.920  22.005  0.00  0.00    +0.000 HD
ENDROOT
BRANCH   1  14
ATOM     12  C   UNL     1       1.690   9.087  18.936  0.00  0.00    +0.000 A 
ATOM     13  C   UNL     1       1.998   7.828  19.489  0.00  0.00    +0.000 A 
ATOM     14  C   UNL     1       1.465   7.419  20.712  0.00  0.00    +0.000 A 
ATOM     15  C   UNL     1       0.666   8.328  21.402  0.00  0.00    +0.000 A 
ATOM     16  C   UNL     1       0.425   9.626  20.923  0.00  0.00    +0.000 A 
ATOM     17  C   UNL     1       0.947  10.029  19.675  0.00  0.00    +0.000 A 
BRANCH  12  19
ATOM     18  C   UNL     1       3.085   8.498  17.110  0.00  0.00    +0.000 C 
ATOM     19  O   UNL     1       2.129   9.402  17.671  0.00  0.00    +0.000 OA
ENDBRANCH  12  19
BRANCH  16  20
ATOM     20  O   UNL     1      -0.354  10.338  21.804  0.00  0.00    +0.000 OA
ATOM     21  C   UNL     1      -0.502   9.883  23.140  0.00  0.00    +0.000 C 
ENDBRANCH  16  20
BRANCH  17  22
ATOM     22  O   UNL     1       0.676  11.315  19.306  0.00  0.00    +0.000 OA
ATOM     23  C   UNL     1      -0.507  11.654  18.605  0.00  0.00    +0.000 C 
ENDBRANCH  17  22
ENDBRANCH   1  14
BRANCH   8  24
ATOM     24  C   UNL     1       4.995   4.370  17.493  0.00  0.00    +0.000 A 
ATOM     25  C   UNL     1       6.183   4.766  18.114  0.00  0.00    +0.000 A 
ATOM     26  C   UNL     1       6.993   5.678  17.457  0.00  0.00    +0.000 A 
ATOM     27  N   UNL     1       6.691   6.228  16.264  0.00  0.00    +0.000 NA
ATOM     28  C   UNL     1       5.537   5.833  15.687  0.00  0.00    +0.000 A 
ATOM     29  C   UNL     1       4.670   4.908  16.246  0.00  0.00    +0.000 A 
ENDBRANCH   8  24
TORSDOF 5
ENDMDL
MODEL 4
REMARK VINA RESULT:      -7.5      1.095      2.757
REMARK  Name = 
REMARK  8 active torsions:
REMARK  status: ('A' for Active; 'I' for Inactive)
REMARK    1  A    between atoms: C_1  and  O_2
REMARK    2  A    between atoms: O_2  and  C_3
REMARK    3  A    between atoms: C_5  and  N_6
REMARK    4  A    between atoms: N_13  and  C_14
REMARK    5  A    between atoms: C_23  and  O_24
REMARK    6  A    between atoms: O_24  and  C_25
REMARK    7  A    between atoms: C_26  and  O_27
REMARK    8  A    between atoms: O_27  and  C_28
REMARK                            x       y       z     vdW  Elec       q    Type
REMARK                         _______ _______ _______ _____ _____    ______ ____
ROOT
ATOM      1  N   UNL     1       1.339   6.426  21.290  0.00  0.00    +0.000 N 
ATOM      2  C   UNL     1       1.735   5.350  20.495  0.00  0.00    +0.000 A 
ATOM      3  N   UNL     1       1.074   4.196  20.714  0.00  0.00    +0.000 NA
ATOM      4  C   UNL     1       1.427   3.092  20.017  0.00  0.00    +0.000 A 
ATOM      5  C   UNL     1       2.490   3.150  19.125  0.00  0.00    +0.000 A 
ATOM      6  C   UNL     1       3.142   2.245  18.256  0.00  0.00    +0.000 A 
ATOM      7  C   UNL     1       4.151   2.939  17.626  0.00  0.00    +0.000 A 
ATOM      8  N   UNL     1       4.174   4.243  18.104  0.00  0.00    +0.000 N 
ATOM      9  C   UNL     1       3.126   4.377  19.006  0.00  0.00    +0.000 A 
ATOM     10  N   UNL     1       2.756   5.504  19.641  0.00  0.00    +0.000 NA
ATOM     11  H   UNL     1       0.605   6.102  21.907  0.00  0.00    +0.000 HD
ENDROOT
BRANCH   1  14
ATOM     12  C   UNL     1       1.245   9.639  19.353  0.00  0.00    +0.000 A 
ATOM     13  C   UNL     1       1.483   8.287  19.673  0.00  0.00    +0.000 A 
ATOM     14  C   UNL     1       1.224   7.783  20.948  0.00  0.00    +0.000 A 
ATOM     15  C   UNL     1       0.782   8.680  21.917  0.00  0.00    +0.000 A 
ATOM     16  C   UNL     1       0.633  10.052  21.655  0.00  0.00    +0.000 A 
ATOM     17  C   UNL     1       0.874  10.555  20.357  0.00  0.00    +0.000 A 
BRANCH  12  19
ATOM     18  C   UNL     1       2.473  10.971  17.822  0.00  0.00    +0.000 C 
ATOM     19  O   UNL     1       1.388  10.068  18.054  0.00  0.00    +0.000 OA
ENDBRANCH  12  19
BRANCH  16  20
ATOM     20  O   UNL     1       0.228  10.728  22.781  0.00  0.00    +0.000 OA
ATOM     21  C   UNL     1      -1.156  10.847  23.071  0.00  0.00    +0.000 C 
ENDBRANCH  16  20
BRANCH  17  22
ATOM     22  O   UNL     1       0.722  11.903  20.207  0.00  0.00    +0.000 OA
ATOM     23  C   UNL     1      -0.487  12.468  19.733  0.00  0.00    +0.000 C 
ENDBRANCH  17  22
ENDBRANCH   1  14
BRANCH   8  24
ATOM     24  C   UNL     1       5.127   5.231  17.728  0.00  0.00    +0.000 A 
ATOM     25  C   UNL     1       4.854   6.105  16.671  0.00  0.00    +0.000 A 
ATOM     26  C   UNL     1       5.821   7.032  16.321  0.00  0.00    +0.000 A 
ATOM     27  N   UNL     1       7.024   7.126  16.922  0.00  0.00    +0.000 NA
ATOM     28  C   UNL     1       7.266   6.269  17.937  0.00  0.00    +0.000 A 
ATOM     29  C   UNL     1       6.356   5.323  18.382  0.00  0.00    +0.000 A 
ENDBRANCH   8  24
TORSDOF 5
ENDMDL
MODEL 5
REMARK VINA RESULT:      -7.3      0.966      2.574
REMARK  Name = 
REMARK  8 active torsions:
REMARK  status: ('A' for Active; 'I' for Inactive)
REMARK    1  A    between atoms: C_1  and  O_2
REMARK    2  A    between atoms: O_2  and  C_3
REMARK    3  A    between atoms: C_5  and  N_6
REMARK    4  A    between atoms: N_13  and  C_14
REMARK    5  A    between atoms: C_23  and  O_24
REMARK    6  A    between atoms: O_24  and  C_25
REMARK    7  A    between atoms: C_26  and  O_27
REMARK    8  A    between atoms: O_27  and  C_28
REMARK                            x       y       z     vdW  Elec       q    Type
REMARK                         _______ _______ _______ _____ _____    ______ ____
ROOT
ATOM      1  N   UNL     1       1.803   6.390  21.250  0.00  0.00    +0.000 N 
ATOM      2  C   UNL     1       2.067   5.180  20.607  0.00  0.00    +0.000 A 
ATOM      3  N   UNL     1       1.661   4.076  21.264  0.00  0.00    +0.000 NA
ATOM      4  C   UNL     1       1.917   2.860  20.732  0.00  0.00    +0.000 A 
ATOM      5  C   UNL     1       2.634   2.764  19.546  0.00  0.00    +0.000 A 
ATOM      6  C   UNL     1       3.094   1.716  18.715  0.00  0.00    +0.000 A 
ATOM      7  C   UNL     1       3.758   2.297  17.657  0.00  0.00    +0.000 A 
ATOM      8  N   UNL     1       3.761   3.676  17.822  0.00  0.00    +0.000 N 
ATOM      9  C   UNL     1       3.038   3.962  18.974  0.00  0.00    +0.000 A 
ATOM     10  N   UNL     1       2.742   5.184  19.450  0.00  0.00    +0.000 NA
ATOM     11  H   UNL     1       1.346   6.181  22.129  0.00  0.00    +0.000 HD
ENDROOT
BRANCH   1  14
ATOM     12  C   UNL     1       1.436   9.324  18.940  0.00  0.00    +0.000 A 
ATOM     13  C   UNL     1       1.940   8.139  19.512  0.00  0.00    +0.000 A 
ATOM     14  C   UNL     1       1.414   7.620  20.696  0.00  0.00    +0.000 A 
ATOM     15  C   UNL     1       0.413   8.352  21.330  0.00  0.00    +0.000 A 
ATOM     16  C   UNL     1      -0.038   9.587  20.837  0.00  0.00    +0.000 A 
ATOM     17  C   UNL     1       0.480  10.098  19.627  0.00  0.00    +0.000 A 
BRANCH  12  19
ATOM     18  C   UNL     1       2.563  10.997  17.690  0.00  0.00    +0.000 C 
ATOM     19  O   UNL     1       1.890   9.734  17.707  0.00  0.00    +0.000 OA
ENDBRANCH  12  19
BRANCH  16  20
ATOM     20  O   UNL     1      -0.995  10.127  21.663  0.00  0.00    +0.000 OA
ATOM     21  C   UNL     1      -0.606  10.977  22.730  0.00  0.00    +0.000 C 
ENDBRANCH  16  20
BRANCH  17  22
ATOM     22  O   UNL     1      -0.005  11.314  19.241  0.00  0.00    +0.000 OA
ATOM     23  C   UNL     1      -1.177  11.432  18.456  0.00  0.00    +0.000 C 
ENDBRANCH  17  22
ENDBRANCH   1  14
BRANCH   8  24
ATOM     24  C   UNL     1       4.415   4.598  16.957  0.00  0.00    +0.000 A 
ATOM     25  C   UNL     1       4.334   5.972  17.204  0.00  0.00    +0.000 A 
ATOM     26  C   UNL     1       4.962   6.834  16.320  0.00  0.00    +0.000 A 
ATOM     27  N   UNL     1       5.624   6.429  15.218  0.00  0.00    +0.000 NA
ATOM     28  C   UNL     1       5.684   5.099  14.999  0.00  0.00    +0.000 A 
ATOM     29  C   UNL     1       5.115   4.151  15.835  0.00  0.00    +0.000 A 
ENDBRANCH   8  24
TORSDOF 5
ENDMDL
MODEL 6
REMARK VINA RESULT:      -7.1      1.112      2.658
REMARK  Name = 
REMARK  8 active torsions:
REMARK  status: ('A' for Active; 'I' for Inactive)
REMARK    1  A    between atoms: C_1  and  O_2
REMARK    2  A    between atoms: O_2  and  C_3
REMARK    3  A    between atoms: C_5  and  N_6
REMARK    4  A    between atoms: N_13  and  C_14
REMARK    5  A    between atoms: C_23  and  O_24
REMARK    6  A    between atoms: O_24  and  C_25
REMARK    7  A    between atoms: C_26  and  O_27
REMARK    8  A    between atoms: O_27  and  C_28
REMARK                            x       y       z     vdW  Elec       q    Type
REMARK                         _______ _______ _______ _____ _____    ______ ____
ROOT
ATOM      1  N   UNL     1       1.794   6.330  21.433  0.00  0.00    +0.000 N 
ATOM      2  C   UNL     1       1.963   5.161  20.690  0.00  0.00    +0.000 A 
ATOM      3  N   UNL     1       1.476   4.041  21.258  0.00  0.00    +0.000 NA
ATOM      4  C   UNL     1       1.637   2.857  20.625  0.00  0.00    +0.000 A 
ATOM      5  C   UNL     1       2.340   2.805  19.428  0.00  0.00    +0.000 A 
ATOM      6  C   UNL     1       2.715   1.799  18.509  0.00  0.00    +0.000 A 
ATOM      7  C   UNL     1       3.418   2.413  17.496  0.00  0.00    +0.000 A 
ATOM      8  N   UNL     1       3.527   3.769  17.774  0.00  0.00    +0.000 N 
ATOM      9  C   UNL     1       2.832   4.012  18.952  0.00  0.00    +0.000 A 
ATOM     10  N   UNL     1       2.632   5.210  19.531  0.00  0.00    +0.000 NA
ATOM     11  H   UNL     1       1.326   6.084  22.296  0.00  0.00    +0.000 HD
ENDROOT
BRANCH   1  14
ATOM     12  C   UNL     1       1.143   9.303  19.238  0.00  0.00    +0.000 A 
ATOM     13  C   UNL     1       1.558   8.020  19.648  0.00  0.00    +0.000 A 
ATOM     14  C   UNL     1       1.498   7.628  20.986  0.00  0.00    +0.000 A 
ATOM     15  C   UNL     1       1.075   8.574  21.916  0.00  0.00    +0.000 A 
ATOM     16  C   UNL     1       0.753   9.892  21.550  0.00  0.00    +0.000 A 
ATOM     17  C   UNL     1       0.792  10.279  20.192  0.00  0.00    +0.000 A 
BRANCH  12  19
ATOM     18  C   UNL     1      -0.182   9.430  17.274  0.00  0.00    +0.000 C 
ATOM     19  O   UNL     1       1.093   9.608  17.897  0.00  0.00    +0.000 OA
ENDBRANCH  12  19
BRANCH  16  20
ATOM     20  O   UNL     1       0.408  10.638  22.651  0.00  0.00    +0.000 OA
ATOM     21  C   UNL     1      -0.922  10.592  23.144  0.00  0.00    +0.000 C 
ENDBRANCH  16  20
BRANCH  17  22
ATOM     22  O   UNL     1       0.483  11.584  19.939  0.00  0.00    +0.000 OA
ATOM     23  C   UNL     1      -0.850  12.001  19.706  0.00  0.00    +0.000 C 
ENDBRANCH  17  22
ENDBRANCH   1  14
BRANCH   8  24
ATOM     24  C   UNL     1       4.246   4.708  16.982  0.00  0.00    +0.000 A 
ATOM     25  C   UNL     1       5.024   4.269  15.906  0.00  0.00    +0.000 A 
ATOM     26  C   UNL     1       5.729   5.214  15.179  0.00  0.00    +0.000 A 
ATOM     27  N   UNL     1       5.732   6.532  15.464  0.00  0.00    +0.000 NA
ATOM     28  C   UNL     1       4.976   6.930  16.509  0.00  0.00    +0.000 A 
ATOM     29  C   UNL     1       4.213   6.070  17.282  0.00  0.00    +0.000 A 
ENDBRANCH   8  24
TORSDOF 5
ENDMDL
MODEL 7
REMARK VINA RESULT:      -6.8      3.240      6.737
REMARK  Name = 
REMARK  8 active torsions:
REMARK  status: ('A' for Active; 'I' for Inactive)
REMARK    1  A    between atoms: C_1  and  O_2
REMARK    2  A    between atoms: O_2  and  C_3
REMARK    3  A    between atoms: C_5  and  N_6
REMARK    4  A    between atoms: N_13  and  C_14
REMARK    5  A    between atoms: C_23  and  O_24
REMARK    6  A    between atoms: O_24  and  C_25
REMARK    7  A    between atoms: C_26  and  O_27
REMARK    8  A    between atoms: O_27  and  C_28
REMARK                            x       y       z     vdW  Elec       q    Type
REMARK                         _______ _______ _______ _____ _____    ______ ____
ROOT
ATOM      1  N   UNL     1       4.496   2.899  16.695  0.00  0.00    +0.000 N 
ATOM      2  C   UNL     1       3.926   3.142  17.945  0.00  0.00    +0.000 A 
ATOM      3  N   UNL     1       3.761   2.056  18.725  0.00  0.00    +0.000 NA
ATOM      4  C   UNL     1       3.174   2.197  19.935  0.00  0.00    +0.000 A 
ATOM      5  C   UNL     1       2.709   3.443  20.335  0.00  0.00    +0.000 A 
ATOM      6  C   UNL     1       2.056   3.971  21.473  0.00  0.00    +0.000 A 
ATOM      7  C   UNL     1       1.866   5.317  21.247  0.00  0.00    +0.000 A 
ATOM      8  N   UNL     1       2.346   5.639  19.984  0.00  0.00    +0.000 N 
ATOM      9  C   UNL     1       2.894   4.485  19.437  0.00  0.00    +0.000 A 
ATOM     10  N   UNL     1       3.529   4.383  18.256  0.00  0.00    +0.000 NA
ATOM     11  H   UNL     1       4.669   1.904  16.621  0.00  0.00    +0.000 HD
ENDROOT
BRANCH   1  14
ATOM     12  C   UNL     1       7.073   5.466  15.774  0.00  0.00    +0.000 A 
ATOM     13  C   UNL     1       6.081   4.782  16.506  0.00  0.00    +0.000 A 
ATOM     14  C   UNL     1       5.411   3.681  15.972  0.00  0.00    +0.000 A 
ATOM     15  C   UNL     1       5.711   3.319  14.661  0.00  0.00    +0.000 A 
ATOM     16  C   UNL     1       6.620   4.044  13.874  0.00  0.00    +0.000 A 
ATOM     17  C   UNL     1       7.314   5.144  14.424  0.00  0.00    +0.000 A 
BRANCH  12  19
ATOM     18  C   UNL     1       7.414   6.780  17.720  0.00  0.00    +0.000 C 
ATOM     19  O   UNL     1       7.803   6.463  16.380  0.00  0.00    +0.000 OA
ENDBRANCH  12  19
BRANCH  16  20
ATOM     20  O   UNL     1       6.708   3.513  12.609  0.00  0.00    +0.000 OA
ATOM     21  C   UNL     1       5.552   2.972  11.990  0.00  0.00    +0.000 C 
ENDBRANCH  16  20
BRANCH  17  22
ATOM     22  O   UNL     1       8.160   5.797  13.574  0.00  0.00    +0.000 OA
ATOM     23  C   UNL     1       7.904   5.873  12.184  0.00  0.00    +0.000 C 
ENDBRANCH  17  22
ENDBRANCH   1  14
BRANCH   8  24
ATOM     24  C   UNL     1       2.258   6.926  19.384  0.00  0.00    +0.000 A 
ATOM     25  C   UNL     1       1.599   7.967  20.045  0.00  0.00    +0.000 A 
ATOM     26  C   UNL     1       1.512   9.195  19.411  0.00  0.00    +0.000 A 
ATOM     27  N   UNL     1       2.002   9.441  18.180  0.00  0.00    +0.000 NA
ATOM     28  C   UNL     1       2.630   8.420  17.560  0.00  0.00    +0.000 A 
ATOM     29  C   UNL     1       2.795   7.162  18.117  0.00  0.00    +0.000 A 
ENDBRANCH   8  24
TORSDOF 5
ENDMDL
MODEL 8
REMARK VINA RESULT:      -6.7      1.711      3.385
REMARK  Name = 
REMARK  8 active torsions:
REMARK  status: ('A' for Active; 'I' for Inactive)
REMARK    1  A    between atoms: C_1  and  O_2
REMARK    2  A    between atoms: O_2  and  C_3
REMARK    3  A    between atoms: C_5  and  N_6
REMARK    4  A    between atoms: N_13  and  C_14
REMARK    5  A    between atoms: C_23  and  O_24
REMARK    6  A    between atoms: O_24  and  C_25
REMARK    7  A    between atoms: C_26  and  O_27
REMARK    8  A    between atoms: O_27  and  C_28
REMARK                            x       y       z     vdW  Elec       q    Type
REMARK                         _______ _______ _______ _____ _____    ______ ____
ROOT
ATOM      1  N   UNL     1       1.921   6.089  19.656  0.00  0.00    +0.000 N 
ATOM      2  C   UNL     1       2.721   5.453  18.707  0.00  0.00    +0.000 A 
ATOM      3  N   UNL     1       2.198   4.335  18.167  0.00  0.00    +0.000 NA
ATOM      4  C   UNL     1       2.927   3.632  17.271  0.00  0.00    +0.000 A 
ATOM      5  C   UNL     1       4.217   4.042  16.957  0.00  0.00    +0.000 A 
ATOM      6  C   UNL     1       5.255   3.586  16.113  0.00  0.00    +0.000 A 
ATOM      7  C   UNL     1       6.311   4.460  16.256  0.00  0.00    +0.000 A 
ATOM      8  N   UNL     1       5.977   5.428  17.194  0.00  0.00    +0.000 N 
ATOM      9  C   UNL     1       4.671   5.185  17.601  0.00  0.00    +0.000 A 
ATOM     10  N   UNL     1       3.943   5.935  18.448  0.00  0.00    +0.000 NA
ATOM     11  H   UNL     1       1.071   5.548  19.758  0.00  0.00    +0.000 HD
ENDROOT
BRANCH   1  14
ATOM     12  C   UNL     1       1.447   9.775  19.137  0.00  0.00    +0.000 A 
ATOM     13  C   UNL     1       1.744   8.423  18.871  0.00  0.00    +0.000 A 
ATOM     14  C   UNL     1       1.740   7.463  19.883  0.00  0.00    +0.000 A 
ATOM     15  C   UNL     1       1.495   7.899  21.183  0.00  0.00    +0.000 A 
ATOM     16  C   UNL     1       1.296   9.254  21.493  0.00  0.00    +0.000 A 
ATOM     17  C   UNL     1       1.278  10.221  20.463  0.00  0.00    +0.000 A 
BRANCH  12  19
ATOM     18  C   UNL     1       2.416  11.591  17.958  0.00  0.00    +0.000 C 
ATOM     19  O   UNL     1       1.332  10.667  18.096  0.00  0.00    +0.000 OA
ENDBRANCH  12  19
BRANCH  16  20
ATOM     20  O   UNL     1       1.119   9.429  22.844  0.00  0.00    +0.000 OA
ATOM     21  C   UNL     1      -0.193   9.538  23.374  0.00  0.00    +0.000 C 
ENDBRANCH  16  20
BRANCH  17  22
ATOM     22  O   UNL     1       1.099  11.513  20.867  0.00  0.00    +0.000 OA
ATOM     23  C   UNL     1      -0.164  12.148  20.790  0.00  0.00    +0.000 C 
ENDBRANCH  17  22
ENDBRANCH   1  14
BRANCH   8  24
ATOM     24  C   UNL     1       6.849   6.458  17.647  0.00  0.00    +0.000 A 
ATOM     25  C   UNL     1       7.714   6.225  18.720  0.00  0.00    +0.000 A 
ATOM     26  C   UNL     1       8.524   7.265  19.146  0.00  0.00    +0.000 A 
ATOM     27  N   UNL     1       8.511   8.498  18.602  0.00  0.00    +0.000 NA
ATOM     28  C   UNL     1       7.665   8.699  17.570  0.00  0.00    +0.000 A 
ATOM     29  C   UNL     1       6.833   7.720  17.051  0.00  0.00    +0.000 A 
ENDBRANCH   8  24
TORSDOF 5
ENDMDL
MODEL 9
REMARK VINA RESULT:      -6.6      3.898      8.221
REMARK  Name = 
REMARK  8 active torsions:
REMARK  status: ('A' for Active; 'I' for Inactive)
REMARK    1  A    between atoms: C_1  and  O_2
REMARK    2  A    between atoms: O_2  and  C_3
REMARK    3  A    between atoms: C_5  and  N_6
REMARK    4  A    between atoms: N_13  and  C_14
REMARK    5  A    between atoms: C_23  and  O_24
REMARK    6  A    between atoms: O_24  and  C_25
REMARK    7  A    between atoms: C_26  and  O_27
REMARK    8  A    between atoms: O_27  and  C_28
REMARK                            x       y       z     vdW  Elec       q    Type
REMARK                         _______ _______ _______ _____ _____    ______ ____
ROOT
ATOM      1  N   UNL     1       0.333   9.061  21.822  0.00  0.00    +0.000 N 
ATOM      2  C   UNL     1      -0.360  10.272  21.813  0.00  0.00    +0.000 A 
ATOM      3  N   UNL     1      -0.315  10.970  22.964  0.00  0.00    +0.000 NA
ATOM      4  C   UNL     1      -0.996  12.135  23.055  0.00  0.00    +0.000 A 
ATOM      5  C   UNL     1      -1.768  12.568  21.984  0.00  0.00    +0.000 A 
ATOM      6  C   UNL     1      -2.600  13.678  21.710  0.00  0.00    +0.000 A 
ATOM      7  C   UNL     1      -3.087  13.517  20.431  0.00  0.00    +0.000 A 
ATOM      8  N   UNL     1      -2.614  12.318  19.911  0.00  0.00    +0.000 N 
ATOM      9  C   UNL     1      -1.775  11.751  20.862  0.00  0.00    +0.000 A 
ATOM     10  N   UNL     1      -1.057  10.622  20.724  0.00  0.00    +0.000 NA
ATOM     11  H   UNL     1       0.740   8.943  22.741  0.00  0.00    +0.000 HD
ENDROOT
BRANCH   1  14
ATOM     12  C   UNL     1       2.265   6.580  19.775  0.00  0.00    +0.000 A 
ATOM     13  C   UNL     1       1.614   7.175  20.874  0.00  0.00    +0.000 A 
ATOM     14  C   UNL     1       1.083   8.463  20.797  0.00  0.00    +0.000 A 
ATOM     15  C   UNL     1       1.277   9.169  19.612  0.00  0.00    +0.000 A 
ATOM     16  C   UNL     1       2.010   8.639  18.536  0.00  0.00    +0.000 A 
ATOM     17  C   UNL     1       2.526   7.327  18.609  0.00  0.00    +0.000 A 
BRANCH  12  19
ATOM     18  C   UNL     1       1.988   4.474  20.833  0.00  0.00    +0.000 C 
ATOM     19  O   UNL     1       2.659   5.263  19.846  0.00  0.00    +0.000 OA
ENDBRANCH  12  19
BRANCH  16  20
ATOM     20  O   UNL     1       2.093   9.544  17.505  0.00  0.00    +0.000 OA
ATOM     21  C   UNL     1       2.181  10.931  17.791  0.00  0.00    +0.000 C 
ENDBRANCH  16  20
BRANCH  17  22
ATOM     22  O   UNL     1       3.241   6.910  17.523  0.00  0.00    +0.000 OA
ATOM     23  C   UNL     1       4.657   6.908  17.521  0.00  0.00    +0.000 C 
ENDBRANCH  17  22
ENDBRANCH   1  14
BRANCH   8  24
ATOM     24  C   UNL     1      -2.964  11.789  18.637  0.00  0.00    +0.000 A 
ATOM     25  C   UNL     1      -1.968  11.489  17.703  0.00  0.00    +0.000 A 
ATOM     26  C   UNL     1      -2.356  11.003  16.465  0.00  0.00    +0.000 A 
ATOM     27  N   UNL     1      -3.641  10.827  16.097  0.00  0.00    +0.000 NA
ATOM     28  C   UNL     1      -4.584  11.127  17.014  0.00  0.00    +0.000 A 
ATOM     29  C   UNL     1      -4.302  11.593  18.288  0.00  0.00    +0.000 A 
ENDBRANCH   8  24
TORSDOF 5
ENDMDL
