MODEL 1
REMARK VINA RESULT:      -8.2      0.000      0.000
REMARK  Name = 
REMARK  4 active torsions:
REMARK  status: ('A' for Active; 'I' for Inactive)
REMARK    1  A    between atoms: C_1  and  C_2
REMARK    2  A    between atoms: N_4  and  C_5
REMARK    3  A    between atoms: C_12  and  C_13
REMARK    4  A    between atoms: N_19  and  C_20
REMARK                            x       y       z     vdW  Elec       q    Type
REMARK                         _______ _______ _______ _____ _____    ______ ____
ROOT
ATOM      1  C   UNL     1       4.889   4.706  16.344  0.00  0.00    +0.000 A 
ATOM      2  C   UNL     1       4.539   3.644  17.184  0.00  0.00    +0.000 A 
ATOM      3  C   UNL     1       3.757   3.836  18.324  0.00  0.00    +0.000 A 
ATOM      4  C   UNL     1       3.262   5.121  18.576  0.00  0.00    +0.000 A 
ATOM      5  C   UNL     1       3.614   6.205  17.772  0.00  0.00    +0.000 A 
ATOM      6  C   UNL     1       4.479   6.009  16.673  0.00  0.00    +0.000 A 
ATOM      7  N   UNL     1       3.011   7.360  18.211  0.00  0.00    +0.000 NA
ATOM      8  C   UNL     1       2.359   7.032  19.314  0.00  0.00    +0.000 A 
ATOM      9  N   UNL     1       2.405   5.663  19.512  0.00  0.00    +0.000 N 
ENDROOT
BRANCH   8  10
ATOM     10  C   UNL     1       1.696   8.035  20.213  0.00  0.00    +0.000 A 
ATOM     11  N   UNL     1       1.594   7.876  21.538  0.00  0.00    +0.000 NA
ATOM     12  O   UNL     1       0.948   9.015  21.988  0.00  0.00    +0.000 OA
ATOM     13  N   UNL     1       0.615   9.859  20.936  0.00  0.00    +0.000 NA
ATOM     14  C   UNL     1       1.088   9.258  19.843  0.00  0.00    +0.000 A 
ATOM     15  N   UNL     1       0.919   9.724  18.590  0.00  0.00    +0.000 N 
ATOM     16  H   UNL     1       0.240  10.457  18.427  0.00  0.00    +0.000 HD
ATOM     17  H   UNL     1       1.101   9.119  17.793  0.00  0.00    +0.000 HD
ENDBRANCH   8  10
BRANCH   1  21
ATOM     18  C   UNL     1       7.441   4.733  13.566  0.00  0.00    +0.000 C 
ATOM     19  C   UNL     1       6.910   5.053  14.938  0.00  0.00    +0.000 C 
ATOM     20  O   UNL     1       7.578   5.722  15.719  0.00  0.00    +0.000 OA
ATOM     21  N   UNL     1       5.653   4.517  15.171  0.00  0.00    +0.000 N 
ATOM     22  H   UNL     1       5.317   3.820  14.517  0.00  0.00    +0.000 HD
ENDBRANCH   1  21
BRANCH   9  23
ATOM     23  C   UNL     1       1.575   4.966  20.475  0.00  0.00    +0.000 C 
ATOM     24  C   UNL     1       0.861   3.668  20.020  0.00  0.00    +0.000 C 
ATOM     25  C   UNL     1       1.308   3.020  21.344  0.00  0.00    +0.000 C 
ATOM     26  C   UNL     1       2.414   4.083  21.435  0.00  0.00    +0.000 C 
ENDBRANCH   9  23
TORSDOF 3
ENDMDL
MODEL 2
REMARK VINA RESULT:      -7.9      1.675      6.645
REMARK  Name = 
REMARK  4 active torsions:
REMARK  status: ('A' for Active; 'I' for Inactive)
REMARK    1  A    between atoms: C_1  and  C_2
REMARK    2  A    between atoms: N_4  and  C_5
REMARK    3  A    between atoms: C_12  and  C_13
REMARK    4  A    between atoms: N_19  and  C_20
REMARK                            x       y       z     vdW  Elec       q    Type
REMARK                         _______ _______ _______ _____ _____    ______ ____
ROOT
ATOM      1  C   UNL     1       1.541   7.178  20.507  0.00  0.00    +0.000 A 
ATOM      2  C   UNL     1       1.256   5.812  20.592  0.00  0.00    +0.000 A 
ATOM      3  C   UNL     1       1.941   4.869  19.824  0.00  0.00    +0.000 A 
ATOM      4  C   UNL     1       2.985   5.317  19.007  0.00  0.00    +0.000 A 
ATOM      5  C   UNL     1       3.277   6.676  18.880  0.00  0.00    +0.000 A 
ATOM      6  C   UNL     1       2.515   7.624  19.598  0.00  0.00    +0.000 A 
ATOM      7  N   UNL     1       4.336   6.875  18.027  0.00  0.00    +0.000 NA
ATOM      8  C   UNL     1       4.654   5.679  17.559  0.00  0.00    +0.000 A 
ATOM      9  N   UNL     1       3.923   4.698  18.207  0.00  0.00    +0.000 N 
ENDROOT
BRANCH   8  10
ATOM     10  C   UNL     1       5.655   5.459  16.462  0.00  0.00    +0.000 A 
ATOM     11  N   UNL     1       5.430   5.799  15.188  0.00  0.00    +0.000 NA
ATOM     12  O   UNL     1       6.590   5.455  14.513  0.00  0.00    +0.000 OA
ATOM     13  N   UNL     1       7.516   4.865  15.365  0.00  0.00    +0.000 NA
ATOM     14  C   UNL     1       6.941   4.879  16.569  0.00  0.00    +0.000 A 
ATOM     15  N   UNL     1       7.489   4.339  17.676  0.00  0.00    +0.000 N 
ATOM     16  H   UNL     1       8.282   3.717  17.575  0.00  0.00    +0.000 HD
ATOM     17  H   UNL     1       6.918   4.181  18.501  0.00  0.00    +0.000 HD
ENDBRANCH   8  10
BRANCH   1  21
ATOM     18  C   UNL     1      -0.315  10.140  21.926  0.00  0.00    +0.000 C 
ATOM     19  C   UNL     1       0.243   9.275  20.828  0.00  0.00    +0.000 C 
ATOM     20  O   UNL     1       0.111   9.603  19.654  0.00  0.00    +0.000 OA
ATOM     21  N   UNL     1       0.876   8.136  21.305  0.00  0.00    +0.000 N 
ATOM     22  H   UNL     1       0.727   7.894  22.277  0.00  0.00    +0.000 HD
ENDBRANCH   1  21
BRANCH   9  23
ATOM     23  C   UNL     1       4.224   3.283  18.111  0.00  0.00    +0.000 C 
ATOM     24  C   UNL     1       4.209   2.444  19.414  0.00  0.00    +0.000 C 
ATOM     25  C   UNL     1       3.414   1.368  18.650  0.00  0.00    +0.000 C 
ATOM     26  C   UNL     1       2.996   2.456  17.650  0.00  0.00    +0.000 C 
ENDBRANCH   9  23
TORSDOF 3
ENDMDL
MODEL 3
REMARK VINA RESULT:      -7.8      1.695      6.646
REMARK  Name = 
REMARK  4 active torsions:
REMARK  status: ('A' for Active; 'I' for Inactive)
REMARK    1  A    between atoms: C_1  and  C_2
REMARK    2  A    between atoms: N_4  and  C_5
REMARK    3  A    between atoms: C_12  and  C_13
REMARK    4  A    between atoms: N_19  and  C_20
REMARK                            x       y       z     vdW  Elec       q    Type
REMARK                         _______ _______ _______ _____ _____    ______ ____
ROOT
ATOM      1  C   UNL     1       1.311   7.506  20.438  0.00  0.00    +0.000 A 
ATOM      2  C   UNL     1       1.276   6.151  20.779  0.00  0.00    +0.000 A 
ATOM      3  C   UNL     1       2.090   5.212  20.144  0.00  0.00    +0.000 A 
ATOM      4  C   UNL     1       3.008   5.671  19.193  0.00  0.00    +0.000 A 
ATOM      5  C   UNL     1       3.049   7.012  18.811  0.00  0.00    +0.000 A 
ATOM      6  C   UNL     1       2.157   7.934  19.401  0.00  0.00    +0.000 A 
ATOM      7  N   UNL     1       4.025   7.227  17.867  0.00  0.00    +0.000 NA
ATOM      8  C   UNL     1       4.535   6.036  17.596  0.00  0.00    +0.000 A 
ATOM      9  N   UNL     1       4.013   5.082  18.452  0.00  0.00    +0.000 N 
ENDROOT
BRANCH   8  10
ATOM     10  C   UNL     1       5.519   5.790  16.490  0.00  0.00    +0.000 A 
ATOM     11  N   UNL     1       5.155   5.579  15.219  0.00  0.00    +0.000 NA
ATOM     12  O   UNL     1       6.343   5.420  14.526  0.00  0.00    +0.000 OA
ATOM     13  N   UNL     1       7.440   5.493  15.376  0.00  0.00    +0.000 NA
ATOM     14  C   UNL     1       6.929   5.732  16.584  0.00  0.00    +0.000 A 
ATOM     15  N   UNL     1       7.662   5.813  17.713  0.00  0.00    +0.000 N 
ATOM     16  H   UNL     1       8.621   5.488  17.698  0.00  0.00    +0.000 HD
ATOM     17  H   UNL     1       7.206   5.773  18.620  0.00  0.00    +0.000 HD
ENDBRANCH   8  10
BRANCH   1  21
ATOM     18  C   UNL     1      -0.178  10.120  22.714  0.00  0.00    +0.000 C 
ATOM     19  C   UNL     1       0.915   9.231  22.185  0.00  0.00    +0.000 C 
ATOM     20  O   UNL     1       2.024   9.236  22.708  0.00  0.00    +0.000 OA
ATOM     21  N   UNL     1       0.515   8.469  21.098  0.00  0.00    +0.000 N 
ATOM     22  H   UNL     1      -0.358   8.721  20.650  0.00  0.00    +0.000 HD
ENDBRANCH   1  21
BRANCH   9  23
ATOM     23  C   UNL     1       4.557   3.745  18.586  0.00  0.00    +0.000 C 
ATOM     24  C   UNL     1       4.179   2.925  19.845  0.00  0.00    +0.000 C 
ATOM     25  C   UNL     1       3.931   1.717  18.921  0.00  0.00    +0.000 C 
ATOM     26  C   UNL     1       3.758   2.706  17.757  0.00  0.00    +0.000 C 
ENDBRANCH   9  23
TORSDOF 3
ENDMDL
MODEL 4
REMARK VINA RESULT:      -7.8      1.153      1.154
REMARK  Name = 
REMARK  4 active torsions:
REMARK  status: ('A' for Active; 'I' for Inactive)
REMARK    1  A    between atoms: C_1  and  C_2
REMARK    2  A    between atoms: N_4  and  C_5
REMARK    3  A    between atoms: C_12  and  C_13
REMARK    4  A    between atoms: N_19  and  C_20
REMARK                            x       y       z     vdW  Elec       q    Type
REMARK                         _______ _______ _______ _____ _____    ______ ____
ROOT
ATOM      1  C   UNL     1       5.591   5.126  16.023  0.00  0.00    +0.000 A 
ATOM      2  C   UNL     1       5.159   4.030  16.776  0.00  0.00    +0.000 A 
ATOM      3  C   UNL     1       4.223   4.168  17.802  0.00  0.00    +0.000 A 
ATOM      4  C   UNL     1       3.661   5.432  18.018  0.00  0.00    +0.000 A 
ATOM      5  C   UNL     1       4.090   6.549  17.300  0.00  0.00    +0.000 A 
ATOM      6  C   UNL     1       5.103   6.408  16.326  0.00  0.00    +0.000 A 
ATOM      7  N   UNL     1       3.400   7.675  17.682  0.00  0.00    +0.000 NA
ATOM      8  C   UNL     1       2.611   7.297  18.675  0.00  0.00    +0.000 A 
ATOM      9  N   UNL     1       2.669   5.924  18.840  0.00  0.00    +0.000 N 
ENDROOT
BRANCH   8  10
ATOM     10  C   UNL     1       1.803   8.255  19.501  0.00  0.00    +0.000 A 
ATOM     11  N   UNL     1       1.583   8.089  20.810  0.00  0.00    +0.000 NA
ATOM     12  O   UNL     1       0.826   9.185  21.190  0.00  0.00    +0.000 OA
ATOM     13  N   UNL     1       0.544  10.007  20.106  0.00  0.00    +0.000 NA
ATOM     14  C   UNL     1       1.158   9.437  19.068  0.00  0.00    +0.000 A 
ATOM     15  N   UNL     1       1.081   9.893  17.801  0.00  0.00    +0.000 N 
ATOM     16  H   UNL     1       0.376  10.582  17.570  0.00  0.00    +0.000 HD
ATOM     17  H   UNL     1       1.377   9.302  17.029  0.00  0.00    +0.000 HD
ENDBRANCH   8  10
BRANCH   1  21
ATOM     18  C   UNL     1       7.452   4.338  12.837  0.00  0.00    +0.000 C 
ATOM     19  C   UNL     1       6.248   4.394  13.739  0.00  0.00    +0.000 C 
ATOM     20  O   UNL     1       5.172   3.942  13.362  0.00  0.00    +0.000 OA
ATOM     21  N   UNL     1       6.514   4.992  14.961  0.00  0.00    +0.000 N 
ATOM     22  H   UNL     1       7.386   5.500  15.050  0.00  0.00    +0.000 HD
ENDBRANCH   1  21
BRANCH   9  23
ATOM     23  C   UNL     1       1.734   5.177  19.660  0.00  0.00    +0.000 C 
ATOM     24  C   UNL     1       1.323   3.759  19.192  0.00  0.00    +0.000 C 
ATOM     25  C   UNL     1       1.527   3.278  20.641  0.00  0.00    +0.000 C 
ATOM     26  C   UNL     1       2.432   4.499  20.867  0.00  0.00    +0.000 C 
ENDBRANCH   9  23
TORSDOF 3
ENDMDL
MODEL 5
REMARK VINA RESULT:      -7.5      1.714      6.523
REMARK  Name = 
REMARK  4 active torsions:
REMARK  status: ('A' for Active; 'I' for Inactive)
REMARK    1  A    between atoms: C_1  and  C_2
REMARK    2  A    between atoms: N_4  and  C_5
REMARK    3  A    between atoms: C_12  and  C_13
REMARK    4  A    between atoms: N_19  and  C_20
REMARK                            x       y       z     vdW  Elec       q    Type
REMARK                         _______ _______ _______ _____ _____    ______ ____
ROOT
ATOM      1  C   UNL     1       1.331   7.206  20.541  0.00  0.00    +0.000 A 
ATOM      2  C   UNL     1       1.126   5.841  20.766  0.00  0.00    +0.000 A 
ATOM      3  C   UNL     1       1.946   4.870  20.190  0.00  0.00    +0.000 A 
ATOM      4  C   UNL     1       3.040   5.297  19.428  0.00  0.00    +0.000 A 
ATOM      5  C   UNL     1       3.256   6.650  19.164  0.00  0.00    +0.000 A 
ATOM      6  C   UNL     1       2.365   7.615  19.682  0.00  0.00    +0.000 A 
ATOM      7  N   UNL     1       4.384   6.829  18.399  0.00  0.00    +0.000 NA
ATOM      8  C   UNL     1       4.825   5.613  18.115  0.00  0.00    +0.000 A 
ATOM      9  N   UNL     1       4.094   4.662  18.805  0.00  0.00    +0.000 N 
ENDROOT
BRANCH   8  10
ATOM     10  C   UNL     1       5.948   5.344  17.156  0.00  0.00    +0.000 A 
ATOM     11  N   UNL     1       7.012   4.595  17.466  0.00  0.00    +0.000 NA
ATOM     12  O   UNL     1       7.787   4.577  16.317  0.00  0.00    +0.000 OA
ATOM     13  N   UNL     1       7.220   5.350  15.312  0.00  0.00    +0.000 NA
ATOM     14  C   UNL     1       6.080   5.812  15.827  0.00  0.00    +0.000 A 
ATOM     15  N   UNL     1       5.250   6.661  15.189  0.00  0.00    +0.000 N 
ATOM     16  H   UNL     1       5.581   7.137  14.358  0.00  0.00    +0.000 HD
ATOM     17  H   UNL     1       4.525   7.149  15.706  0.00  0.00    +0.000 HD
ENDBRANCH   8  10
BRANCH   1  21
ATOM     18  C   UNL     1      -0.161   9.968  22.634  0.00  0.00    +0.000 C 
ATOM     19  C   UNL     1       0.943   9.073  22.137  0.00  0.00    +0.000 C 
ATOM     20  O   UNL     1       2.073   9.168  22.604  0.00  0.00    +0.000 OA
ATOM     21  N   UNL     1       0.526   8.197  21.146  0.00  0.00    +0.000 N 
ATOM     22  H   UNL     1      -0.375   8.374  20.719  0.00  0.00    +0.000 HD
ENDBRANCH   1  21
BRANCH   9  23
ATOM     23  C   UNL     1       4.493   3.273  18.915  0.00  0.00    +0.000 C 
ATOM     24  C   UNL     1       3.855   2.416  20.037  0.00  0.00    +0.000 C 
ATOM     25  C   UNL     1       3.649   1.299  18.997  0.00  0.00    +0.000 C 
ATOM     26  C   UNL     1       3.744   2.371  17.900  0.00  0.00    +0.000 C 
ENDBRANCH   9  23
TORSDOF 3
ENDMDL
MODEL 6
REMARK VINA RESULT:      -7.4      2.645      6.770
REMARK  Name = 
REMARK  4 active torsions:
REMARK  status: ('A' for Active; 'I' for Inactive)
REMARK    1  A    between atoms: C_1  and  C_2
REMARK    2  A    between atoms: N_4  and  C_5
REMARK    3  A    between atoms: C_12  and  C_13
REMARK    4  A    between atoms: N_19  and  C_20
REMARK                            x       y       z     vdW  Elec       q    Type
REMARK                         _______ _______ _______ _____ _____    ______ ____
ROOT
ATOM      1  C   UNL     1       1.740   8.764  19.073  0.00  0.00    +0.000 A 
ATOM      2  C   UNL     1       2.569   8.906  17.956  0.00  0.00    +0.000 A 
ATOM      3  C   UNL     1       3.374   7.860  17.501  0.00  0.00    +0.000 A 
ATOM      4  C   UNL     1       3.280   6.624  18.151  0.00  0.00    +0.000 A 
ATOM      5  C   UNL     1       2.482   6.458  19.284  0.00  0.00    +0.000 A 
ATOM      6  C   UNL     1       1.742   7.552  19.784  0.00  0.00    +0.000 A 
ATOM      7  N   UNL     1       2.549   5.166  19.748  0.00  0.00    +0.000 NA
ATOM      8  C   UNL     1       3.431   4.549  18.978  0.00  0.00    +0.000 A 
ATOM      9  N   UNL     1       3.821   5.373  17.937  0.00  0.00    +0.000 N 
ENDROOT
BRANCH   8  10
ATOM     10  C   UNL     1       3.933   3.160  19.245  0.00  0.00    +0.000 A 
ATOM     11  N   UNL     1       4.940   2.894  20.085  0.00  0.00    +0.000 NA
ATOM     12  O   UNL     1       5.073   1.515  20.063  0.00  0.00    +0.000 OA
ATOM     13  N   UNL     1       4.174   0.934  19.178  0.00  0.00    +0.000 NA
ATOM     14  C   UNL     1       3.464   1.949  18.684  0.00  0.00    +0.000 A 
ATOM     15  N   UNL     1       2.516   1.818  17.734  0.00  0.00    +0.000 N 
ATOM     16  H   UNL     1       2.458   0.949  17.217  0.00  0.00    +0.000 HD
ATOM     17  H   UNL     1       2.173   2.638  17.241  0.00  0.00    +0.000 HD
ENDBRANCH   8  10
BRANCH   1  21
ATOM     18  C   UNL     1      -0.864  11.454  19.539  0.00  0.00    +0.000 C 
ATOM     19  C   UNL     1      -0.207  10.292  18.841  0.00  0.00    +0.000 C 
ATOM     20  O   UNL     1      -0.661   9.869  17.784  0.00  0.00    +0.000 OA
ATOM     21  N   UNL     1       0.898   9.806  19.522  0.00  0.00    +0.000 N 
ATOM     22  H   UNL     1       1.029  10.116  20.477  0.00  0.00    +0.000 HD
ENDBRANCH   1  21
BRANCH   9  23
ATOM     23  C   UNL     1       4.567   4.906  16.785  0.00  0.00    +0.000 C 
ATOM     24  C   UNL     1       5.116   5.962  15.793  0.00  0.00    +0.000 C 
ATOM     25  C   UNL     1       6.451   5.192  15.792  0.00  0.00    +0.000 C 
ATOM     26  C   UNL     1       6.041   4.579  17.140  0.00  0.00    +0.000 C 
ENDBRANCH   9  23
TORSDOF 3
ENDMDL
MODEL 7
REMARK VINA RESULT:      -7.4      2.523      7.165
REMARK  Name = 
REMARK  4 active torsions:
REMARK  status: ('A' for Active; 'I' for Inactive)
REMARK    1  A    between atoms: C_1  and  C_2
REMARK    2  A    between atoms: N_4  and  C_5
REMARK    3  A    between atoms: C_12  and  C_13
REMARK    4  A    between atoms: N_19  and  C_20
REMARK                            x       y       z     vdW  Elec       q    Type
REMARK                         _______ _______ _______ _____ _____    ______ ____
ROOT
ATOM      1  C   UNL     1       0.893   8.351  20.611  0.00  0.00    +0.000 A 
ATOM      2  C   UNL     1       1.620   8.820  19.513  0.00  0.00    +0.000 A 
ATOM      3  C   UNL     1       2.494   7.994  18.804  0.00  0.00    +0.000 A 
ATOM      4  C   UNL     1       2.576   6.647  19.175  0.00  0.00    +0.000 A 
ATOM      5  C   UNL     1       1.884   6.155  20.282  0.00  0.00    +0.000 A 
ATOM      6  C   UNL     1       1.072   7.026  21.042  0.00  0.00    +0.000 A 
ATOM      7  N   UNL     1       2.118   4.811  20.453  0.00  0.00    +0.000 NA
ATOM      8  C   UNL     1       3.001   4.477  19.526  0.00  0.00    +0.000 A 
ATOM      9  N   UNL     1       3.227   5.540  18.670  0.00  0.00    +0.000 N 
ENDROOT
BRANCH   8  10
ATOM     10  C   UNL     1       3.663   3.131  19.461  0.00  0.00    +0.000 A 
ATOM     11  N   UNL     1       4.746   2.812  20.180  0.00  0.00    +0.000 NA
ATOM     12  O   UNL     1       5.021   1.495  19.852  0.00  0.00    +0.000 OA
ATOM     13  N   UNL     1       4.130   1.013  18.900  0.00  0.00    +0.000 NA
ATOM     14  C   UNL     1       3.287   2.020  18.670  0.00  0.00    +0.000 A 
ATOM     15  N   UNL     1       2.297   1.984  17.755  0.00  0.00    +0.000 N 
ATOM     16  H   UNL     1       2.296   1.244  17.064  0.00  0.00    +0.000 HD
ATOM     17  H   UNL     1       1.838   2.844  17.469  0.00  0.00    +0.000 HD
ENDBRANCH   8  10
BRANCH   1  21
ATOM     18  C   UNL     1      -0.976  10.502  23.084  0.00  0.00    +0.000 C 
ATOM     19  C   UNL     1       0.211   9.738  22.559  0.00  0.00    +0.000 C 
ATOM     20  O   UNL     1       1.243   9.670  23.218  0.00  0.00    +0.000 OA
ATOM     21  N   UNL     1      -0.018   9.170  21.315  0.00  0.00    +0.000 N 
ATOM     22  H   UNL     1      -0.836   9.482  20.806  0.00  0.00    +0.000 HD
ENDBRANCH   1  21
BRANCH   9  23
ATOM     23  C   UNL     1       3.933   5.416  17.409  0.00  0.00    +0.000 C 
ATOM     24  C   UNL     1       4.321   6.714  16.658  0.00  0.00    +0.000 C 
ATOM     25  C   UNL     1       5.715   6.099  16.423  0.00  0.00    +0.000 C 
ATOM     26  C   UNL     1       5.450   5.166  17.614  0.00  0.00    +0.000 C 
ENDBRANCH   9  23
TORSDOF 3
ENDMDL
MODEL 8
REMARK VINA RESULT:      -7.2      2.811      4.451
REMARK  Name = 
REMARK  4 active torsions:
REMARK  status: ('A' for Active; 'I' for Inactive)
REMARK    1  A    between atoms: C_1  and  C_2
REMARK    2  A    between atoms: N_4  and  C_5
REMARK    3  A    between atoms: C_12  and  C_13
REMARK    4  A    between atoms: N_19  and  C_20
REMARK                            x       y       z     vdW  Elec       q    Type
REMARK                         _______ _______ _______ _____ _____    ______ ____
ROOT
ATOM      1  C   UNL     1       5.931   4.109  14.553  0.00  0.00    +0.000 A 
ATOM      2  C   UNL     1       5.621   5.470  14.643  0.00  0.00    +0.000 A 
ATOM      3  C   UNL     1       4.850   5.980  15.689  0.00  0.00    +0.000 A 
ATOM      4  C   UNL     1       4.448   5.103  16.702  0.00  0.00    +0.000 A 
ATOM      5  C   UNL     1       4.719   3.736  16.628  0.00  0.00    +0.000 A 
ATOM      6  C   UNL     1       5.424   3.222  15.517  0.00  0.00    +0.000 A 
ATOM      7  N   UNL     1       4.228   3.076  17.730  0.00  0.00    +0.000 NA
ATOM      8  C   UNL     1       3.590   3.989  18.444  0.00  0.00    +0.000 A 
ATOM      9  N   UNL     1       3.786   5.248  17.904  0.00  0.00    +0.000 N 
ENDROOT
BRANCH   8  10
ATOM     10  C   UNL     1       2.758   3.662  19.650  0.00  0.00    +0.000 A 
ATOM     11  N   UNL     1       2.914   4.268  20.833  0.00  0.00    +0.000 NA
ATOM     12  O   UNL     1       1.953   3.704  21.656  0.00  0.00    +0.000 OA
ATOM     13  N   UNL     1       1.232   2.719  20.992  0.00  0.00    +0.000 NA
ATOM     14  C   UNL     1       1.722   2.704  19.752  0.00  0.00    +0.000 A 
ATOM     15  N   UNL     1       1.331   1.839  18.794  0.00  0.00    +0.000 N 
ATOM     16  H   UNL     1       0.784   1.029  19.060  0.00  0.00    +0.000 HD
ATOM     17  H   UNL     1       1.889   1.726  17.952  0.00  0.00    +0.000 HD
ENDBRANCH   8  10
BRANCH   1  21
ATOM     18  C   UNL     1       7.365   2.601  11.407  0.00  0.00    +0.000 C 
ATOM     19  C   UNL     1       6.277   3.176  12.275  0.00  0.00    +0.000 C 
ATOM     20  O   UNL     1       5.126   3.246  11.859  0.00  0.00    +0.000 OA
ATOM     21  N   UNL     1       6.737   3.588  13.517  0.00  0.00    +0.000 N 
ATOM     22  H   UNL     1       7.739   3.660  13.641  0.00  0.00    +0.000 HD
ENDBRANCH   1  21
BRANCH   9  23
ATOM     23  C   UNL     1       3.442   6.476  18.593  0.00  0.00    +0.000 C 
ATOM     24  C   UNL     1       3.700   7.819  17.865  0.00  0.00    +0.000 C 
ATOM     25  C   UNL     1       2.301   8.275  18.322  0.00  0.00    +0.000 C 
ATOM     26  C   UNL     1       1.928   6.794  18.494  0.00  0.00    +0.000 C 
ENDBRANCH   9  23
TORSDOF 3
ENDMDL
MODEL 9
REMARK VINA RESULT:      -7.2      2.834      4.171
REMARK  Name = 
REMARK  4 active torsions:
REMARK  status: ('A' for Active; 'I' for Inactive)
REMARK    1  A    between atoms: C_1  and  C_2
REMARK    2  A    between atoms: N_4  and  C_5
REMARK    3  A    between atoms: C_12  and  C_13
REMARK    4  A    between atoms: N_19  and  C_20
REMARK                            x       y       z     vdW  Elec       q    Type
REMARK                         _______ _______ _______ _____ _____    ______ ____
ROOT
ATOM      1  C   UNL     1       5.673   4.629  15.222  0.00  0.00    +0.000 A 
ATOM      2  C   UNL     1       5.312   5.937  15.560  0.00  0.00    +0.000 A 
ATOM      3  C   UNL     1       4.575   6.221  16.710  0.00  0.00    +0.000 A 
ATOM      4  C   UNL     1       4.260   5.164  17.571  0.00  0.00    +0.000 A 
ATOM      5  C   UNL     1       4.584   3.845  17.249  0.00  0.00    +0.000 A 
ATOM      6  C   UNL     1       5.253   3.565  16.038  0.00  0.00    +0.000 A 
ATOM      7  N   UNL     1       4.177   2.982  18.240  0.00  0.00    +0.000 NA
ATOM      8  C   UNL     1       3.538   3.726  19.128  0.00  0.00    +0.000 A 
ATOM      9  N   UNL     1       3.655   5.067  18.807  0.00  0.00    +0.000 N 
ENDROOT
BRANCH   8  10
ATOM     10  C   UNL     1       2.782   3.156  20.293  0.00  0.00    +0.000 A 
ATOM     11  N   UNL     1       3.351   2.889  21.475  0.00  0.00    +0.000 NA
ATOM     12  O   UNL     1       2.323   2.406  22.268  0.00  0.00    +0.000 OA
ATOM     13  N   UNL     1       1.128   2.337  21.563  0.00  0.00    +0.000 NA
ATOM     14  C   UNL     1       1.411   2.811  20.349  0.00  0.00    +0.000 A 
ATOM     15  N   UNL     1       0.529   2.858  19.330  0.00  0.00    +0.000 N 
ATOM     16  H   UNL     1      -0.336   2.337  19.407  0.00  0.00    +0.000 HD
ATOM     17  H   UNL     1       0.856   3.016  18.381  0.00  0.00    +0.000 HD
ENDBRANCH   8  10
BRANCH   1  21
ATOM     18  C   UNL     1       7.037   3.528  11.881  0.00  0.00    +0.000 C 
ATOM     19  C   UNL     1       5.958   3.797  12.896  0.00  0.00    +0.000 C 
ATOM     20  O   UNL     1       4.786   3.546  12.635  0.00  0.00    +0.000 OA
ATOM     21  N   UNL     1       6.447   4.334  14.078  0.00  0.00    +0.000 N 
ATOM     22  H   UNL     1       7.400   4.678  14.072  0.00  0.00    +0.000 HD
ENDBRANCH   1  21
BRANCH   9  23
ATOM     23  C   UNL     1       3.295   6.140  19.714  0.00  0.00    +0.000 C 
ATOM     24  C   UNL     1       2.733   7.450  19.108  0.00  0.00    +0.000 C 
ATOM     25  C   UNL     1       1.646   7.428  20.200  0.00  0.00    +0.000 C 
ATOM     26  C   UNL     1       1.899   5.920  20.352  0.00  0.00    +0.000 C 
ENDBRANCH   9  23
TORSDOF 3
ENDMDL
