MODEL 1
REMARK VINA RESULT:      -8.3      0.000      0.000
REMARK  Name = 
REMARK  8 active torsions:
REMARK  status: ('A' for Active; 'I' for Inactive)
REMARK    1  A    between atoms: C_1  and  C_2
REMARK    2  A    between atoms: C_2  and  C_3
REMARK    3  A    between atoms: C_2  and  N_4
REMARK    4  A    between atoms: N_9  and  C_10
REMARK    5  A    between atoms: C_10  and  C_11
REMARK    6  A    between atoms: C_14  and  C_15
REMARK    7  A    between atoms: N_25  and  C_26
REMARK    8  A    between atoms: C_29  and  N_30
REMARK                            x       y       z     vdW  Elec       q    Type
REMARK                         _______ _______ _______ _____ _____    ______ ____
ROOT
ATOM      1  N   UNL     1       1.606  15.007  18.972  0.00  0.00    +0.000 N 
ATOM      2  C   UNL     1       2.532  14.311  18.244  0.00  0.00    +0.000 A 
ATOM      3  N   UNL     1       2.164  13.065  18.043  0.00  0.00    +0.000 NA
ATOM      4  C   UNL     1       0.935  12.956  18.657  0.00  0.00    +0.000 A 
ATOM      5  C   UNL     1       0.024  11.891  18.786  0.00  0.00    +0.000 A 
ATOM      6  N   UNL     1       0.188  10.616  18.241  0.00  0.00    +0.000 N 
ATOM      7  N   UNL     1      -1.113  12.117  19.498  0.00  0.00    +0.000 NA
ATOM      8  C   UNL     1      -1.341  13.327  20.051  0.00  0.00    +0.000 A 
ATOM      9  N   UNL     1      -2.475  13.543  20.817  0.00  0.00    +0.000 N 
ATOM     10  N   UNL     1      -0.532  14.397  19.967  0.00  0.00    +0.000 NA
ATOM     11  C   UNL     1       0.575  14.148  19.258  0.00  0.00    +0.000 A 
ATOM     12  H   UNL     1      -0.476   9.995  18.691  0.00  0.00    +0.000 HD
ATOM     13  H   UNL     1      -2.328  14.400  21.331  0.00  0.00    +0.000 HD
ENDROOT
BRANCH   9  14
ATOM     14  C   UNL     1      -3.085  12.425  21.525  0.00  0.00    +0.000 C 
ATOM     15  C   UNL     1      -2.544  12.257  22.955  0.00  0.00    +0.000 C 
ATOM     16  C   UNL     1      -2.993  13.372  23.901  0.00  0.00    +0.000 C 
ATOM     17  C   UNL     1      -4.513  13.554  23.933  0.00  0.00    +0.000 C 
ATOM     18  C   UNL     1      -5.062  13.738  22.512  0.00  0.00    +0.000 C 
ATOM     19  C   UNL     1      -4.613  12.638  21.542  0.00  0.00    +0.000 C 
BRANCH  17  20
ATOM     20  N   UNL     1      -5.153  12.423  24.608  0.00  0.00    +0.000 NA
ATOM     21  H   UNL     1      -5.797  11.939  23.985  0.00  0.00    +0.000 HD
ATOM     22  H   UNL     1      -5.717  12.762  25.387  0.00  0.00    +0.000 HD
ENDBRANCH  17  20
ENDBRANCH   9  14
BRANCH   1  24
ATOM     23  C   UNL     1       2.821  16.663  20.340  0.00  0.00    +0.000 C 
ATOM     24  C   UNL     1       1.685  16.409  19.349  0.00  0.00    +0.000 C 
ATOM     25  C   UNL     1       1.815  17.297  18.111  0.00  0.00    +0.000 C 
ENDBRANCH   1  24
BRANCH   6  26
ATOM     26  C   UNL     1       1.556  10.111  18.225  0.00  0.00    +0.000 C 
BRANCH  26  27
ATOM     27  C   UNL     1       1.696   8.844  19.016  0.00  0.00    +0.000 A 
ATOM     28  C   UNL     1       1.306   8.582  20.312  0.00  0.00    +0.000 A 
ATOM     29  C   UNL     1       1.663   7.262  20.724  0.00  0.00    +0.000 A 
ATOM     30  C   UNL     1       2.310   6.552  19.729  0.00  0.00    +0.000 A 
ATOM     31  S   UNL     1       2.469   7.503  18.308  0.00  0.00    +0.000 S 
BRANCH  30  32
ATOM     32  C   UNL     1       2.907   5.206  19.757  0.00  0.00    +0.000 A 
ATOM     33  C   UNL     1       4.103   4.928  19.070  0.00  0.00    +0.000 A 
ATOM     34  C   UNL     1       4.744   3.696  19.212  0.00  0.00    +0.000 A 
ATOM     35  C   UNL     1       4.178   2.726  20.022  0.00  0.00    +0.000 A 
ATOM     36  F   UNL     1       4.808   1.556  20.190  0.00  0.00    +0.000 F 
ATOM     37  C   UNL     1       2.969   2.953  20.672  0.00  0.00    +0.000 A 
ATOM     38  C   UNL     1       2.332   4.190  20.537  0.00  0.00    +0.000 A 
ENDBRANCH  30  32
ENDBRANCH  26  27
ENDBRANCH   6  26
TORSDOF 6
ENDMDL
MODEL 2
REMARK VINA RESULT:      -8.0      8.241     11.612
REMARK  Name = 
REMARK  8 active torsions:
REMARK  status: ('A' for Active; 'I' for Inactive)
REMARK    1  A    between atoms: C_1  and  C_2
REMARK    2  A    between atoms: C_2  and  C_3
REMARK    3  A    between atoms: C_2  and  N_4
REMARK    4  A    between atoms: N_9  and  C_10
REMARK    5  A    between atoms: C_10  and  C_11
REMARK    6  A    between atoms: C_14  and  C_15
REMARK    7  A    between atoms: N_25  and  C_26
REMARK    8  A    between atoms: C_29  and  N_30
REMARK                            x       y       z     vdW  Elec       q    Type
REMARK                         _______ _______ _______ _____ _____    ______ ____
ROOT
ATOM      1  N   UNL     1       6.694   4.369  14.066  0.00  0.00    +0.000 N 
ATOM      2  C   UNL     1       7.543   5.414  13.815  0.00  0.00    +0.000 A 
ATOM      3  N   UNL     1       7.766   6.134  14.892  0.00  0.00    +0.000 NA
ATOM      4  C   UNL     1       7.041   5.517  15.888  0.00  0.00    +0.000 A 
ATOM      5  C   UNL     1       6.875   5.792  17.258  0.00  0.00    +0.000 A 
ATOM      6  N   UNL     1       7.495   6.832  17.954  0.00  0.00    +0.000 N 
ATOM      7  N   UNL     1       6.046   4.982  17.968  0.00  0.00    +0.000 NA
ATOM      8  C   UNL     1       5.415   3.953  17.362  0.00  0.00    +0.000 A 
ATOM      9  N   UNL     1       4.533   3.157  18.073  0.00  0.00    +0.000 N 
ATOM     10  N   UNL     1       5.526   3.614  16.066  0.00  0.00    +0.000 NA
ATOM     11  C   UNL     1       6.351   4.426  15.393  0.00  0.00    +0.000 A 
ATOM     12  H   UNL     1       7.013   6.948  18.840  0.00  0.00    +0.000 HD
ATOM     13  H   UNL     1       3.994   2.632  17.398  0.00  0.00    +0.000 HD
ENDROOT
BRANCH   9  14
ATOM     14  C   UNL     1       3.823   3.718  19.216  0.00  0.00    +0.000 C 
ATOM     15  C   UNL     1       2.696   4.680  18.806  0.00  0.00    +0.000 C 
ATOM     16  C   UNL     1       1.509   3.971  18.152  0.00  0.00    +0.000 C 
ATOM     17  C   UNL     1       0.944   2.836  19.011  0.00  0.00    +0.000 C 
ATOM     18  C   UNL     1       2.056   1.860  19.413  0.00  0.00    +0.000 C 
ATOM     19  C   UNL     1       3.264   2.552  20.059  0.00  0.00    +0.000 C 
BRANCH  17  20
ATOM     20  N   UNL     1       0.257   3.374  20.187  0.00  0.00    +0.000 NA
ATOM     21  H   UNL     1       0.913   3.565  20.941  0.00  0.00    +0.000 HD
ATOM     22  H   UNL     1      -0.396   2.680  20.552  0.00  0.00    +0.000 HD
ENDBRANCH  17  20
ENDBRANCH   9  14
BRANCH   1  24
ATOM     23  C   UNL     1       4.821   3.606  12.652  0.00  0.00    +0.000 C 
ATOM     24  C   UNL     1       6.260   3.365  13.108  0.00  0.00    +0.000 C 
ATOM     25  C   UNL     1       7.220   3.297  11.920  0.00  0.00    +0.000 C 
ENDBRANCH   1  24
BRANCH   6  26
ATOM     26  C   UNL     1       7.668   8.072  17.208  0.00  0.00    +0.000 C 
BRANCH  26  27
ATOM     27  C   UNL     1       8.346   9.131  18.025  0.00  0.00    +0.000 A 
ATOM     28  C   UNL     1       8.982   9.012  19.243  0.00  0.00    +0.000 A 
ATOM     29  C   UNL     1       9.460  10.269  19.724  0.00  0.00    +0.000 A 
ATOM     30  C   UNL     1       9.180  11.311  18.858  0.00  0.00    +0.000 A 
ATOM     31  S   UNL     1       8.344  10.739  17.471  0.00  0.00    +0.000 S 
BRANCH  30  32
ATOM     32  C   UNL     1       9.423  12.756  19.000  0.00  0.00    +0.000 A 
ATOM     33  C   UNL     1      10.411  13.405  18.236  0.00  0.00    +0.000 A 
ATOM     34  C   UNL     1      10.545  14.794  18.264  0.00  0.00    +0.000 A 
ATOM     35  C   UNL     1       9.708  15.540  19.078  0.00  0.00    +0.000 A 
ATOM     36  F   UNL     1       9.809  16.875  19.080  0.00  0.00    +0.000 F 
ATOM     37  C   UNL     1       8.758  14.922  19.884  0.00  0.00    +0.000 A 
ATOM     38  C   UNL     1       8.618  13.531  19.850  0.00  0.00    +0.000 A 
ENDBRANCH  30  32
ENDBRANCH  26  27
ENDBRANCH   6  26
TORSDOF 6
ENDMDL
MODEL 3
REMARK VINA RESULT:      -8.0      0.694      1.076
REMARK  Name = 
REMARK  8 active torsions:
REMARK  status: ('A' for Active; 'I' for Inactive)
REMARK    1  A    between atoms: C_1  and  C_2
REMARK    2  A    between atoms: C_2  and  C_3
REMARK    3  A    between atoms: C_2  and  N_4
REMARK    4  A    between atoms: N_9  and  C_10
REMARK    5  A    between atoms: C_10  and  C_11
REMARK    6  A    between atoms: C_14  and  C_15
REMARK    7  A    between atoms: N_25  and  C_26
REMARK    8  A    between atoms: C_29  and  N_30
REMARK                            x       y       z     vdW  Elec       q    Type
REMARK                         _______ _______ _______ _____ _____    ______ ____
ROOT
ATOM      1  N   UNL     1       1.841  14.966  18.970  0.00  0.00    +0.000 N 
ATOM      2  C   UNL     1       2.782  14.255  18.275  0.00  0.00    +0.000 A 
ATOM      3  N   UNL     1       2.406  13.012  18.070  0.00  0.00    +0.000 NA
ATOM      4  C   UNL     1       1.156  12.921  18.646  0.00  0.00    +0.000 A 
ATOM      5  C   UNL     1       0.229  11.868  18.752  0.00  0.00    +0.000 A 
ATOM      6  N   UNL     1       0.396  10.587  18.219  0.00  0.00    +0.000 N 
ATOM      7  N   UNL     1      -0.926  12.111  19.425  0.00  0.00    +0.000 NA
ATOM      8  C   UNL     1      -1.158  13.327  19.964  0.00  0.00    +0.000 A 
ATOM      9  N   UNL     1      -2.313  13.561  20.692  0.00  0.00    +0.000 N 
ATOM     10  N   UNL     1      -0.335  14.388  19.899  0.00  0.00    +0.000 NA
ATOM     11  C   UNL     1       0.792  14.121  19.228  0.00  0.00    +0.000 A 
ATOM     12  H   UNL     1      -0.289   9.977  18.651  0.00  0.00    +0.000 HD
ATOM     13  H   UNL     1      -2.173  14.420  21.206  0.00  0.00    +0.000 HD
ENDROOT
BRANCH   9  14
ATOM     14  C   UNL     1      -2.959  12.454  21.387  0.00  0.00    +0.000 C 
ATOM     15  C   UNL     1      -2.344  12.177  22.769  0.00  0.00    +0.000 C 
ATOM     16  C   UNL     1      -2.650  13.272  23.792  0.00  0.00    +0.000 C 
ATOM     17  C   UNL     1      -4.148  13.558  23.932  0.00  0.00    +0.000 C 
ATOM     18  C   UNL     1      -4.769  13.852  22.561  0.00  0.00    +0.000 C 
ATOM     19  C   UNL     1      -4.463  12.773  21.514  0.00  0.00    +0.000 C 
BRANCH  17  20
ATOM     20  N   UNL     1      -4.826  12.443  24.595  0.00  0.00    +0.000 NA
ATOM     21  H   UNL     1      -5.753  12.714  24.915  0.00  0.00    +0.000 HD
ATOM     22  H   UNL     1      -4.308  12.173  25.431  0.00  0.00    +0.000 HD
ENDBRANCH  17  20
ENDBRANCH   9  14
BRANCH   1  24
ATOM     23  C   UNL     1       3.362  16.785  19.654  0.00  0.00    +0.000 C 
ATOM     24  C   UNL     1       1.925  16.370  19.340  0.00  0.00    +0.000 C 
ATOM     25  C   UNL     1       1.312  17.256  18.255  0.00  0.00    +0.000 C 
ENDBRANCH   1  24
BRANCH   6  26
ATOM     26  C   UNL     1       1.757  10.067  18.251  0.00  0.00    +0.000 C 
BRANCH  26  27
ATOM     27  C   UNL     1       1.831   8.724  18.914  0.00  0.00    +0.000 A 
ATOM     28  C   UNL     1       1.563   8.388  20.224  0.00  0.00    +0.000 A 
ATOM     29  C   UNL     1       1.799   7.004  20.483  0.00  0.00    +0.000 A 
ATOM     30  C   UNL     1       2.236   6.321  19.362  0.00  0.00    +0.000 A 
ATOM     31  S   UNL     1       2.346   7.377  18.012  0.00  0.00    +0.000 S 
BRANCH  30  32
ATOM     32  C   UNL     1       2.662   4.920  19.208  0.00  0.00    +0.000 A 
ATOM     33  C   UNL     1       1.854   3.861  19.664  0.00  0.00    +0.000 A 
ATOM     34  C   UNL     1       2.187   2.533  19.392  0.00  0.00    +0.000 A 
ATOM     35  C   UNL     1       3.346   2.256  18.684  0.00  0.00    +0.000 A 
ATOM     36  F   UNL     1       3.650   0.985  18.390  0.00  0.00    +0.000 F 
ATOM     37  C   UNL     1       4.191   3.279  18.267  0.00  0.00    +0.000 A 
ATOM     38  C   UNL     1       3.853   4.609  18.532  0.00  0.00    +0.000 A 
ENDBRANCH  30  32
ENDBRANCH  26  27
ENDBRANCH   6  26
TORSDOF 6
ENDMDL
MODEL 4
REMARK VINA RESULT:      -8.0      1.480      1.735
REMARK  Name = 
REMARK  8 active torsions:
REMARK  status: ('A' for Active; 'I' for Inactive)
REMARK    1  A    between atoms: C_1  and  C_2
REMARK    2  A    between atoms: C_2  and  C_3
REMARK    3  A    between atoms: C_2  and  N_4
REMARK    4  A    between atoms: N_9  and  C_10
REMARK    5  A    between atoms: C_10  and  C_11
REMARK    6  A    between atoms: C_14  and  C_15
REMARK    7  A    between atoms: N_25  and  C_26
REMARK    8  A    between atoms: C_29  and  N_30
REMARK                            x       y       z     vdW  Elec       q    Type
REMARK                         _______ _______ _______ _____ _____    ______ ____
ROOT
ATOM      1  N   UNL     1       0.683  14.624  19.563  0.00  0.00    +0.000 N 
ATOM      2  C   UNL     1       1.753  13.810  19.305  0.00  0.00    +0.000 A 
ATOM      3  N   UNL     1       1.460  12.541  19.484  0.00  0.00    +0.000 NA
ATOM      4  C   UNL     1       0.133  12.535  19.859  0.00  0.00    +0.000 A 
ATOM      5  C   UNL     1      -0.762  11.497  20.178  0.00  0.00    +0.000 A 
ATOM      6  N   UNL     1      -0.463  10.133  20.148  0.00  0.00    +0.000 N 
ATOM      7  N   UNL     1      -2.025  11.844  20.544  0.00  0.00    +0.000 NA
ATOM      8  C   UNL     1      -2.387  13.145  20.592  0.00  0.00    +0.000 A 
ATOM      9  N   UNL     1      -3.657  13.501  21.012  0.00  0.00    +0.000 N 
ATOM     10  N   UNL     1      -1.600  14.193  20.294  0.00  0.00    +0.000 NA
ATOM     11  C   UNL     1      -0.366  13.821  19.933  0.00  0.00    +0.000 A 
ATOM     12  H   UNL     1      -1.192   9.641  20.654  0.00  0.00    +0.000 HD
ATOM     13  H   UNL     1      -3.637  14.491  21.215  0.00  0.00    +0.000 HD
ENDROOT
BRANCH   9  14
ATOM     14  C   UNL     1      -4.377  12.635  21.938  0.00  0.00    +0.000 C 
ATOM     15  C   UNL     1      -4.083  12.961  23.411  0.00  0.00    +0.000 C 
ATOM     16  C   UNL     1      -4.685  14.293  23.863  0.00  0.00    +0.000 C 
ATOM     17  C   UNL     1      -6.189  14.390  23.593  0.00  0.00    +0.000 C 
ATOM     18  C   UNL     1      -6.493  14.083  22.122  0.00  0.00    +0.000 C 
ATOM     19  C   UNL     1      -5.886  12.757  21.643  0.00  0.00    +0.000 C 
BRANCH  17  20
ATOM     20  N   UNL     1      -6.932  13.500  24.487  0.00  0.00    +0.000 NA
ATOM     21  H   UNL     1      -6.329  12.774  24.867  0.00  0.00    +0.000 HD
ATOM     22  H   UNL     1      -7.660  13.014  23.963  0.00  0.00    +0.000 HD
ENDBRANCH  17  20
ENDBRANCH   9  14
BRANCH   1  24
ATOM     23  C   UNL     1       2.064  16.664  19.419  0.00  0.00    +0.000 C 
ATOM     24  C   UNL     1       0.654  16.073  19.439  0.00  0.00    +0.000 C 
ATOM     25  C   UNL     1      -0.147  16.496  18.207  0.00  0.00    +0.000 C 
ENDBRANCH   1  24
BRANCH   6  26
ATOM     26  C   UNL     1       0.889   9.777  20.562  0.00  0.00    +0.000 C 
BRANCH  26  27
ATOM     27  C   UNL     1       1.509   8.765  19.646  0.00  0.00    +0.000 A 
ATOM     28  C   UNL     1       1.841   8.889  18.313  0.00  0.00    +0.000 A 
ATOM     29  C   UNL     1       2.369   7.675  17.776  0.00  0.00    +0.000 A 
ATOM     30  C   UNL     1       2.429   6.661  18.714  0.00  0.00    +0.000 A 
ATOM     31  S   UNL     1       1.846   7.205  20.236  0.00  0.00    +0.000 S 
BRANCH  30  32
ATOM     32  C   UNL     1       2.829   5.251  18.566  0.00  0.00    +0.000 A 
ATOM     33  C   UNL     1       3.915   4.725  19.289  0.00  0.00    +0.000 A 
ATOM     34  C   UNL     1       4.205   3.360  19.260  0.00  0.00    +0.000 A 
ATOM     35  C   UNL     1       3.425   2.517  18.484  0.00  0.00    +0.000 A 
ATOM     36  F   UNL     1       3.678   1.202  18.481  0.00  0.00    +0.000 F 
ATOM     37  C   UNL     1       2.378   3.017  17.717  0.00  0.00    +0.000 A 
ATOM     38  C   UNL     1       2.082   4.383  17.754  0.00  0.00    +0.000 A 
ENDBRANCH  30  32
ENDBRANCH  26  27
ENDBRANCH   6  26
TORSDOF 6
ENDMDL
MODEL 5
REMARK VINA RESULT:      -7.9      1.392      1.646
REMARK  Name = 
REMARK  8 active torsions:
REMARK  status: ('A' for Active; 'I' for Inactive)
REMARK    1  A    between atoms: C_1  and  C_2
REMARK    2  A    between atoms: C_2  and  C_3
REMARK    3  A    between atoms: C_2  and  N_4
REMARK    4  A    between atoms: N_9  and  C_10
REMARK    5  A    between atoms: C_10  and  C_11
REMARK    6  A    between atoms: C_14  and  C_15
REMARK    7  A    between atoms: N_25  and  C_26
REMARK    8  A    between atoms: C_29  and  N_30
REMARK                            x       y       z     vdW  Elec       q    Type
REMARK                         _______ _______ _______ _____ _____    ______ ____
ROOT
ATOM      1  N   UNL     1       1.049  14.512  19.342  0.00  0.00    +0.000 N 
ATOM      2  C   UNL     1       2.111  13.676  19.125  0.00  0.00    +0.000 A 
ATOM      3  N   UNL     1       1.787  12.414  19.296  0.00  0.00    +0.000 NA
ATOM      4  C   UNL     1       0.448  12.435  19.624  0.00  0.00    +0.000 A 
ATOM      5  C   UNL     1      -0.479  11.416  19.913  0.00  0.00    +0.000 A 
ATOM      6  N   UNL     1      -0.206  10.046  19.898  0.00  0.00    +0.000 N 
ATOM      7  N   UNL     1      -1.747  11.790  20.233  0.00  0.00    +0.000 NA
ATOM      8  C   UNL     1      -2.084  13.097  20.265  0.00  0.00    +0.000 A 
ATOM      9  N   UNL     1      -3.361  13.480  20.638  0.00  0.00    +0.000 N 
ATOM     10  N   UNL     1      -1.267  14.129  19.992  0.00  0.00    +0.000 NA
ATOM     11  C   UNL     1      -0.029  13.731  19.676  0.00  0.00    +0.000 A 
ATOM     12  H   UNL     1      -0.963   9.571  20.379  0.00  0.00    +0.000 HD
ATOM     13  H   UNL     1      -3.329  14.470  20.840  0.00  0.00    +0.000 HD
ENDROOT
BRANCH   9  14
ATOM     14  C   UNL     1      -4.131  12.631  21.540  0.00  0.00    +0.000 C 
ATOM     15  C   UNL     1      -3.772  12.852  23.019  0.00  0.00    +0.000 C 
ATOM     16  C   UNL     1      -4.243  14.205  23.555  0.00  0.00    +0.000 C 
ATOM     17  C   UNL     1      -5.739  14.447  23.336  0.00  0.00    +0.000 C 
ATOM     18  C   UNL     1      -6.106  14.245  21.861  0.00  0.00    +0.000 C 
ATOM     19  C   UNL     1      -5.630  12.899  21.297  0.00  0.00    +0.000 C 
BRANCH  17  20
ATOM     20  N   UNL     1      -6.534  13.578  24.205  0.00  0.00    +0.000 NA
ATOM     21  H   UNL     1      -6.018  13.327  25.046  0.00  0.00    +0.000 HD
ATOM     22  H   UNL     1      -6.734  12.700  23.726  0.00  0.00    +0.000 HD
ENDBRANCH  17  20
ENDBRANCH   9  14
BRANCH   1  24
ATOM     23  C   UNL     1       1.244  16.646  20.566  0.00  0.00    +0.000 C 
ATOM     24  C   UNL     1       1.054  15.960  19.213  0.00  0.00    +0.000 C 
ATOM     25  C   UNL     1       2.109  16.412  18.203  0.00  0.00    +0.000 C 
ENDBRANCH   1  24
BRANCH   6  26
ATOM     26  C   UNL     1       1.122   9.665  20.360  0.00  0.00    +0.000 C 
BRANCH  26  27
ATOM     27  C   UNL     1       1.705   8.552  19.542  0.00  0.00    +0.000 A 
ATOM     28  C   UNL     1       2.151   8.575  18.238  0.00  0.00    +0.000 A 
ATOM     29  C   UNL     1       2.592   7.290  17.797  0.00  0.00    +0.000 A 
ATOM     30  C   UNL     1       2.473   6.323  18.779  0.00  0.00    +0.000 A 
ATOM     31  S   UNL     1       1.832   6.997  20.222  0.00  0.00    +0.000 S 
BRANCH  30  32
ATOM     32  C   UNL     1       2.736   4.875  18.723  0.00  0.00    +0.000 A 
ATOM     33  C   UNL     1       1.897   4.012  17.994  0.00  0.00    +0.000 A 
ATOM     34  C   UNL     1       2.224   2.666  17.822  0.00  0.00    +0.000 A 
ATOM     35  C   UNL     1       3.380   2.170  18.402  0.00  0.00    +0.000 A 
ATOM     36  F   UNL     1       3.716   0.888  18.209  0.00  0.00    +0.000 F 
ATOM     37  C   UNL     1       4.201   2.986  19.172  0.00  0.00    +0.000 A 
ATOM     38  C   UNL     1       3.878   4.336  19.337  0.00  0.00    +0.000 A 
ENDBRANCH  30  32
ENDBRANCH  26  27
ENDBRANCH   6  26
TORSDOF 6
ENDMDL
MODEL 6
REMARK VINA RESULT:      -7.8      0.784      1.187
REMARK  Name = 
REMARK  8 active torsions:
REMARK  status: ('A' for Active; 'I' for Inactive)
REMARK    1  A    between atoms: C_1  and  C_2
REMARK    2  A    between atoms: C_2  and  C_3
REMARK    3  A    between atoms: C_2  and  N_4
REMARK    4  A    between atoms: N_9  and  C_10
REMARK    5  A    between atoms: C_10  and  C_11
REMARK    6  A    between atoms: C_14  and  C_15
REMARK    7  A    between atoms: N_25  and  C_26
REMARK    8  A    between atoms: C_29  and  N_30
REMARK                            x       y       z     vdW  Elec       q    Type
REMARK                         _______ _______ _______ _____ _____    ______ ____
ROOT
ATOM      1  N   UNL     1       2.238  14.891  20.143  0.00  0.00    +0.000 N 
ATOM      2  C   UNL     1       3.086  14.283  19.257  0.00  0.00    +0.000 A 
ATOM      3  N   UNL     1       2.554  13.201  18.733  0.00  0.00    +0.000 NA
ATOM      4  C   UNL     1       1.298  13.116  19.295  0.00  0.00    +0.000 A 
ATOM      5  C   UNL     1       0.242  12.200  19.136  0.00  0.00    +0.000 A 
ATOM      6  N   UNL     1       0.247  11.103  18.271  0.00  0.00    +0.000 N 
ATOM      7  N   UNL     1      -0.879  12.395  19.880  0.00  0.00    +0.000 NA
ATOM      8  C   UNL     1      -0.956  13.438  20.735  0.00  0.00    +0.000 A 
ATOM      9  N   UNL     1      -2.078  13.608  21.529  0.00  0.00    +0.000 N 
ATOM     10  N   UNL     1      -0.002  14.362  20.938  0.00  0.00    +0.000 NA
ATOM     11  C   UNL     1       1.087  14.148  20.190  0.00  0.00    +0.000 A 
ATOM     12  H   UNL     1      -0.515  10.489  18.540  0.00  0.00    +0.000 HD
ATOM     13  H   UNL     1      -1.833  14.270  22.253  0.00  0.00    +0.000 HD
ENDROOT
BRANCH   9  14
ATOM     14  C   UNL     1      -2.868  12.445  21.915  0.00  0.00    +0.000 C 
ATOM     15  C   UNL     1      -2.826  12.171  23.427  0.00  0.00    +0.000 C 
ATOM     16  C   UNL     1      -3.582  13.217  24.248  0.00  0.00    +0.000 C 
ATOM     17  C   UNL     1      -5.031  13.404  23.788  0.00  0.00    +0.000 C 
ATOM     18  C   UNL     1      -5.083  13.695  22.283  0.00  0.00    +0.000 C 
ATOM     19  C   UNL     1      -4.319  12.665  21.441  0.00  0.00    +0.000 C 
BRANCH  17  20
ATOM     20  N   UNL     1      -5.837  12.232  24.132  0.00  0.00    +0.000 NA
ATOM     21  H   UNL     1      -5.871  12.091  25.139  0.00  0.00    +0.000 HD
ATOM     22  H   UNL     1      -5.406  11.392  23.745  0.00  0.00    +0.000 HD
ENDBRANCH  17  20
ENDBRANCH   9  14
BRANCH   1  24
ATOM     23  C   UNL     1       3.569  15.916  21.952  0.00  0.00    +0.000 C 
ATOM     24  C   UNL     1       2.499  16.119  20.879  0.00  0.00    +0.000 C 
ATOM     25  C   UNL     1       2.872  17.254  19.925  0.00  0.00    +0.000 C 
ENDBRANCH   1  24
BRANCH   6  26
ATOM     26  C   UNL     1       1.529  10.425  18.124  0.00  0.00    +0.000 C 
BRANCH  26  27
ATOM     27  C   UNL     1       1.611   9.188  18.968  0.00  0.00    +0.000 A 
ATOM     28  C   UNL     1       1.123   8.970  20.238  0.00  0.00    +0.000 A 
ATOM     29  C   UNL     1       1.450   7.668  20.724  0.00  0.00    +0.000 A 
ATOM     30  C   UNL     1       2.175   6.926  19.809  0.00  0.00    +0.000 A 
ATOM     31  S   UNL     1       2.441   7.827  18.371  0.00  0.00    +0.000 S 
BRANCH  30  32
ATOM     32  C   UNL     1       2.772   5.586  19.931  0.00  0.00    +0.000 A 
ATOM     33  C   UNL     1       2.082   4.539  20.572  0.00  0.00    +0.000 A 
ATOM     34  C   UNL     1       2.582   3.236  20.562  0.00  0.00    +0.000 A 
ATOM     35  C   UNL     1       3.790   2.977  19.934  0.00  0.00    +0.000 A 
ATOM     36  F   UNL     1       4.254   1.722  19.891  0.00  0.00    +0.000 F 
ATOM     37  C   UNL     1       4.519   4.000  19.338  0.00  0.00    +0.000 A 
ATOM     38  C   UNL     1       4.014   5.304  19.340  0.00  0.00    +0.000 A 
ENDBRANCH  30  32
ENDBRANCH  26  27
ENDBRANCH   6  26
TORSDOF 6
ENDMDL
MODEL 7
REMARK VINA RESULT:      -7.7      2.912      4.439
REMARK  Name = 
REMARK  8 active torsions:
REMARK  status: ('A' for Active; 'I' for Inactive)
REMARK    1  A    between atoms: C_1  and  C_2
REMARK    2  A    between atoms: C_2  and  C_3
REMARK    3  A    between atoms: C_2  and  N_4
REMARK    4  A    between atoms: N_9  and  C_10
REMARK    5  A    between atoms: C_10  and  C_11
REMARK    6  A    between atoms: C_14  and  C_15
REMARK    7  A    between atoms: N_25  and  C_26
REMARK    8  A    between atoms: C_29  and  N_30
REMARK                            x       y       z     vdW  Elec       q    Type
REMARK                         _______ _______ _______ _____ _____    ______ ____
ROOT
ATOM      1  N   UNL     1      -3.904  11.575  18.544  0.00  0.00    +0.000 N 
ATOM      2  C   UNL     1      -3.125  10.664  17.884  0.00  0.00    +0.000 A 
ATOM      3  N   UNL     1      -1.938  10.541  18.437  0.00  0.00    +0.000 NA
ATOM      4  C   UNL     1      -1.959  11.402  19.513  0.00  0.00    +0.000 A 
ATOM      5  C   UNL     1      -1.007  11.716  20.501  0.00  0.00    +0.000 A 
ATOM      6  N   UNL     1       0.262  11.143  20.613  0.00  0.00    +0.000 N 
ATOM      7  N   UNL     1      -1.346  12.653  21.426  0.00  0.00    +0.000 NA
ATOM      8  C   UNL     1      -2.558  13.247  21.382  0.00  0.00    +0.000 A 
ATOM      9  N   UNL     1      -2.884  14.237  22.295  0.00  0.00    +0.000 N 
ATOM     10  N   UNL     1      -3.526  12.998  20.484  0.00  0.00    +0.000 NA
ATOM     11  C   UNL     1      -3.167  12.070  19.589  0.00  0.00    +0.000 A 
ATOM     12  H   UNL     1       0.812  11.721  21.239  0.00  0.00    +0.000 HD
ATOM     13  H   UNL     1      -3.702  14.712  21.939  0.00  0.00    +0.000 HD
ENDROOT
BRANCH   9  14
ATOM     14  C   UNL     1      -1.827  15.054  22.876  0.00  0.00    +0.000 C 
ATOM     15  C   UNL     1      -2.074  16.562  22.703  0.00  0.00    +0.000 C 
ATOM     16  C   UNL     1      -3.232  17.082  23.557  0.00  0.00    +0.000 C 
ATOM     17  C   UNL     1      -3.078  16.743  25.042  0.00  0.00    +0.000 C 
ATOM     18  C   UNL     1      -2.847  15.238  25.228  0.00  0.00    +0.000 C 
ATOM     19  C   UNL     1      -1.699  14.691  24.370  0.00  0.00    +0.000 C 
BRANCH  17  20
ATOM     20  N   UNL     1      -1.995  17.525  25.640  0.00  0.00    +0.000 NA
ATOM     21  H   UNL     1      -1.667  17.099  26.504  0.00  0.00    +0.000 HD
ATOM     22  H   UNL     1      -2.340  18.451  25.896  0.00  0.00    +0.000 HD
ENDBRANCH  17  20
ENDBRANCH   9  14
BRANCH   1  24
ATOM     23  C   UNL     1      -5.425  12.291  16.737  0.00  0.00    +0.000 C 
ATOM     24  C   UNL     1      -5.276  11.932  18.215  0.00  0.00    +0.000 C 
ATOM     25  C   UNL     1      -6.239  10.815  18.619  0.00  0.00    +0.000 C 
ENDBRANCH   1  24
BRANCH   6  26
ATOM     26  C   UNL     1       0.925  10.837  19.352  0.00  0.00    +0.000 C 
BRANCH  26  27
ATOM     27  C   UNL     1       1.439   9.428  19.315  0.00  0.00    +0.000 A 
ATOM     28  C   UNL     1       1.450   8.482  20.318  0.00  0.00    +0.000 A 
ATOM     29  C   UNL     1       2.075   7.267  19.904  0.00  0.00    +0.000 A 
ATOM     30  C   UNL     1       2.520   7.318  18.595  0.00  0.00    +0.000 A 
ATOM     31  S   UNL     1       2.164   8.843  17.891  0.00  0.00    +0.000 S 
BRANCH  30  32
ATOM     32  C   UNL     1       3.275   6.328  17.809  0.00  0.00    +0.000 A 
ATOM     33  C   UNL     1       4.411   6.703  17.067  0.00  0.00    +0.000 A 
ATOM     34  C   UNL     1       5.208   5.745  16.440  0.00  0.00    +0.000 A 
ATOM     35  C   UNL     1       4.858   4.407  16.528  0.00  0.00    +0.000 A 
ATOM     36  F   UNL     1       5.641   3.482  15.958  0.00  0.00    +0.000 F 
ATOM     37  C   UNL     1       3.712   4.011  17.209  0.00  0.00    +0.000 A 
ATOM     38  C   UNL     1       2.918   4.970  17.845  0.00  0.00    +0.000 A 
ENDBRANCH  30  32
ENDBRANCH  26  27
ENDBRANCH   6  26
TORSDOF 6
ENDMDL
MODEL 8
REMARK VINA RESULT:      -7.7      3.015      4.100
REMARK  Name = 
REMARK  8 active torsions:
REMARK  status: ('A' for Active; 'I' for Inactive)
REMARK    1  A    between atoms: C_1  and  C_2
REMARK    2  A    between atoms: C_2  and  C_3
REMARK    3  A    between atoms: C_2  and  N_4
REMARK    4  A    between atoms: N_9  and  C_10
REMARK    5  A    between atoms: C_10  and  C_11
REMARK    6  A    between atoms: C_14  and  C_15
REMARK    7  A    between atoms: N_25  and  C_26
REMARK    8  A    between atoms: C_29  and  N_30
REMARK                            x       y       z     vdW  Elec       q    Type
REMARK                         _______ _______ _______ _____ _____    ______ ____
ROOT
ATOM      1  N   UNL     1      -2.889  11.019  17.174  0.00  0.00    +0.000 N 
ATOM      2  C   UNL     1      -1.856  10.220  16.765  0.00  0.00    +0.000 A 
ATOM      3  N   UNL     1      -0.951  10.066  17.706  0.00  0.00    +0.000 NA
ATOM      4  C   UNL     1      -1.430  10.788  18.778  0.00  0.00    +0.000 A 
ATOM      5  C   UNL     1      -0.935  11.008  20.077  0.00  0.00    +0.000 A 
ATOM      6  N   UNL     1       0.243  10.464  20.596  0.00  0.00    +0.000 N 
ATOM      7  N   UNL     1      -1.658  11.814  20.899  0.00  0.00    +0.000 NA
ATOM      8  C   UNL     1      -2.809  12.372  20.465  0.00  0.00    +0.000 A 
ATOM      9  N   UNL     1      -3.520  13.232  21.285  0.00  0.00    +0.000 N 
ATOM     10  N   UNL     1      -3.357  12.205  19.250  0.00  0.00    +0.000 NA
ATOM     11  C   UNL     1      -2.627  11.404  18.464  0.00  0.00    +0.000 A 
ATOM     12  H   UNL     1       0.480  10.978  21.439  0.00  0.00    +0.000 HD
ATOM     13  H   UNL     1      -4.183  13.722  20.700  0.00  0.00    +0.000 HD
ENDROOT
BRANCH   9  14
ATOM     14  C   UNL     1      -2.814  14.005  22.300  0.00  0.00    +0.000 C 
ATOM     15  C   UNL     1      -3.096  15.513  22.205  0.00  0.00    +0.000 C 
ATOM     16  C   UNL     1      -4.521  15.885  22.616  0.00  0.00    +0.000 C 
ATOM     17  C   UNL     1      -4.896  15.367  24.008  0.00  0.00    +0.000 C 
ATOM     18  C   UNL     1      -4.635  13.860  24.109  0.00  0.00    +0.000 C 
ATOM     19  C   UNL     1      -3.214  13.462  23.687  0.00  0.00    +0.000 C 
BRANCH  17  20
ATOM     20  N   UNL     1      -4.170  16.104  25.044  0.00  0.00    +0.000 NA
ATOM     21  H   UNL     1      -4.793  16.721  25.561  0.00  0.00    +0.000 HD
ATOM     22  H   UNL     1      -3.471  16.707  24.612  0.00  0.00    +0.000 HD
ENDBRANCH  17  20
ENDBRANCH   9  14
BRANCH   1  24
ATOM     23  C   UNL     1      -4.104  10.620  15.064  0.00  0.00    +0.000 C 
ATOM     24  C   UNL     1      -4.065  11.371  16.394  0.00  0.00    +0.000 C 
ATOM     25  C   UNL     1      -5.342  11.142  17.204  0.00  0.00    +0.000 C 
ENDBRANCH   1  24
BRANCH   6  26
ATOM     26  C   UNL     1       1.345  10.334  19.651  0.00  0.00    +0.000 C 
BRANCH  26  27
ATOM     27  C   UNL     1       1.773   8.907  19.481  0.00  0.00    +0.000 A 
ATOM     28  C   UNL     1       1.670   7.858  20.369  0.00  0.00    +0.000 A 
ATOM     29  C   UNL     1       2.243   6.657  19.851  0.00  0.00    +0.000 A 
ATOM     30  C   UNL     1       2.764   6.822  18.580  0.00  0.00    +0.000 A 
ATOM     31  S   UNL     1       2.541   8.436  18.037  0.00  0.00    +0.000 S 
BRANCH  30  32
ATOM     32  C   UNL     1       3.500   5.877  17.725  0.00  0.00    +0.000 A 
ATOM     33  C   UNL     1       4.546   6.315  16.891  0.00  0.00    +0.000 A 
ATOM     34  C   UNL     1       5.337   5.403  16.191  0.00  0.00    +0.000 A 
ATOM     35  C   UNL     1       5.070   4.048  16.299  0.00  0.00    +0.000 A 
ATOM     36  F   UNL     1       5.850   3.169  15.658  0.00  0.00    +0.000 F 
ATOM     37  C   UNL     1       4.010   3.589  17.075  0.00  0.00    +0.000 A 
ATOM     38  C   UNL     1       3.223   4.501  17.783  0.00  0.00    +0.000 A 
ENDBRANCH  30  32
ENDBRANCH  26  27
ENDBRANCH   6  26
TORSDOF 6
ENDMDL
MODEL 9
REMARK VINA RESULT:      -7.6      2.635      4.289
REMARK  Name = 
REMARK  8 active torsions:
REMARK  status: ('A' for Active; 'I' for Inactive)
REMARK    1  A    between atoms: C_1  and  C_2
REMARK    2  A    between atoms: C_2  and  C_3
REMARK    3  A    between atoms: C_2  and  N_4
REMARK    4  A    between atoms: N_9  and  C_10
REMARK    5  A    between atoms: C_10  and  C_11
REMARK    6  A    between atoms: C_14  and  C_15
REMARK    7  A    between atoms: N_25  and  C_26
REMARK    8  A    between atoms: C_29  and  N_30
REMARK                            x       y       z     vdW  Elec       q    Type
REMARK                         _______ _______ _______ _____ _____    ______ ____
ROOT
ATOM      1  N   UNL     1      -4.108  11.112  17.904  0.00  0.00    +0.000 N 
ATOM      2  C   UNL     1      -3.204  10.360  17.205  0.00  0.00    +0.000 A 
ATOM      3  N   UNL     1      -2.009  10.394  17.751  0.00  0.00    +0.000 NA
ATOM      4  C   UNL     1      -2.152  11.195  18.864  0.00  0.00    +0.000 A 
ATOM      5  C   UNL     1      -1.252  11.608  19.864  0.00  0.00    +0.000 A 
ATOM      6  N   UNL     1       0.090  11.230  19.950  0.00  0.00    +0.000 N 
ATOM      7  N   UNL     1      -1.721  12.442  20.829  0.00  0.00    +0.000 NA
ATOM      8  C   UNL     1      -3.010  12.846  20.812  0.00  0.00    +0.000 A 
ATOM      9  N   UNL     1      -3.476  13.734  21.767  0.00  0.00    +0.000 N 
ATOM     10  N   UNL     1      -3.935  12.491  19.904  0.00  0.00    +0.000 NA
ATOM     11  C   UNL     1      -3.446  11.668  18.970  0.00  0.00    +0.000 A 
ATOM     12  H   UNL     1       0.551  11.857  20.600  0.00  0.00    +0.000 HD
ATOM     13  H   UNL     1      -4.359  14.095  21.433  0.00  0.00    +0.000 HD
ENDROOT
BRANCH   9  14
ATOM     14  C   UNL     1      -2.550  14.677  22.383  0.00  0.00    +0.000 C 
ATOM     15  C   UNL     1      -3.039  16.133  22.301  0.00  0.00    +0.000 C 
ATOM     16  C   UNL     1      -4.246  16.412  23.198  0.00  0.00    +0.000 C 
ATOM     17  C   UNL     1      -4.009  16.018  24.659  0.00  0.00    +0.000 C 
ATOM     18  C   UNL     1      -3.536  14.562  24.754  0.00  0.00    +0.000 C 
ATOM     19  C   UNL     1      -2.334  14.256  23.851  0.00  0.00    +0.000 C 
BRANCH  17  20
ATOM     20  N   UNL     1      -3.052  16.930  25.290  0.00  0.00    +0.000 NA
ATOM     21  H   UNL     1      -2.692  16.542  26.159  0.00  0.00    +0.000 HD
ATOM     22  H   UNL     1      -3.521  17.800  25.543  0.00  0.00    +0.000 HD
ENDBRANCH  17  20
ENDBRANCH   9  14
BRANCH   1  24
ATOM     23  C   UNL     1      -6.408  10.716  18.706  0.00  0.00    +0.000 C 
ATOM     24  C   UNL     1      -5.520  11.270  17.592  0.00  0.00    +0.000 C 
ATOM     25  C   UNL     1      -5.849  12.732  17.290  0.00  0.00    +0.000 C 
ENDBRANCH   1  24
BRANCH   6  26
ATOM     26  C   UNL     1       0.784  11.082  18.676  0.00  0.00    +0.000 C 
BRANCH  26  27
ATOM     27  C   UNL     1       1.514   9.775  18.582  0.00  0.00    +0.000 A 
ATOM     28  C   UNL     1       2.319   9.302  17.567  0.00  0.00    +0.000 A 
ATOM     29  C   UNL     1       2.795   7.982  17.830  0.00  0.00    +0.000 A 
ATOM     30  C   UNL     1       2.344   7.486  19.040  0.00  0.00    +0.000 A 
ATOM     31  S   UNL     1       1.353   8.639  19.839  0.00  0.00    +0.000 S 
BRANCH  30  32
ATOM     32  C   UNL     1       2.531   6.160  19.653  0.00  0.00    +0.000 A 
ATOM     33  C   UNL     1       1.591   5.642  20.564  0.00  0.00    +0.000 A 
ATOM     34  C   UNL     1       1.691   4.331  21.033  0.00  0.00    +0.000 A 
ATOM     35  C   UNL     1       2.748   3.540  20.615  0.00  0.00    +0.000 A 
ATOM     36  F   UNL     1       2.827   2.270  21.034  0.00  0.00    +0.000 F 
ATOM     37  C   UNL     1       3.721   4.041  19.757  0.00  0.00    +0.000 A 
ATOM     38  C   UNL     1       3.616   5.351  19.279  0.00  0.00    +0.000 A 
ENDBRANCH  30  32
ENDBRANCH  26  27
ENDBRANCH   6  26
TORSDOF 6
ENDMDL
