MODEL 1
REMARK VINA RESULT:      -7.9      0.000      0.000
REMARK  Name = 
REMARK  4 active torsions:
REMARK  status: ('A' for Active; 'I' for Inactive)
REMARK    1  A    between atoms: C_2  and  C_11
REMARK    2  A    between atoms: N_3  and  C_4
REMARK    3  A    between atoms: C_4  and  C_5
REMARK    4  A    between atoms: N_14  and  C_15
REMARK                            x       y       z     vdW  Elec       q    Type
REMARK                         _______ _______ _______ _____ _____    ______ ____
ROOT
ATOM      1  C   UNL     1       7.546   6.802  18.087  0.00  0.00    +0.000 A 
ATOM      2  N   UNL     1       7.045   7.493  17.015  0.00  0.00    +0.000 NA
ATOM      3  N   UNL     1       7.534   8.721  17.093  0.00  0.00    +0.000 NA
ATOM      4  N   UNL     1       8.318   8.734  18.196  0.00  0.00    +0.000 N 
ATOM      5  N   UNL     1       8.384   7.542  18.844  0.00  0.00    +0.000 NA
ENDROOT
BRANCH   4   6
ATOM      6  C   UNL     1       8.989   9.896  18.655  0.00  0.00    +0.000 A 
ATOM      7  C   UNL     1       9.464  10.844  17.737  0.00  0.00    +0.000 A 
ATOM      8  C   UNL     1      10.114  11.993  18.196  0.00  0.00    +0.000 A 
ATOM      9  C   UNL     1      10.298  12.187  19.565  0.00  0.00    +0.000 A 
ATOM     10 BR   UNL     1      11.194  13.734  20.180  0.00  0.00    +0.000 Br
ATOM     11  C   UNL     1       9.826  11.249  20.484  0.00  0.00    +0.000 A 
ATOM     12  C   UNL     1       9.166  10.105  20.030  0.00  0.00    +0.000 A 
ENDBRANCH   4   6
BRANCH   1  14
ATOM     13  O   UNL     1       7.932   4.469  18.345  0.00  0.00    +0.000 OA
ATOM     14  C   UNL     1       7.163   5.422  18.418  0.00  0.00    +0.000 C 
ATOM     15  N   UNL     1       5.835   5.295  18.783  0.00  0.00    +0.000 N 
ATOM     16  H   UNL     1       5.285   6.149  18.804  0.00  0.00    +0.000 HD
BRANCH  15  17
ATOM     17  C   UNL     1       5.198   4.018  19.011  0.00  0.00    +0.000 C 
BRANCH  17  18
ATOM     18  C   UNL     1       4.366   3.532  17.809  0.00  0.00    +0.000 C 
ATOM     19  C   UNL     1       3.595   2.233  18.092  0.00  0.00    +0.000 C 
ATOM     20  C   UNL     1       2.459   2.416  19.097  0.00  0.00    +0.000 C 
ATOM     21  C   UNL     1       1.525   3.569  18.733  0.00  0.00    +0.000 C 
ATOM     22  C   UNL     1       2.260   4.856  18.368  0.00  0.00    +0.000 C 
ATOM     23  C   UNL     1       3.378   4.617  17.354  0.00  0.00    +0.000 C 
ENDBRANCH  17  18
ENDBRANCH  15  17
ENDBRANCH   1  14
TORSDOF 4
ENDMDL
MODEL 2
REMARK VINA RESULT:      -7.8      0.165      1.034
REMARK  Name = 
REMARK  4 active torsions:
REMARK  status: ('A' for Active; 'I' for Inactive)
REMARK    1  A    between atoms: C_2  and  C_11
REMARK    2  A    between atoms: N_3  and  C_4
REMARK    3  A    between atoms: C_4  and  C_5
REMARK    4  A    between atoms: N_14  and  C_15
REMARK                            x       y       z     vdW  Elec       q    Type
REMARK                         _______ _______ _______ _____ _____    ______ ____
ROOT
ATOM      1  C   UNL     1       7.545   6.829  18.055  0.00  0.00    +0.000 A 
ATOM      2  N   UNL     1       7.100   7.486  16.937  0.00  0.00    +0.000 NA
ATOM      3  N   UNL     1       7.563   8.724  17.015  0.00  0.00    +0.000 NA
ATOM      4  N   UNL     1       8.276   8.777  18.164  0.00  0.00    +0.000 N 
ATOM      5  N   UNL     1       8.321   7.602  18.844  0.00  0.00    +0.000 NA
ENDROOT
BRANCH   4   6
ATOM      6  C   UNL     1       8.897   9.961  18.636  0.00  0.00    +0.000 A 
ATOM      7  C   UNL     1       9.309  10.055  19.974  0.00  0.00    +0.000 A 
ATOM      8  C   UNL     1       9.931  11.221  20.430  0.00  0.00    +0.000 A 
ATOM      9  C   UNL     1      10.129  12.290  19.557  0.00  0.00    +0.000 A 
ATOM     10 BR   UNL     1      10.955  13.871  20.183  0.00  0.00    +0.000 Br
ATOM     11  C   UNL     1       9.724  12.202  18.225  0.00  0.00    +0.000 A 
ATOM     12  C   UNL     1       9.112  11.036  17.762  0.00  0.00    +0.000 A 
ENDBRANCH   4   6
BRANCH   1  14
ATOM     13  O   UNL     1       7.929   4.494  18.301  0.00  0.00    +0.000 OA
ATOM     14  C   UNL     1       7.166   5.450  18.394  0.00  0.00    +0.000 C 
ATOM     15  N   UNL     1       5.846   5.328  18.794  0.00  0.00    +0.000 N 
ATOM     16  H   UNL     1       5.301   6.184  18.828  0.00  0.00    +0.000 HD
BRANCH  15  17
ATOM     17  C   UNL     1       5.210   4.054  19.036  0.00  0.00    +0.000 C 
BRANCH  17  18
ATOM     18  C   UNL     1       4.369   3.559  17.846  0.00  0.00    +0.000 C 
ATOM     19  C   UNL     1       3.578   2.277  18.155  0.00  0.00    +0.000 C 
ATOM     20  C   UNL     1       2.447   2.496  19.157  0.00  0.00    +0.000 C 
ATOM     21  C   UNL     1       1.530   3.658  18.775  0.00  0.00    +0.000 C 
ATOM     22  C   UNL     1       2.284   4.925  18.384  0.00  0.00    +0.000 C 
ATOM     23  C   UNL     1       3.396   4.651  17.372  0.00  0.00    +0.000 C 
ENDBRANCH  17  18
ENDBRANCH  15  17
ENDBRANCH   1  14
TORSDOF 4
ENDMDL
MODEL 3
REMARK VINA RESULT:      -7.7      0.664      1.323
REMARK  Name = 
REMARK  4 active torsions:
REMARK  status: ('A' for Active; 'I' for Inactive)
REMARK    1  A    between atoms: C_2  and  C_11
REMARK    2  A    between atoms: N_3  and  C_4
REMARK    3  A    between atoms: C_4  and  C_5
REMARK    4  A    between atoms: N_14  and  C_15
REMARK                            x       y       z     vdW  Elec       q    Type
REMARK                         _______ _______ _______ _____ _____    ______ ____
ROOT
ATOM      1  C   UNL     1       7.713   7.024  18.191  0.00  0.00    +0.000 A 
ATOM      2  N   UNL     1       7.232   7.694  17.096  0.00  0.00    +0.000 NA
ATOM      3  N   UNL     1       7.707   8.927  17.167  0.00  0.00    +0.000 NA
ATOM      4  N   UNL     1       8.463   8.965  18.289  0.00  0.00    +0.000 N 
ATOM      5  N   UNL     1       8.524   7.784  18.957  0.00  0.00    +0.000 NA
ENDROOT
BRANCH   4   6
ATOM      6  C   UNL     1       9.111  10.140  18.747  0.00  0.00    +0.000 A 
ATOM      7  C   UNL     1       9.609  11.074  17.826  0.00  0.00    +0.000 A 
ATOM      8  C   UNL     1      10.236  12.236  18.283  0.00  0.00    +0.000 A 
ATOM      9  C   UNL     1      10.374  12.458  19.653  0.00  0.00    +0.000 A 
ATOM     10 BR   UNL     1      11.239  14.023  20.266  0.00  0.00    +0.000 Br
ATOM     11  C   UNL     1       9.879  11.536  20.574  0.00  0.00    +0.000 A 
ATOM     12  C   UNL     1       9.242  10.378  20.122  0.00  0.00    +0.000 A 
ENDBRANCH   4   6
BRANCH   1  14
ATOM     13  O   UNL     1       8.136   4.797  18.912  0.00  0.00    +0.000 OA
ATOM     14  C   UNL     1       7.335   5.645  18.534  0.00  0.00    +0.000 C 
ATOM     15  N   UNL     1       5.989   5.385  18.351  0.00  0.00    +0.000 N 
ATOM     16  H   UNL     1       5.416   6.159  18.028  0.00  0.00    +0.000 HD
BRANCH  15  17
ATOM     17  C   UNL     1       5.415   4.065  18.483  0.00  0.00    +0.000 C 
BRANCH  17  18
ATOM     18  C   UNL     1       4.222   4.017  19.455  0.00  0.00    +0.000 C 
ATOM     19  C   UNL     1       3.320   5.259  19.369  0.00  0.00    +0.000 C 
ATOM     20  C   UNL     1       2.543   5.348  18.057  0.00  0.00    +0.000 C 
ATOM     21  C   UNL     1       1.782   4.063  17.730  0.00  0.00    +0.000 C 
ATOM     22  C   UNL     1       2.625   2.801  17.882  0.00  0.00    +0.000 C 
ATOM     23  C   UNL     1       3.372   2.759  19.214  0.00  0.00    +0.000 C 
ENDBRANCH  17  18
ENDBRANCH  15  17
ENDBRANCH   1  14
TORSDOF 4
ENDMDL
MODEL 4
REMARK VINA RESULT:      -7.6      0.735      1.705
REMARK  Name = 
REMARK  4 active torsions:
REMARK  status: ('A' for Active; 'I' for Inactive)
REMARK    1  A    between atoms: C_2  and  C_11
REMARK    2  A    between atoms: N_3  and  C_4
REMARK    3  A    between atoms: C_4  and  C_5
REMARK    4  A    between atoms: N_14  and  C_15
REMARK                            x       y       z     vdW  Elec       q    Type
REMARK                         _______ _______ _______ _____ _____    ______ ____
ROOT
ATOM      1  C   UNL     1       7.778   7.184  18.224  0.00  0.00    +0.000 A 
ATOM      2  N   UNL     1       7.262   7.860  17.149  0.00  0.00    +0.000 NA
ATOM      3  N   UNL     1       7.747   9.091  17.206  0.00  0.00    +0.000 NA
ATOM      4  N   UNL     1       8.543   9.121  18.300  0.00  0.00    +0.000 N 
ATOM      5  N   UNL     1       8.621   7.938  18.963  0.00  0.00    +0.000 NA
ENDROOT
BRANCH   4   6
ATOM      6  C   UNL     1       9.212  10.291  18.737  0.00  0.00    +0.000 A 
ATOM      7  C   UNL     1       9.362  10.546  20.108  0.00  0.00    +0.000 A 
ATOM      8  C   UNL     1      10.034  11.696  20.533  0.00  0.00    +0.000 A 
ATOM      9  C   UNL     1      10.542  12.591  19.593  0.00  0.00    +0.000 A 
ATOM     10 BR   UNL     1      11.434  14.154  20.172  0.00  0.00    +0.000 Br
ATOM     11  C   UNL     1      10.399  12.343  18.227  0.00  0.00    +0.000 A 
ATOM     12  C   UNL     1       9.738  11.190  17.798  0.00  0.00    +0.000 A 
ENDBRANCH   4   6
BRANCH   1  14
ATOM     13  O   UNL     1       8.125   5.054  19.225  0.00  0.00    +0.000 OA
ATOM     14  C   UNL     1       7.406   5.806  18.576  0.00  0.00    +0.000 C 
ATOM     15  N   UNL     1       6.175   5.426  18.071  0.00  0.00    +0.000 N 
ATOM     16  H   UNL     1       5.665   6.126  17.541  0.00  0.00    +0.000 HD
BRANCH  15  17
ATOM     17  C   UNL     1       5.667   4.076  18.164  0.00  0.00    +0.000 C 
BRANCH  17  18
ATOM     18  C   UNL     1       4.579   3.911  19.240  0.00  0.00    +0.000 C 
ATOM     19  C   UNL     1       3.444   4.941  19.117  0.00  0.00    +0.000 C 
ATOM     20  C   UNL     1       2.574   4.731  17.879  0.00  0.00    +0.000 C 
ATOM     21  C   UNL     1       2.063   3.297  17.748  0.00  0.00    +0.000 C 
ATOM     22  C   UNL     1       3.150   2.244  17.944  0.00  0.00    +0.000 C 
ATOM     23  C   UNL     1       3.982   2.495  19.201  0.00  0.00    +0.000 C 
ENDBRANCH  17  18
ENDBRANCH  15  17
ENDBRANCH   1  14
TORSDOF 4
ENDMDL
MODEL 5
REMARK VINA RESULT:      -7.4      1.416      1.771
REMARK  Name = 
REMARK  4 active torsions:
REMARK  status: ('A' for Active; 'I' for Inactive)
REMARK    1  A    between atoms: C_2  and  C_11
REMARK    2  A    between atoms: N_3  and  C_4
REMARK    3  A    between atoms: C_4  and  C_5
REMARK    4  A    between atoms: N_14  and  C_15
REMARK                            x       y       z     vdW  Elec       q    Type
REMARK                         _______ _______ _______ _____ _____    ______ ____
ROOT
ATOM      1  C   UNL     1       6.981   7.117  17.435  0.00  0.00    +0.000 A 
ATOM      2  N   UNL     1       7.830   6.569  18.360  0.00  0.00    +0.000 NA
ATOM      3  N   UNL     1       8.559   7.564  18.842  0.00  0.00    +0.000 NA
ATOM      4  N   UNL     1       8.127   8.677  18.206  0.00  0.00    +0.000 N 
ATOM      5  N   UNL     1       7.113   8.456  17.329  0.00  0.00    +0.000 NA
ENDROOT
BRANCH   4   6
ATOM      6  C   UNL     1       8.699   9.957  18.412  0.00  0.00    +0.000 A 
ATOM      7  C   UNL     1       8.367  11.022  17.561  0.00  0.00    +0.000 A 
ATOM      8  C   UNL     1       8.926  12.285  17.776  0.00  0.00    +0.000 A 
ATOM      9  C   UNL     1       9.821  12.479  18.827  0.00  0.00    +0.000 A 
ATOM     10 BR   UNL     1      10.588  14.185  19.102  0.00  0.00    +0.000 Br
ATOM     11  C   UNL     1      10.155  11.426  19.678  0.00  0.00    +0.000 A 
ATOM     12  C   UNL     1       9.590  10.164  19.474  0.00  0.00    +0.000 A 
ENDBRANCH   4   6
BRANCH   1  14
ATOM     13  O   UNL     1       5.770   6.626  15.447  0.00  0.00    +0.000 OA
ATOM     14  C   UNL     1       6.067   6.326  16.598  0.00  0.00    +0.000 C 
ATOM     15  N   UNL     1       5.543   5.224  17.251  0.00  0.00    +0.000 N 
ATOM     16  H   UNL     1       5.852   5.072  18.207  0.00  0.00    +0.000 HD
BRANCH  15  17
ATOM     17  C   UNL     1       4.515   4.385  16.681  0.00  0.00    +0.000 C 
BRANCH  17  18
ATOM     18  C   UNL     1       4.032   3.280  17.639  0.00  0.00    +0.000 C 
ATOM     19  C   UNL     1       4.221   3.640  19.122  0.00  0.00    +0.000 C 
ATOM     20  C   UNL     1       3.300   4.764  19.589  0.00  0.00    +0.000 C 
ATOM     21  C   UNL     1       1.832   4.513  19.242  0.00  0.00    +0.000 C 
ATOM     22  C   UNL     1       1.615   4.076  17.796  0.00  0.00    +0.000 C 
ATOM     23  C   UNL     1       2.555   2.943  17.385  0.00  0.00    +0.000 C 
ENDBRANCH  17  18
ENDBRANCH  15  17
ENDBRANCH   1  14
TORSDOF 4
ENDMDL
MODEL 6
REMARK VINA RESULT:      -7.3      1.323      1.931
REMARK  Name = 
REMARK  4 active torsions:
REMARK  status: ('A' for Active; 'I' for Inactive)
REMARK    1  A    between atoms: C_2  and  C_11
REMARK    2  A    between atoms: N_3  and  C_4
REMARK    3  A    between atoms: C_4  and  C_5
REMARK    4  A    between atoms: N_14  and  C_15
REMARK                            x       y       z     vdW  Elec       q    Type
REMARK                         _______ _______ _______ _____ _____    ______ ____
ROOT
ATOM      1  C   UNL     1       7.305   7.058  17.537  0.00  0.00    +0.000 A 
ATOM      2  N   UNL     1       8.057   6.661  18.612  0.00  0.00    +0.000 NA
ATOM      3  N   UNL     1       8.671   7.744  19.066  0.00  0.00    +0.000 NA
ATOM      4  N   UNL     1       8.268   8.757  18.264  0.00  0.00    +0.000 N 
ATOM      5  N   UNL     1       7.385   8.385  17.301  0.00  0.00    +0.000 NA
ENDROOT
BRANCH   4   6
ATOM      6  C   UNL     1       8.748  10.084  18.394  0.00  0.00    +0.000 A 
ATOM      7  C   UNL     1       9.724  10.389  19.354  0.00  0.00    +0.000 A 
ATOM      8  C   UNL     1      10.202  11.698  19.470  0.00  0.00    +0.000 A 
ATOM      9  C   UNL     1       9.698  12.697  18.639  0.00  0.00    +0.000 A 
ATOM     10 BR   UNL     1      10.334  14.469  18.811  0.00  0.00    +0.000 Br
ATOM     11  C   UNL     1       8.729  12.401  17.680  0.00  0.00    +0.000 A 
ATOM     12  C   UNL     1       8.256  11.093  17.554  0.00  0.00    +0.000 A 
ENDBRANCH   4   6
BRANCH   1  14
ATOM     13  O   UNL     1       6.801   5.923  15.509  0.00  0.00    +0.000 OA
ATOM     14  C   UNL     1       6.543   6.130  16.689  0.00  0.00    +0.000 C 
ATOM     15  N   UNL     1       5.478   5.538  17.346  0.00  0.00    +0.000 N 
ATOM     16  H   UNL     1       5.352   5.786  18.323  0.00  0.00    +0.000 HD
BRANCH  15  17
ATOM     17  C   UNL     1       4.504   4.706  16.678  0.00  0.00    +0.000 C 
BRANCH  17  18
ATOM     18  C   UNL     1       4.053   3.501  17.525  0.00  0.00    +0.000 C 
ATOM     19  C   UNL     1       4.249   3.715  19.035  0.00  0.00    +0.000 C 
ATOM     20  C   UNL     1       3.310   4.768  19.618  0.00  0.00    +0.000 C 
ATOM     21  C   UNL     1       1.844   4.522  19.259  0.00  0.00    +0.000 C 
ATOM     22  C   UNL     1       1.622   4.227  17.779  0.00  0.00    +0.000 C 
ATOM     23  C   UNL     1       2.580   3.160  17.250  0.00  0.00    +0.000 C 
ENDBRANCH  17  18
ENDBRANCH  15  17
ENDBRANCH   1  14
TORSDOF 4
ENDMDL
MODEL 7
REMARK VINA RESULT:      -7.2      7.099      8.665
REMARK  Name = 
REMARK  4 active torsions:
REMARK  status: ('A' for Active; 'I' for Inactive)
REMARK    1  A    between atoms: C_2  and  C_11
REMARK    2  A    between atoms: N_3  and  C_4
REMARK    3  A    between atoms: C_4  and  C_5
REMARK    4  A    between atoms: N_14  and  C_15
REMARK                            x       y       z     vdW  Elec       q    Type
REMARK                         _______ _______ _______ _____ _____    ______ ____
ROOT
ATOM      1  C   UNL     1       1.145   8.637  21.131  0.00  0.00    +0.000 A 
ATOM      2  N   UNL     1       1.562   8.913  22.407  0.00  0.00    +0.000 NA
ATOM      3  N   UNL     1       0.778   9.878  22.862  0.00  0.00    +0.000 NA
ATOM      4  N   UNL     1      -0.089  10.150  21.859  0.00  0.00    +0.000 N 
ATOM      5  N   UNL     1       0.080   9.377  20.755  0.00  0.00    +0.000 NA
ENDROOT
BRANCH   4   6
ATOM      6  C   UNL     1      -1.068  11.173  21.939  0.00  0.00    +0.000 A 
ATOM      7  C   UNL     1      -1.424  11.897  20.792  0.00  0.00    +0.000 A 
ATOM      8  C   UNL     1      -2.398  12.896  20.874  0.00  0.00    +0.000 A 
ATOM      9  C   UNL     1      -3.003  13.177  22.099  0.00  0.00    +0.000 A 
ATOM     10 BR   UNL     1      -4.308  14.541  22.209  0.00  0.00    +0.000 Br
ATOM     11  C   UNL     1      -2.656  12.459  23.243  0.00  0.00    +0.000 A 
ATOM     12  C   UNL     1      -1.691  11.453  23.163  0.00  0.00    +0.000 A 
ENDBRANCH   4   6
BRANCH   1  14
ATOM     13  O   UNL     1       2.194   7.964  19.104  0.00  0.00    +0.000 OA
ATOM     14  C   UNL     1       1.822   7.685  20.239  0.00  0.00    +0.000 C 
ATOM     15  N   UNL     1       1.967   6.425  20.793  0.00  0.00    +0.000 N 
ATOM     16  H   UNL     1       1.617   6.301  21.739  0.00  0.00    +0.000 HD
BRANCH  15  17
ATOM     17  C   UNL     1       2.470   5.291  20.053  0.00  0.00    +0.000 C 
BRANCH  17  18
ATOM     18  C   UNL     1       1.374   4.540  19.274  0.00  0.00    +0.000 C 
ATOM     19  C   UNL     1       1.651   4.460  17.764  0.00  0.00    +0.000 C 
ATOM     20  C   UNL     1       2.835   3.560  17.417  0.00  0.00    +0.000 C 
ATOM     21  C   UNL     1       2.735   2.175  18.055  0.00  0.00    +0.000 C 
ATOM     22  C   UNL     1       2.383   2.213  19.539  0.00  0.00    +0.000 C 
ATOM     23  C   UNL     1       1.186   3.119  19.829  0.00  0.00    +0.000 C 
ENDBRANCH  17  18
ENDBRANCH  15  17
ENDBRANCH   1  14
TORSDOF 4
ENDMDL
MODEL 8
REMARK VINA RESULT:      -7.2      6.336      7.923
REMARK  Name = 
REMARK  4 active torsions:
REMARK  status: ('A' for Active; 'I' for Inactive)
REMARK    1  A    between atoms: C_2  and  C_11
REMARK    2  A    between atoms: N_3  and  C_4
REMARK    3  A    between atoms: C_4  and  C_5
REMARK    4  A    between atoms: N_14  and  C_15
REMARK                            x       y       z     vdW  Elec       q    Type
REMARK                         _______ _______ _______ _____ _____    ______ ____
ROOT
ATOM      1  C   UNL     1       1.722   8.570  19.095  0.00  0.00    +0.000 A 
ATOM      2  N   UNL     1       1.423   9.454  18.092  0.00  0.00    +0.000 NA
ATOM      3  N   UNL     1       0.602  10.354  18.613  0.00  0.00    +0.000 NA
ATOM      4  N   UNL     1       0.438   9.996  19.907  0.00  0.00    +0.000 N 
ATOM      5  N   UNL     1       1.145   8.894  20.271  0.00  0.00    +0.000 NA
ENDROOT
BRANCH   4   6
ATOM      6  C   UNL     1      -0.419  10.688  20.799  0.00  0.00    +0.000 A 
ATOM      7  C   UNL     1      -0.433  10.356  22.162  0.00  0.00    +0.000 A 
ATOM      8  C   UNL     1      -1.272  11.050  23.039  0.00  0.00    +0.000 A 
ATOM      9  C   UNL     1      -2.099  12.062  22.553  0.00  0.00    +0.000 A 
ATOM     10 BR   UNL     1      -3.245  12.986  23.740  0.00  0.00    +0.000 Br
ATOM     11  C   UNL     1      -2.088  12.399  21.200  0.00  0.00    +0.000 A 
ATOM     12  C   UNL     1      -1.244  11.716  20.322  0.00  0.00    +0.000 A 
ENDBRANCH   4   6
BRANCH   1  14
ATOM     13  O   UNL     1       3.177   7.132  17.880  0.00  0.00    +0.000 OA
ATOM     14  C   UNL     1       2.533   7.359  18.899  0.00  0.00    +0.000 C 
ATOM     15  N   UNL     1       2.469   6.479  19.965  0.00  0.00    +0.000 N 
ATOM     16  H   UNL     1       1.900   6.765  20.757  0.00  0.00    +0.000 HD
BRANCH  15  17
ATOM     17  C   UNL     1       3.065   5.163  19.938  0.00  0.00    +0.000 C 
BRANCH  17  18
ATOM     18  C   UNL     1       2.028   4.030  19.822  0.00  0.00    +0.000 C 
ATOM     19  C   UNL     1       1.462   3.871  18.401  0.00  0.00    +0.000 C 
ATOM     20  C   UNL     1       2.489   3.343  17.402  0.00  0.00    +0.000 C 
ATOM     21  C   UNL     1       3.192   2.075  17.885  0.00  0.00    +0.000 C 
ATOM     22  C   UNL     1       3.698   2.169  19.322  0.00  0.00    +0.000 C 
ATOM     23  C   UNL     1       2.628   2.692  20.280  0.00  0.00    +0.000 C 
ENDBRANCH  17  18
ENDBRANCH  15  17
ENDBRANCH   1  14
TORSDOF 4
ENDMDL
MODEL 9
REMARK VINA RESULT:      -7.2      6.326      7.850
REMARK  Name = 
REMARK  4 active torsions:
REMARK  status: ('A' for Active; 'I' for Inactive)
REMARK    1  A    between atoms: C_2  and  C_11
REMARK    2  A    between atoms: N_3  and  C_4
REMARK    3  A    between atoms: C_4  and  C_5
REMARK    4  A    between atoms: N_14  and  C_15
REMARK                            x       y       z     vdW  Elec       q    Type
REMARK                         _______ _______ _______ _____ _____    ______ ____
ROOT
ATOM      1  C   UNL     1       1.755   8.589  19.087  0.00  0.00    +0.000 A 
ATOM      2  N   UNL     1       1.513   9.508  18.100  0.00  0.00    +0.000 NA
ATOM      3  N   UNL     1       0.700  10.416  18.618  0.00  0.00    +0.000 NA
ATOM      4  N   UNL     1       0.483  10.027  19.896  0.00  0.00    +0.000 N 
ATOM      5  N   UNL     1       1.148   8.897  20.252  0.00  0.00    +0.000 NA
ENDROOT
BRANCH   4   6
ATOM      6  C   UNL     1      -0.384  10.718  20.779  0.00  0.00    +0.000 A 
ATOM      7  C   UNL     1      -1.231  11.723  20.290  0.00  0.00    +0.000 A 
ATOM      8  C   UNL     1      -2.093  12.393  21.164  0.00  0.00    +0.000 A 
ATOM      9  C   UNL     1      -2.098  12.068  22.519  0.00  0.00    +0.000 A 
ATOM     10 BR   UNL     1      -3.252  12.989  23.700  0.00  0.00    +0.000 Br
ATOM     11  C   UNL     1      -1.260  11.068  23.012  0.00  0.00    +0.000 A 
ATOM     12  C   UNL     1      -0.405  10.388  22.142  0.00  0.00    +0.000 A 
ENDBRANCH   4   6
BRANCH   1  14
ATOM     13  O   UNL     1       3.167   7.121  17.857  0.00  0.00    +0.000 OA
ATOM     14  C   UNL     1       2.540   7.362  18.883  0.00  0.00    +0.000 C 
ATOM     15  N   UNL     1       2.472   6.485  19.951  0.00  0.00    +0.000 N 
ATOM     16  H   UNL     1       1.918   6.783  20.749  0.00  0.00    +0.000 HD
BRANCH  15  17
ATOM     17  C   UNL     1       3.041   5.158  19.920  0.00  0.00    +0.000 C 
BRANCH  17  18
ATOM     18  C   UNL     1       1.984   4.048  19.773  0.00  0.00    +0.000 C 
ATOM     19  C   UNL     1       1.454   3.903  18.337  0.00  0.00    +0.000 C 
ATOM     20  C   UNL     1       2.496   3.355  17.364  0.00  0.00    +0.000 C 
ATOM     21  C   UNL     1       3.158   2.071  17.863  0.00  0.00    +0.000 C 
ATOM     22  C   UNL     1       3.626   2.152  19.314  0.00  0.00    +0.000 C 
ATOM     23  C   UNL     1       2.542   2.696  20.244  0.00  0.00    +0.000 C 
ENDBRANCH  17  18
ENDBRANCH  15  17
ENDBRANCH   1  14
TORSDOF 4
ENDMDL
