MODEL 1
REMARK VINA RESULT:      -7.1      0.000      0.000
REMARK  Name = 
REMARK  6 active torsions:
REMARK  status: ('A' for Active; 'I' for Inactive)
REMARK    1  A    between atoms: C_1  and  C_2
REMARK    2  A    between atoms: N_4  and  C_5
REMARK    3  A    between atoms: C_6  and  C_7
REMARK    4  A    between atoms: C_8  and  C_9
REMARK    5  A    between atoms: C_9  and  N_10
REMARK    6  A    between atoms: N_13  and  C_14
REMARK                            x       y       z     vdW  Elec       q    Type
REMARK                         _______ _______ _______ _____ _____    ______ ____
ROOT
ATOM      1  N   UNL     1       4.677   5.614  17.645  0.00  0.00    +0.000 N 
ATOM      2  C   UNL     1       5.539   5.004  16.759  0.00  0.00    +0.000 C 
ATOM      3  O   UNL     1       6.492   4.327  17.153  0.00  0.00    +0.000 OA
ATOM      4  N   UNL     1       5.242   5.289  15.443  0.00  0.00    +0.000 N 
ATOM      5  H   UNL     1       3.717   5.690  17.341  0.00  0.00    +0.000 HD
ATOM      6  H   UNL     1       4.664   6.106  15.292  0.00  0.00    +0.000 HD
ENDROOT
BRANCH   4   7
ATOM      7  C   UNL     1       5.983   4.812  14.328  0.00  0.00    +0.000 A 
ATOM      8  C   UNL     1       7.199   5.390  13.936  0.00  0.00    +0.000 A 
ATOM      9  C   UNL     1       7.856   4.975  12.779  0.00  0.00    +0.000 A 
ATOM     10  C   UNL     1       7.311   3.962  11.998  0.00  0.00    +0.000 A 
ATOM     11  C   UNL     1       6.124   3.354  12.402  0.00  0.00    +0.000 A 
ATOM     12 CL   UNL     1       5.439   2.114  11.420  0.00  0.00    +0.000 Cl
ATOM     13  C   UNL     1       5.467   3.757  13.572  0.00  0.00    +0.000 A 
ENDBRANCH   4   7
BRANCH   1  14
ATOM     14  C   UNL     1       4.910   5.406  19.073  0.00  0.00    +0.000 C 
BRANCH  14  22
ATOM     15  C   UNL     1       2.173   7.173  19.853  0.00  0.00    +0.000 C 
ATOM     16  C   UNL     1       2.491   5.741  20.098  0.00  0.00    +0.000 A 
ATOM     17  N   UNL     1       1.556   4.993  20.691  0.00  0.00    +0.000 NA
ATOM     18  N   UNL     1       2.084   3.767  20.741  0.00  0.00    +0.000 N 
ATOM     19  C   UNL     1       1.318   2.707  21.356  0.00  0.00    +0.000 C 
ATOM     20  C   UNL     1       3.331   3.687  20.182  0.00  0.00    +0.000 A 
ATOM     21  C   UNL     1       4.090   2.416  20.049  0.00  0.00    +0.000 C 
ATOM     22  C   UNL     1       3.664   4.979  19.783  0.00  0.00    +0.000 A 
ENDBRANCH  14  22
ENDBRANCH   1  14
TORSDOF 3
ENDMDL
MODEL 2
REMARK VINA RESULT:      -6.8      5.153      7.754
REMARK  Name = 
REMARK  6 active torsions:
REMARK  status: ('A' for Active; 'I' for Inactive)
REMARK    1  A    between atoms: C_1  and  C_2
REMARK    2  A    between atoms: N_4  and  C_5
REMARK    3  A    between atoms: C_6  and  C_7
REMARK    4  A    between atoms: C_8  and  C_9
REMARK    5  A    between atoms: C_9  and  N_10
REMARK    6  A    between atoms: N_13  and  C_14
REMARK                            x       y       z     vdW  Elec       q    Type
REMARK                         _______ _______ _______ _____ _____    ______ ____
ROOT
ATOM      1  N   UNL     1       2.700   7.392  18.638  0.00  0.00    +0.000 N 
ATOM      2  C   UNL     1       2.137   8.568  18.192  0.00  0.00    +0.000 C 
ATOM      3  O   UNL     1       2.465   9.066  17.112  0.00  0.00    +0.000 OA
ATOM      4  N   UNL     1       1.250   9.113  19.094  0.00  0.00    +0.000 N 
ATOM      5  H   UNL     1       2.095   6.796  19.185  0.00  0.00    +0.000 HD
ATOM      6  H   UNL     1       1.340   8.785  20.048  0.00  0.00    +0.000 HD
ENDROOT
BRANCH   4   7
ATOM      7  C   UNL     1       0.549  10.334  18.900  0.00  0.00    +0.000 A 
ATOM      8  C   UNL     1       1.106  11.578  19.230  0.00  0.00    +0.000 A 
ATOM      9  C   UNL     1       0.362  12.752  19.128  0.00  0.00    +0.000 A 
ATOM     10  C   UNL     1      -0.953  12.703  18.680  0.00  0.00    +0.000 A 
ATOM     11  C   UNL     1      -1.502  11.475  18.311  0.00  0.00    +0.000 A 
ATOM     12 CL   UNL     1      -3.139  11.415  17.778  0.00  0.00    +0.000 Cl
ATOM     13  C   UNL     1      -0.754  10.295  18.398  0.00  0.00    +0.000 A 
ENDBRANCH   4   7
BRANCH   1  14
ATOM     14  C   UNL     1       3.678   6.734  17.774  0.00  0.00    +0.000 C 
BRANCH  14  22
ATOM     15  C   UNL     1       6.391   5.483  19.289  0.00  0.00    +0.000 C 
ATOM     16  C   UNL     1       5.125   4.815  18.885  0.00  0.00    +0.000 A 
ATOM     17  N   UNL     1       4.989   3.518  19.181  0.00  0.00    +0.000 NA
ATOM     18  N   UNL     1       3.764   3.199  18.753  0.00  0.00    +0.000 N 
ATOM     19  C   UNL     1       3.308   1.838  18.908  0.00  0.00    +0.000 C 
ATOM     20  C   UNL     1       3.088   4.255  18.201  0.00  0.00    +0.000 A 
ATOM     21  C   UNL     1       1.683   4.169  17.724  0.00  0.00    +0.000 C 
ATOM     22  C   UNL     1       3.965   5.336  18.223  0.00  0.00    +0.000 A 
ENDBRANCH  14  22
ENDBRANCH   1  14
TORSDOF 3
ENDMDL
MODEL 3
REMARK VINA RESULT:      -6.8      5.255      7.854
REMARK  Name = 
REMARK  6 active torsions:
REMARK  status: ('A' for Active; 'I' for Inactive)
REMARK    1  A    between atoms: C_1  and  C_2
REMARK    2  A    between atoms: N_4  and  C_5
REMARK    3  A    between atoms: C_6  and  C_7
REMARK    4  A    between atoms: C_8  and  C_9
REMARK    5  A    between atoms: C_9  and  N_10
REMARK    6  A    between atoms: N_13  and  C_14
REMARK                            x       y       z     vdW  Elec       q    Type
REMARK                         _______ _______ _______ _____ _____    ______ ____
ROOT
ATOM      1  N   UNL     1       2.752   7.408  18.688  0.00  0.00    +0.000 N 
ATOM      2  C   UNL     1       2.133   8.551  18.228  0.00  0.00    +0.000 C 
ATOM      3  O   UNL     1       2.392   9.017  17.116  0.00  0.00    +0.000 OA
ATOM      4  N   UNL     1       1.277   9.105  19.155  0.00  0.00    +0.000 N 
ATOM      5  H   UNL     1       2.193   6.818  19.287  0.00  0.00    +0.000 HD
ATOM      6  H   UNL     1       1.424   8.816  20.114  0.00  0.00    +0.000 HD
ENDROOT
BRANCH   4   7
ATOM      7  C   UNL     1       0.531  10.298  18.952  0.00  0.00    +0.000 A 
ATOM      8  C   UNL     1      -0.803  10.282  18.520  0.00  0.00    +0.000 A 
ATOM      9  C   UNL     1      -1.482  11.464  18.228  0.00  0.00    +0.000 A 
ATOM     10  C   UNL     1      -0.839  12.687  18.376  0.00  0.00    +0.000 A 
ATOM     11  C   UNL     1       0.474  12.715  18.845  0.00  0.00    +0.000 A 
ATOM     12 CL   UNL     1       1.275  14.232  19.006  0.00  0.00    +0.000 Cl
ATOM     13  C   UNL     1       1.156  11.532  19.154  0.00  0.00    +0.000 A 
ENDBRANCH   4   7
BRANCH   1  14
ATOM     14  C   UNL     1       3.705   6.745  17.800  0.00  0.00    +0.000 C 
BRANCH  14  22
ATOM     15  C   UNL     1       6.419   5.466  19.287  0.00  0.00    +0.000 C 
ATOM     16  C   UNL     1       5.147   4.808  18.885  0.00  0.00    +0.000 A 
ATOM     17  N   UNL     1       5.006   3.510  19.169  0.00  0.00    +0.000 NA
ATOM     18  N   UNL     1       3.776   3.202  18.745  0.00  0.00    +0.000 N 
ATOM     19  C   UNL     1       3.313   1.841  18.890  0.00  0.00    +0.000 C 
ATOM     20  C   UNL     1       3.103   4.266  18.207  0.00  0.00    +0.000 A 
ATOM     21  C   UNL     1       1.695   4.192  17.737  0.00  0.00    +0.000 C 
ATOM     22  C   UNL     1       3.987   5.342  18.234  0.00  0.00    +0.000 A 
ENDBRANCH  14  22
ENDBRANCH   1  14
TORSDOF 3
ENDMDL
MODEL 4
REMARK VINA RESULT:      -6.8      1.030      1.030
REMARK  Name = 
REMARK  6 active torsions:
REMARK  status: ('A' for Active; 'I' for Inactive)
REMARK    1  A    between atoms: C_1  and  C_2
REMARK    2  A    between atoms: N_4  and  C_5
REMARK    3  A    between atoms: C_6  and  C_7
REMARK    4  A    between atoms: C_8  and  C_9
REMARK    5  A    between atoms: C_9  and  N_10
REMARK    6  A    between atoms: N_13  and  C_14
REMARK                            x       y       z     vdW  Elec       q    Type
REMARK                         _______ _______ _______ _____ _____    ______ ____
ROOT
ATOM      1  N   UNL     1       5.980   4.362  18.177  0.00  0.00    +0.000 N 
ATOM      2  C   UNL     1       6.002   4.792  16.868  0.00  0.00    +0.000 C 
ATOM      3  O   UNL     1       5.520   5.880  16.541  0.00  0.00    +0.000 OA
ATOM      4  N   UNL     1       6.552   3.865  16.009  0.00  0.00    +0.000 N 
ATOM      5  H   UNL     1       6.767   3.799  18.466  0.00  0.00    +0.000 HD
ATOM      6  H   UNL     1       6.587   2.915  16.356  0.00  0.00    +0.000 HD
ENDROOT
BRANCH   4   7
ATOM      7  C   UNL     1       6.676   4.040  14.604  0.00  0.00    +0.000 A 
ATOM      8  C   UNL     1       7.636   4.890  14.037  0.00  0.00    +0.000 A 
ATOM      9  C   UNL     1       7.671   5.127  12.664  0.00  0.00    +0.000 A 
ATOM     10  C   UNL     1       6.750   4.504  11.830  0.00  0.00    +0.000 A 
ATOM     11  C   UNL     1       5.817   3.625  12.380  0.00  0.00    +0.000 A 
ATOM     12 CL   UNL     1       4.662   2.873  11.346  0.00  0.00    +0.000 Cl
ATOM     13  C   UNL     1       5.787   3.373  13.757  0.00  0.00    +0.000 A 
ENDBRANCH   4   7
BRANCH   1  14
ATOM     14  C   UNL     1       5.393   5.253  19.176  0.00  0.00    +0.000 C 
BRANCH  14  22
ATOM     15  C   UNL     1       2.608   7.055  18.711  0.00  0.00    +0.000 C 
ATOM     16  C   UNL     1       2.781   5.678  19.246  0.00  0.00    +0.000 A 
ATOM     17  N   UNL     1       1.677   5.001  19.578  0.00  0.00    +0.000 NA
ATOM     18  N   UNL     1       2.119   3.804  19.975  0.00  0.00    +0.000 N 
ATOM     19  C   UNL     1       1.159   2.825  20.427  0.00  0.00    +0.000 C 
ATOM     20  C   UNL     1       3.480   3.673  19.897  0.00  0.00    +0.000 A 
ATOM     21  C   UNL     1       4.201   2.412  20.211  0.00  0.00    +0.000 C 
ATOM     22  C   UNL     1       3.967   4.903  19.464  0.00  0.00    +0.000 A 
ENDBRANCH  14  22
ENDBRANCH   1  14
TORSDOF 3
ENDMDL
MODEL 5
REMARK VINA RESULT:      -6.7      4.683      7.515
REMARK  Name = 
REMARK  6 active torsions:
REMARK  status: ('A' for Active; 'I' for Inactive)
REMARK    1  A    between atoms: C_1  and  C_2
REMARK    2  A    between atoms: N_4  and  C_5
REMARK    3  A    between atoms: C_6  and  C_7
REMARK    4  A    between atoms: C_8  and  C_9
REMARK    5  A    between atoms: C_9  and  N_10
REMARK    6  A    between atoms: N_13  and  C_14
REMARK                            x       y       z     vdW  Elec       q    Type
REMARK                         _______ _______ _______ _____ _____    ______ ____
ROOT
ATOM      1  N   UNL     1       3.146   7.353  18.004  0.00  0.00    +0.000 N 
ATOM      2  C   UNL     1       2.213   8.143  18.642  0.00  0.00    +0.000 C 
ATOM      3  O   UNL     1       1.880   7.926  19.810  0.00  0.00    +0.000 OA
ATOM      4  N   UNL     1       1.688   9.117  17.821  0.00  0.00    +0.000 N 
ATOM      5  H   UNL     1       3.731   7.824  17.329  0.00  0.00    +0.000 HD
ATOM      6  H   UNL     1       1.800   8.959  16.827  0.00  0.00    +0.000 HD
ENDROOT
BRANCH   4   7
ATOM      7  C   UNL     1       0.690  10.051  18.214  0.00  0.00    +0.000 A 
ATOM      8  C   UNL     1       0.980  11.159  19.022  0.00  0.00    +0.000 A 
ATOM      9  C   UNL     1      -0.031  12.003  19.480  0.00  0.00    +0.000 A 
ATOM     10  C   UNL     1      -1.352  11.757  19.125  0.00  0.00    +0.000 A 
ATOM     11  C   UNL     1      -1.645  10.682  18.288  0.00  0.00    +0.000 A 
ATOM     12 CL   UNL     1      -3.286  10.367  17.868  0.00  0.00    +0.000 Cl
ATOM     13  C   UNL     1      -0.631   9.840  17.813  0.00  0.00    +0.000 A 
ENDBRANCH   4   7
BRANCH   1  14
ATOM     14  C   UNL     1       3.755   6.266  18.770  0.00  0.00    +0.000 C 
BRANCH  14  22
ATOM     15  C   UNL     1       4.587   4.064  16.386  0.00  0.00    +0.000 C 
ATOM     16  C   UNL     1       3.521   3.999  17.421  0.00  0.00    +0.000 A 
ATOM     17  N   UNL     1       2.770   2.894  17.467  0.00  0.00    +0.000 NA
ATOM     18  N   UNL     1       1.944   3.087  18.499  0.00  0.00    +0.000 N 
ATOM     19  C   UNL     1       0.971   2.066  18.809  0.00  0.00    +0.000 C 
ATOM     20  C   UNL     1       2.143   4.281  19.140  0.00  0.00    +0.000 A 
ATOM     21  C   UNL     1       1.400   4.689  20.361  0.00  0.00    +0.000 C 
ATOM     22  C   UNL     1       3.145   4.941  18.434  0.00  0.00    +0.000 A 
ENDBRANCH  14  22
ENDBRANCH   1  14
TORSDOF 3
ENDMDL
MODEL 6
REMARK VINA RESULT:      -6.6      1.553      2.315
REMARK  Name = 
REMARK  6 active torsions:
REMARK  status: ('A' for Active; 'I' for Inactive)
REMARK    1  A    between atoms: C_1  and  C_2
REMARK    2  A    between atoms: N_4  and  C_5
REMARK    3  A    between atoms: C_6  and  C_7
REMARK    4  A    between atoms: C_8  and  C_9
REMARK    5  A    between atoms: C_9  and  N_10
REMARK    6  A    between atoms: N_13  and  C_14
REMARK                            x       y       z     vdW  Elec       q    Type
REMARK                         _______ _______ _______ _____ _____    ______ ____
ROOT
ATOM      1  N   UNL     1       6.080   4.358  18.254  0.00  0.00    +0.000 N 
ATOM      2  C   UNL     1       5.920   4.636  16.914  0.00  0.00    +0.000 C 
ATOM      3  O   UNL     1       4.921   5.226  16.496  0.00  0.00    +0.000 OA
ATOM      4  N   UNL     1       6.944   4.137  16.138  0.00  0.00    +0.000 N 
ATOM      5  H   UNL     1       7.031   4.369  18.593  0.00  0.00    +0.000 HD
ATOM      6  H   UNL     1       7.497   3.403  16.564  0.00  0.00    +0.000 HD
ENDROOT
BRANCH   4   7
ATOM      7  C   UNL     1       7.017   4.256  14.724  0.00  0.00    +0.000 A 
ATOM      8  C   UNL     1       7.884   5.160  14.093  0.00  0.00    +0.000 A 
ATOM      9  C   UNL     1       7.865   5.335  12.711  0.00  0.00    +0.000 A 
ATOM     10  C   UNL     1       6.982   4.596  11.931  0.00  0.00    +0.000 A 
ATOM     11  C   UNL     1       6.145   3.665  12.545  0.00  0.00    +0.000 A 
ATOM     12 CL   UNL     1       5.037   2.768  11.579  0.00  0.00    +0.000 Cl
ATOM     13  C   UNL     1       6.171   3.476  13.932  0.00  0.00    +0.000 A 
ENDBRANCH   4   7
BRANCH   1  14
ATOM     14  C   UNL     1       5.040   4.817  19.173  0.00  0.00    +0.000 C 
BRANCH  14  22
ATOM     15  C   UNL     1       4.872   1.803  20.625  0.00  0.00    +0.000 C 
ATOM     16  C   UNL     1       3.834   2.570  19.887  0.00  0.00    +0.000 A 
ATOM     17  N   UNL     1       2.617   2.025  19.787  0.00  0.00    +0.000 NA
ATOM     18  N   UNL     1       1.892   2.934  19.128  0.00  0.00    +0.000 N 
ATOM     19  C   UNL     1       0.509   2.637  18.834  0.00  0.00    +0.000 C 
ATOM     20  C   UNL     1       2.595   4.064  18.808  0.00  0.00    +0.000 A 
ATOM     21  C   UNL     1       1.988   5.247  18.143  0.00  0.00    +0.000 C 
ATOM     22  C   UNL     1       3.899   3.852  19.248  0.00  0.00    +0.000 A 
ENDBRANCH  14  22
ENDBRANCH   1  14
TORSDOF 3
ENDMDL
MODEL 7
REMARK VINA RESULT:      -6.6      6.323      7.997
REMARK  Name = 
REMARK  6 active torsions:
REMARK  status: ('A' for Active; 'I' for Inactive)
REMARK    1  A    between atoms: C_1  and  C_2
REMARK    2  A    between atoms: N_4  and  C_5
REMARK    3  A    between atoms: C_6  and  C_7
REMARK    4  A    between atoms: C_8  and  C_9
REMARK    5  A    between atoms: C_9  and  N_10
REMARK    6  A    between atoms: N_13  and  C_14
REMARK                            x       y       z     vdW  Elec       q    Type
REMARK                         _______ _______ _______ _____ _____    ______ ____
ROOT
ATOM      1  N   UNL     1       8.392   9.505  18.153  0.00  0.00    +0.000 N 
ATOM      2  C   UNL     1       7.958   8.197  18.134  0.00  0.00    +0.000 C 
ATOM      3  O   UNL     1       8.455   7.345  18.875  0.00  0.00    +0.000 OA
ATOM      4  N   UNL     1       6.986   7.971  17.184  0.00  0.00    +0.000 N 
ATOM      5  H   UNL     1       7.689  10.204  17.964  0.00  0.00    +0.000 HD
ATOM      6  H   UNL     1       6.927   8.661  16.445  0.00  0.00    +0.000 HD
ENDROOT
BRANCH   4   7
ATOM      7  C   UNL     1       6.381   6.709  16.933  0.00  0.00    +0.000 A 
ATOM      8  C   UNL     1       7.002   5.725  16.150  0.00  0.00    +0.000 A 
ATOM      9  C   UNL     1       6.347   4.537  15.831  0.00  0.00    +0.000 A 
ATOM     10  C   UNL     1       5.059   4.307  16.302  0.00  0.00    +0.000 A 
ATOM     11  C   UNL     1       4.450   5.263  17.114  0.00  0.00    +0.000 A 
ATOM     12 CL   UNL     1       2.845   4.985  17.677  0.00  0.00    +0.000 Cl
ATOM     13  C   UNL     1       5.109   6.451  17.450  0.00  0.00    +0.000 A 
ENDBRANCH   4   7
BRANCH   1  14
ATOM     14  C   UNL     1       9.444   9.859  19.105  0.00  0.00    +0.000 C 
BRANCH  14  22
ATOM     15  C   UNL     1       8.592  11.490  21.904  0.00  0.00    +0.000 C 
ATOM     16  C   UNL     1       9.104  12.012  20.609  0.00  0.00    +0.000 A 
ATOM     17  N   UNL     1       9.301  13.330  20.508  0.00  0.00    +0.000 NA
ATOM     18  N   UNL     1       9.797  13.506  19.280  0.00  0.00    +0.000 N 
ATOM     19  C   UNL     1      10.104  14.848  18.842  0.00  0.00    +0.000 C 
ATOM     20  C   UNL     1       9.945  12.339  18.580  0.00  0.00    +0.000 A 
ATOM     21  C   UNL     1      10.547  12.268  17.223  0.00  0.00    +0.000 C 
ATOM     22  C   UNL     1       9.456  11.326  19.401  0.00  0.00    +0.000 A 
ENDBRANCH  14  22
ENDBRANCH   1  14
TORSDOF 3
ENDMDL
MODEL 8
REMARK VINA RESULT:      -6.6      4.980      7.743
REMARK  Name = 
REMARK  6 active torsions:
REMARK  status: ('A' for Active; 'I' for Inactive)
REMARK    1  A    between atoms: C_1  and  C_2
REMARK    2  A    between atoms: N_4  and  C_5
REMARK    3  A    between atoms: C_6  and  C_7
REMARK    4  A    between atoms: C_8  and  C_9
REMARK    5  A    between atoms: C_9  and  N_10
REMARK    6  A    between atoms: N_13  and  C_14
REMARK                            x       y       z     vdW  Elec       q    Type
REMARK                         _______ _______ _______ _____ _____    ______ ____
ROOT
ATOM      1  N   UNL     1       3.031   7.348  18.033  0.00  0.00    +0.000 N 
ATOM      2  C   UNL     1       2.155   8.202  18.669  0.00  0.00    +0.000 C 
ATOM      3  O   UNL     1       1.859   8.049  19.857  0.00  0.00    +0.000 OA
ATOM      4  N   UNL     1       1.639   9.163  17.827  0.00  0.00    +0.000 N 
ATOM      5  H   UNL     1       3.607   7.766  17.317  0.00  0.00    +0.000 HD
ATOM      6  H   UNL     1       1.706   8.960  16.838  0.00  0.00    +0.000 HD
ENDROOT
BRANCH   4   7
ATOM      7  C   UNL     1       0.696  10.153  18.215  0.00  0.00    +0.000 A 
ATOM      8  C   UNL     1      -0.681  10.001  17.998  0.00  0.00    +0.000 A 
ATOM      9  C   UNL     1      -1.577  11.028  18.291  0.00  0.00    +0.000 A 
ATOM     10  C   UNL     1      -1.109  12.224  18.821  0.00  0.00    +0.000 A 
ATOM     11  C   UNL     1       0.253  12.369  19.080  0.00  0.00    +0.000 A 
ATOM     12 CL   UNL     1       0.832  13.862  19.716  0.00  0.00    +0.000 Cl
ATOM     13  C   UNL     1       1.155  11.335  18.800  0.00  0.00    +0.000 A 
ENDBRANCH   4   7
BRANCH   1  14
ATOM     14  C   UNL     1       3.623   6.269  18.821  0.00  0.00    +0.000 C 
BRANCH  14  22
ATOM     15  C   UNL     1       4.505   4.067  16.457  0.00  0.00    +0.000 C 
ATOM     16  C   UNL     1       3.424   3.998  17.475  0.00  0.00    +0.000 A 
ATOM     17  N   UNL     1       2.681   2.888  17.513  0.00  0.00    +0.000 NA
ATOM     18  N   UNL     1       1.837   3.078  18.532  0.00  0.00    +0.000 N 
ATOM     19  C   UNL     1       0.867   2.051  18.831  0.00  0.00    +0.000 C 
ATOM     20  C   UNL     1       2.019   4.275  19.173  0.00  0.00    +0.000 A 
ATOM     21  C   UNL     1       1.256   4.682  20.381  0.00  0.00    +0.000 C 
ATOM     22  C   UNL     1       3.028   4.940  18.481  0.00  0.00    +0.000 A 
ENDBRANCH  14  22
ENDBRANCH   1  14
TORSDOF 3
ENDMDL
MODEL 9
REMARK VINA RESULT:      -6.5      5.094      8.793
REMARK  Name = 
REMARK  6 active torsions:
REMARK  status: ('A' for Active; 'I' for Inactive)
REMARK    1  A    between atoms: C_1  and  C_2
REMARK    2  A    between atoms: N_4  and  C_5
REMARK    3  A    between atoms: C_6  and  C_7
REMARK    4  A    between atoms: C_8  and  C_9
REMARK    5  A    between atoms: C_9  and  N_10
REMARK    6  A    between atoms: N_13  and  C_14
REMARK                            x       y       z     vdW  Elec       q    Type
REMARK                         _______ _______ _______ _____ _____    ______ ____
ROOT
ATOM      1  N   UNL     1       2.472   7.015  20.378  0.00  0.00    +0.000 N 
ATOM      2  C   UNL     1       1.661   8.130  20.400  0.00  0.00    +0.000 C 
ATOM      3  O   UNL     1       1.268   8.659  19.357  0.00  0.00    +0.000 OA
ATOM      4  N   UNL     1       1.412   8.584  21.677  0.00  0.00    +0.000 N 
ATOM      5  H   UNL     1       2.340   6.362  21.137  0.00  0.00    +0.000 HD
ATOM      6  H   UNL     1       2.058   8.265  22.388  0.00  0.00    +0.000 HD
ENDROOT
BRANCH   4   7
ATOM      7  C   UNL     1       0.629   9.728  21.988  0.00  0.00    +0.000 A 
ATOM      8  C   UNL     1      -0.386   9.701  22.956  0.00  0.00    +0.000 A 
ATOM      9  C   UNL     1      -1.210  10.804  23.171  0.00  0.00    +0.000 A 
ATOM     10  C   UNL     1      -1.023  11.963  22.426  0.00  0.00    +0.000 A 
ATOM     11  C   UNL     1       0.009  12.014  21.491  0.00  0.00    +0.000 A 
ATOM     12 CL   UNL     1       0.223  13.444  20.554  0.00  0.00    +0.000 Cl
ATOM     13  C   UNL     1       0.849  10.913  21.281  0.00  0.00    +0.000 A 
ENDBRANCH   4   7
BRANCH   1  14
ATOM     14  C   UNL     1       2.827   6.458  19.074  0.00  0.00    +0.000 C 
BRANCH  14  22
ATOM     15  C   UNL     1       6.038   5.945  18.268  0.00  0.00    +0.000 C 
ATOM     16  C   UNL     1       5.042   5.021  18.871  0.00  0.00    +0.000 A 
ATOM     17  N   UNL     1       5.454   3.789  19.188  0.00  0.00    +0.000 NA
ATOM     18  N   UNL     1       4.387   3.206  19.742  0.00  0.00    +0.000 N 
ATOM     19  C   UNL     1       4.497   1.835  20.183  0.00  0.00    +0.000 C 
ATOM     20  C   UNL     1       3.293   4.026  19.812  0.00  0.00    +0.000 A 
ATOM     21  C   UNL     1       2.012   3.632  20.454  0.00  0.00    +0.000 C 
ATOM     22  C   UNL     1       3.662   5.224  19.205  0.00  0.00    +0.000 A 
ENDBRANCH  14  22
ENDBRANCH   1  14
TORSDOF 3
ENDMDL
