MODEL 1
REMARK VINA RESULT:      -6.5      0.000      0.000
REMARK  Name = 
REMARK  5 active torsions:
REMARK  status: ('A' for Active; 'I' for Inactive)
REMARK    1  A    between atoms: C_2  and  O_3
REMARK    2  A    between atoms: C_2  and  C_4
REMARK    3  A    between atoms: N_10  and  C_11
REMARK    4  A    between atoms: C_11  and  C_12
REMARK    5  A    between atoms: C_17  and  C_18
REMARK                            x       y       z     vdW  Elec       q    Type
REMARK                         _______ _______ _______ _____ _____    ______ ____
ROOT
ATOM      1  C   UNL     1      -5.491  13.605  22.757  0.00  0.00    +0.000 A 
ATOM      2  C   UNL     1      -5.021  13.110  23.972  0.00  0.00    +0.000 A 
ATOM      3  C   UNL     1      -3.787  12.482  24.007  0.00  0.00    +0.000 A 
ATOM      4  C   UNL     1      -3.038  12.328  22.832  0.00  0.00    +0.000 A 
ATOM      5  C   UNL     1      -3.547  12.692  21.561  0.00  0.00    +0.000 A 
ATOM      6  C   UNL     1      -4.777  13.371  21.568  0.00  0.00    +0.000 A 
ATOM      7  N   UNL     1      -2.881  12.346  20.373  0.00  0.00    +0.000 N 
ATOM      8  C   UNL     1      -1.531  12.915  20.220  0.00  0.00    +0.000 C 
ATOM      9  C   UNL     1      -0.444  12.251  21.074  0.00  0.00    +0.000 C 
ATOM     10  C   UNL     1      -0.729  12.453  22.568  0.00  0.00    +0.000 C 
ATOM     11  O   UNL     1      -1.845  11.691  23.028  0.00  0.00    +0.000 OA
ENDROOT
BRANCH   9  12
ATOM     12  C   UNL     1      -0.108  10.780  20.793  0.00  0.00    +0.000 A 
ATOM     13  C   UNL     1      -0.544   9.780  21.685  0.00  0.00    +0.000 A 
ATOM     14  C   UNL     1       0.004   8.499  21.677  0.00  0.00    +0.000 A 
ATOM     15  C   UNL     1       0.988   8.183  20.752  0.00  0.00    +0.000 A 
ATOM     16 CL   UNL     1       1.778   6.658  20.833  0.00  0.00    +0.000 Cl
ATOM     17  C   UNL     1       1.360   9.109  19.782  0.00  0.00    +0.000 A 
ATOM     18  C   UNL     1       0.800  10.393  19.789  0.00  0.00    +0.000 A 
ATOM     19 CL   UNL     1       1.301  11.466  18.530  0.00  0.00    +0.000 Cl
ENDBRANCH   9  12
BRANCH   1  21
ATOM     20  O   UNL     1      -7.029  15.152  21.806  0.00  0.00    +0.000 OA
ATOM     21  C   UNL     1      -6.781  14.338  22.676  0.00  0.00    +0.000 C 
BRANCH  21  22
ATOM     22  O   UNL     1      -7.609  14.064  23.706  0.00  0.00    +0.000 OA
ATOM     23  H   UNL     1      -7.848  13.125  23.808  0.00  0.00    +0.000 HD
ENDBRANCH  21  22
ENDBRANCH   1  21
BRANCH   7  24
ATOM     24  C   UNL     1      -3.634  12.153  19.119  0.00  0.00    +0.000 C 
BRANCH  24  25
ATOM     25  C   UNL     1      -2.794  11.534  17.997  0.00  0.00    +0.000 C 
ATOM     26  C   UNL     1      -2.418  10.033  17.995  0.00  0.00    +0.000 C 
ATOM     27  C   UNL     1      -2.971   9.909  16.569  0.00  0.00    +0.000 C 
ATOM     28  C   UNL     1      -3.631  11.282  16.721  0.00  0.00    +0.000 C 
ENDBRANCH  24  25
ENDBRANCH   7  24
TORSDOF 5
ENDMDL
MODEL 2
REMARK VINA RESULT:      -6.4      3.848      6.607
REMARK  Name = 
REMARK  5 active torsions:
REMARK  status: ('A' for Active; 'I' for Inactive)
REMARK    1  A    between atoms: C_2  and  O_3
REMARK    2  A    between atoms: C_2  and  C_4
REMARK    3  A    between atoms: N_10  and  C_11
REMARK    4  A    between atoms: C_11  and  C_12
REMARK    5  A    between atoms: C_17  and  C_18
REMARK                            x       y       z     vdW  Elec       q    Type
REMARK                         _______ _______ _______ _____ _____    ______ ____
ROOT
ATOM      1  C   UNL     1       2.733  14.243  20.602  0.00  0.00    +0.000 A 
ATOM      2  C   UNL     1       2.178  15.230  19.791  0.00  0.00    +0.000 A 
ATOM      3  C   UNL     1       0.918  15.024  19.253  0.00  0.00    +0.000 A 
ATOM      4  C   UNL     1       0.229  13.829  19.504  0.00  0.00    +0.000 A 
ATOM      5  C   UNL     1       0.821  12.750  20.205  0.00  0.00    +0.000 A 
ATOM      6  C   UNL     1       2.077  13.012  20.779  0.00  0.00    +0.000 A 
ATOM      7  N   UNL     1       0.207  11.488  20.273  0.00  0.00    +0.000 N 
ATOM      8  C   UNL     1      -1.107  11.463  20.937  0.00  0.00    +0.000 C 
ATOM      9  C   UNL     1      -2.267  12.030  20.109  0.00  0.00    +0.000 C 
ATOM     10  C   UNL     1      -2.055  13.526  19.834  0.00  0.00    +0.000 C 
ATOM     11  O   UNL     1      -0.999  13.775  18.906  0.00  0.00    +0.000 OA
ENDROOT
BRANCH   9  12
ATOM     12  C   UNL     1      -2.649  11.302  18.813  0.00  0.00    +0.000 A 
ATOM     13  C   UNL     1      -1.691  10.510  18.148  0.00  0.00    +0.000 A 
ATOM     14  C   UNL     1      -1.860  10.113  16.823  0.00  0.00    +0.000 A 
ATOM     15  C   UNL     1      -3.011  10.481  16.141  0.00  0.00    +0.000 A 
ATOM     16 CL   UNL     1      -3.159  10.128  14.465  0.00  0.00    +0.000 Cl
ATOM     17  C   UNL     1      -4.027  11.163  16.802  0.00  0.00    +0.000 A 
ATOM     18  C   UNL     1      -3.857  11.554  18.136  0.00  0.00    +0.000 A 
ATOM     19 CL   UNL     1      -5.184  12.373  18.882  0.00  0.00    +0.000 Cl
ENDBRANCH   9  12
BRANCH   1  21
ATOM     20  O   UNL     1       5.063  14.731  20.632  0.00  0.00    +0.000 OA
ATOM     21  C   UNL     1       4.056  14.439  21.251  0.00  0.00    +0.000 C 
BRANCH  21  22
ATOM     22  O   UNL     1       4.037  14.186  22.576  0.00  0.00    +0.000 OA
ATOM     23  H   UNL     1       4.857  14.406  23.053  0.00  0.00    +0.000 HD
ENDBRANCH  21  22
ENDBRANCH   1  21
BRANCH   7  24
ATOM     24  C   UNL     1       1.018  10.266  20.425  0.00  0.00    +0.000 C 
BRANCH  24  25
ATOM     25  C   UNL     1       1.054   9.400  19.162  0.00  0.00    +0.000 C 
ATOM     26  C   UNL     1       1.946   9.763  17.951  0.00  0.00    +0.000 C 
ATOM     27  C   UNL     1       2.537   8.347  17.978  0.00  0.00    +0.000 C 
ATOM     28  C   UNL     1       1.910   8.127  19.357  0.00  0.00    +0.000 C 
ENDBRANCH  24  25
ENDBRANCH   7  24
TORSDOF 5
ENDMDL
MODEL 3
REMARK VINA RESULT:      -6.1      2.565      5.124
REMARK  Name = 
REMARK  5 active torsions:
REMARK  status: ('A' for Active; 'I' for Inactive)
REMARK    1  A    between atoms: C_2  and  O_3
REMARK    2  A    between atoms: C_2  and  C_4
REMARK    3  A    between atoms: N_10  and  C_11
REMARK    4  A    between atoms: C_11  and  C_12
REMARK    5  A    between atoms: C_17  and  C_18
REMARK                            x       y       z     vdW  Elec       q    Type
REMARK                         _______ _______ _______ _____ _____    ______ ____
ROOT
ATOM      1  C   UNL     1      -5.503  11.826  18.328  0.00  0.00    +0.000 A 
ATOM      2  C   UNL     1      -4.982  11.428  17.098  0.00  0.00    +0.000 A 
ATOM      3  C   UNL     1      -3.612  11.264  16.973  0.00  0.00    +0.000 A 
ATOM      4  C   UNL     1      -2.767  11.518  18.062  0.00  0.00    +0.000 A 
ATOM      5  C   UNL     1      -3.248  12.058  19.280  0.00  0.00    +0.000 A 
ATOM      6  C   UNL     1      -4.645  12.163  19.390  0.00  0.00    +0.000 A 
ATOM      7  N   UNL     1      -2.375  12.502  20.287  0.00  0.00    +0.000 N 
ATOM      8  C   UNL     1      -1.495  11.469  20.858  0.00  0.00    +0.000 C 
ATOM      9  C   UNL     1      -0.321  11.047  19.966  0.00  0.00    +0.000 C 
ATOM     10  C   UNL     1      -0.830  10.384  18.678  0.00  0.00    +0.000 C 
ATOM     11  O   UNL     1      -1.445  11.311  17.783  0.00  0.00    +0.000 OA
ENDROOT
BRANCH   9  12
ATOM     12  C   UNL     1       0.745  12.100  19.635  0.00  0.00    +0.000 A 
ATOM     13  C   UNL     1       0.583  13.425  20.087  0.00  0.00    +0.000 A 
ATOM     14  C   UNL     1       1.315  14.480  19.546  0.00  0.00    +0.000 A 
ATOM     15  C   UNL     1       2.248  14.224  18.552  0.00  0.00    +0.000 A 
ATOM     16 CL   UNL     1       3.044  15.534  17.772  0.00  0.00    +0.000 Cl
ATOM     17  C   UNL     1       2.515  12.916  18.163  0.00  0.00    +0.000 A 
ATOM     18  C   UNL     1       1.783  11.857  18.716  0.00  0.00    +0.000 A 
ATOM     19 CL   UNL     1       2.204  10.264  18.193  0.00  0.00    +0.000 Cl
ENDBRANCH   9  12
BRANCH   1  21
ATOM     20  O   UNL     1      -7.594  12.956  18.221  0.00  0.00    +0.000 OA
ATOM     21  C   UNL     1      -6.968  11.960  18.531  0.00  0.00    +0.000 C 
BRANCH  21  22
ATOM     22  O   UNL     1      -7.514  10.898  19.161  0.00  0.00    +0.000 OA
ATOM     23  H   UNL     1      -7.007  10.561  19.921  0.00  0.00    +0.000 HD
ENDBRANCH  21  22
ENDBRANCH   1  21
BRANCH   7  24
ATOM     24  C   UNL     1      -2.783  13.572  21.217  0.00  0.00    +0.000 C 
BRANCH  24  25
ATOM     25  C   UNL     1      -2.652  13.177  22.692  0.00  0.00    +0.000 C 
ATOM     26  C   UNL     1      -2.667  14.234  23.822  0.00  0.00    +0.000 C 
ATOM     27  C   UNL     1      -3.773  13.441  24.531  0.00  0.00    +0.000 C 
ATOM     28  C   UNL     1      -3.974  12.613  23.259  0.00  0.00    +0.000 C 
ENDBRANCH  24  25
ENDBRANCH   7  24
TORSDOF 5
ENDMDL
MODEL 4
REMARK VINA RESULT:      -6.0      3.957      7.055
REMARK  Name = 
REMARK  5 active torsions:
REMARK  status: ('A' for Active; 'I' for Inactive)
REMARK    1  A    between atoms: C_2  and  O_3
REMARK    2  A    between atoms: C_2  and  C_4
REMARK    3  A    between atoms: N_10  and  C_11
REMARK    4  A    between atoms: C_11  and  C_12
REMARK    5  A    between atoms: C_17  and  C_18
REMARK                            x       y       z     vdW  Elec       q    Type
REMARK                         _______ _______ _______ _____ _____    ______ ____
ROOT
ATOM      1  C   UNL     1       1.305   8.790  20.515  0.00  0.00    +0.000 A 
ATOM      2  C   UNL     1       1.379   8.585  21.891  0.00  0.00    +0.000 A 
ATOM      3  C   UNL     1       0.727   9.469  22.736  0.00  0.00    +0.000 A 
ATOM      4  C   UNL     1       0.028  10.564  22.209  0.00  0.00    +0.000 A 
ATOM      5  C   UNL     1       0.051  10.881  20.829  0.00  0.00    +0.000 A 
ATOM      6  C   UNL     1       0.677   9.936  19.997  0.00  0.00    +0.000 A 
ATOM      7  N   UNL     1      -0.475  12.088  20.340  0.00  0.00    +0.000 N 
ATOM      8  C   UNL     1      -1.917  12.284  20.566  0.00  0.00    +0.000 C 
ATOM      9  C   UNL     1      -2.307  12.646  22.005  0.00  0.00    +0.000 C 
ATOM     10  C   UNL     1      -1.966  11.498  22.965  0.00  0.00    +0.000 C 
ATOM     11  O   UNL     1      -0.561  11.343  23.166  0.00  0.00    +0.000 OA
ENDROOT
BRANCH   9  12
ATOM     12  C   UNL     1      -1.801  13.980  22.572  0.00  0.00    +0.000 A 
ATOM     13  C   UNL     1      -0.668  14.596  22.004  0.00  0.00    +0.000 A 
ATOM     14  C   UNL     1       0.032  15.600  22.670  0.00  0.00    +0.000 A 
ATOM     15  C   UNL     1      -0.407  16.028  23.915  0.00  0.00    +0.000 A 
ATOM     16 CL   UNL     1       0.534  17.155  24.810  0.00  0.00    +0.000 Cl
ATOM     17  C   UNL     1      -1.586  15.524  24.452  0.00  0.00    +0.000 A 
ATOM     18  C   UNL     1      -2.291  14.520  23.776  0.00  0.00    +0.000 A 
ATOM     19 CL   UNL     1      -3.760  13.974  24.507  0.00  0.00    +0.000 Cl
ENDBRANCH   9  12
BRANCH   1  21
ATOM     20  O   UNL     1       1.997   8.038  18.366  0.00  0.00    +0.000 OA
ATOM     21  C   UNL     1       1.937   7.838  19.565  0.00  0.00    +0.000 C 
BRANCH  21  22
ATOM     22  O   UNL     1       2.364   6.704  20.158  0.00  0.00    +0.000 OA
ATOM     23  H   UNL     1       2.277   6.684  21.128  0.00  0.00    +0.000 HD
ENDBRANCH  21  22
ENDBRANCH   1  21
BRANCH   7  24
ATOM     24  C   UNL     1       0.061  12.696  19.107  0.00  0.00    +0.000 C 
BRANCH  24  25
ATOM     25  C   UNL     1       1.461  13.292  19.285  0.00  0.00    +0.000 C 
ATOM     26  C   UNL     1       2.597  13.020  18.269  0.00  0.00    +0.000 C 
ATOM     27  C   UNL     1       2.835  14.531  18.149  0.00  0.00    +0.000 C 
ATOM     28  C   UNL     1       1.511  14.782  18.876  0.00  0.00    +0.000 C 
ENDBRANCH  24  25
ENDBRANCH   7  24
TORSDOF 5
ENDMDL
MODEL 5
REMARK VINA RESULT:      -6.0      5.060      9.474
REMARK  Name = 
REMARK  5 active torsions:
REMARK  status: ('A' for Active; 'I' for Inactive)
REMARK    1  A    between atoms: C_2  and  O_3
REMARK    2  A    between atoms: C_2  and  C_4
REMARK    3  A    between atoms: N_10  and  C_11
REMARK    4  A    between atoms: C_11  and  C_12
REMARK    5  A    between atoms: C_17  and  C_18
REMARK                            x       y       z     vdW  Elec       q    Type
REMARK                         _______ _______ _______ _____ _____    ______ ____
ROOT
ATOM      1  C   UNL     1       4.580   5.557  18.148  0.00  0.00    +0.000 A 
ATOM      2  C   UNL     1       4.657   6.223  16.927  0.00  0.00    +0.000 A 
ATOM      3  C   UNL     1       3.858   7.336  16.720  0.00  0.00    +0.000 A 
ATOM      4  C   UNL     1       2.971   7.765  17.717  0.00  0.00    +0.000 A 
ATOM      5  C   UNL     1       2.766   7.030  18.911  0.00  0.00    +0.000 A 
ATOM      6  C   UNL     1       3.628   5.938  19.110  0.00  0.00    +0.000 A 
ATOM      7  N   UNL     1       1.731   7.350  19.806  0.00  0.00    +0.000 N 
ATOM      8  C   UNL     1       1.812   8.692  20.407  0.00  0.00    +0.000 C 
ATOM      9  C   UNL     1       1.423   9.848  19.476  0.00  0.00    +0.000 C 
ATOM     10  C   UNL     1       2.399   9.946  18.296  0.00  0.00    +0.000 C 
ATOM     11  O   UNL     1       2.253   8.873  17.365  0.00  0.00    +0.000 OA
ENDROOT
BRANCH   9  12
ATOM     12  C   UNL     1      -0.026   9.907  18.973  0.00  0.00    +0.000 A 
ATOM     13  C   UNL     1      -0.341   9.411  17.692  0.00  0.00    +0.000 A 
ATOM     14  C   UNL     1      -1.535   9.739  17.052  0.00  0.00    +0.000 A 
ATOM     15  C   UNL     1      -2.453  10.554  17.696  0.00  0.00    +0.000 A 
ATOM     16 CL   UNL     1      -3.856  11.088  16.856  0.00  0.00    +0.000 Cl
ATOM     17  C   UNL     1      -2.226  10.967  19.004  0.00  0.00    +0.000 A 
ATOM     18  C   UNL     1      -1.028  10.628  19.647  0.00  0.00    +0.000 A 
ATOM     19 CL   UNL     1      -0.846  11.162  21.282  0.00  0.00    +0.000 Cl
ENDBRANCH   9  12
BRANCH   1  21
ATOM     20  O   UNL     1       5.298   3.669  19.406  0.00  0.00    +0.000 OA
ATOM     21  C   UNL     1       5.458   4.395  18.443  0.00  0.00    +0.000 C 
BRANCH  21  22
ATOM     22  O   UNL     1       6.488   4.278  17.578  0.00  0.00    +0.000 OA
ATOM     23  H   UNL     1       7.269   4.821  17.786  0.00  0.00    +0.000 HD
ENDBRANCH  21  22
ENDBRANCH   1  21
BRANCH   7  24
ATOM     24  C   UNL     1       1.127   6.309  20.659  0.00  0.00    +0.000 C 
BRANCH  24  25
ATOM     25  C   UNL     1       1.746   4.923  20.454  0.00  0.00    +0.000 C 
ATOM     26  C   UNL     1       2.205   4.051  21.648  0.00  0.00    +0.000 C 
ATOM     27  C   UNL     1       1.371   2.885  21.100  0.00  0.00    +0.000 C 
ATOM     28  C   UNL     1       0.676   3.853  20.139  0.00  0.00    +0.000 C 
ENDBRANCH  24  25
ENDBRANCH   7  24
TORSDOF 5
ENDMDL
MODEL 6
REMARK VINA RESULT:      -5.9      3.977      6.697
REMARK  Name = 
REMARK  5 active torsions:
REMARK  status: ('A' for Active; 'I' for Inactive)
REMARK    1  A    between atoms: C_2  and  O_3
REMARK    2  A    between atoms: C_2  and  C_4
REMARK    3  A    between atoms: N_10  and  C_11
REMARK    4  A    between atoms: C_11  and  C_12
REMARK    5  A    between atoms: C_17  and  C_18
REMARK                            x       y       z     vdW  Elec       q    Type
REMARK                         _______ _______ _______ _____ _____    ______ ____
ROOT
ATOM      1  C   UNL     1       1.820  15.057  19.048  0.00  0.00    +0.000 A 
ATOM      2  C   UNL     1       1.598  16.055  19.995  0.00  0.00    +0.000 A 
ATOM      3  C   UNL     1       0.555  15.904  20.894  0.00  0.00    +0.000 A 
ATOM      4  C   UNL     1      -0.275  14.775  20.833  0.00  0.00    +0.000 A 
ATOM      5  C   UNL     1      -0.165  13.814  19.798  0.00  0.00    +0.000 A 
ATOM      6  C   UNL     1       0.933  13.971  18.935  0.00  0.00    +0.000 A 
ATOM      7  N   UNL     1      -1.125  12.803  19.624  0.00  0.00    +0.000 N 
ATOM      8  C   UNL     1      -1.266  11.868  20.752  0.00  0.00    +0.000 C 
ATOM      9  C   UNL     1      -2.011  12.426  21.972  0.00  0.00    +0.000 C 
ATOM     10  C   UNL     1      -1.233  13.594  22.595  0.00  0.00    +0.000 C 
ATOM     11  O   UNL     1      -1.255  14.769  21.785  0.00  0.00    +0.000 OA
ENDROOT
BRANCH   9  12
ATOM     12  C   UNL     1      -3.488  12.805  21.800  0.00  0.00    +0.000 A 
ATOM     13  C   UNL     1      -3.956  13.244  20.545  0.00  0.00    +0.000 A 
ATOM     14  C   UNL     1      -5.170  13.915  20.408  0.00  0.00    +0.000 A 
ATOM     15  C   UNL     1      -5.957  14.138  21.528  0.00  0.00    +0.000 A 
ATOM     16 CL   UNL     1      -7.378  15.096  21.395  0.00  0.00    +0.000 Cl
ATOM     17  C   UNL     1      -5.581  13.617  22.762  0.00  0.00    +0.000 A 
ATOM     18  C   UNL     1      -4.364  12.937  22.894  0.00  0.00    +0.000 A 
ATOM     19 CL   UNL     1      -3.994  12.301  24.459  0.00  0.00    +0.000 Cl
ENDBRANCH   9  12
BRANCH   1  21
ATOM     20  O   UNL     1       3.354  16.192  17.627  0.00  0.00    +0.000 OA
ATOM     21  C   UNL     1       2.960  15.142  18.099  0.00  0.00    +0.000 C 
BRANCH  21  22
ATOM     22  O   UNL     1       3.457  13.934  17.761  0.00  0.00    +0.000 OA
ATOM     23  H   UNL     1       4.307  13.953  17.285  0.00  0.00    +0.000 HD
ENDBRANCH  21  22
ENDBRANCH   1  21
BRANCH   7  24
ATOM     24  C   UNL     1      -1.377  12.229  18.289  0.00  0.00    +0.000 C 
BRANCH  24  25
ATOM     25  C   UNL     1      -2.153  10.908  18.333  0.00  0.00    +0.000 C 
ATOM     26  C   UNL     1      -3.614  10.806  17.834  0.00  0.00    +0.000 C 
ATOM     27  C   UNL     1      -3.213   9.622  16.944  0.00  0.00    +0.000 C 
ATOM     28  C   UNL     1      -1.739   9.956  17.187  0.00  0.00    +0.000 C 
ENDBRANCH  24  25
ENDBRANCH   7  24
TORSDOF 5
ENDMDL
MODEL 7
REMARK VINA RESULT:      -5.9      8.572     12.147
REMARK  Name = 
REMARK  5 active torsions:
REMARK  status: ('A' for Active; 'I' for Inactive)
REMARK    1  A    between atoms: C_2  and  O_3
REMARK    2  A    between atoms: C_2  and  C_4
REMARK    3  A    between atoms: N_10  and  C_11
REMARK    4  A    between atoms: C_11  and  C_12
REMARK    5  A    between atoms: C_17  and  C_18
REMARK                            x       y       z     vdW  Elec       q    Type
REMARK                         _______ _______ _______ _____ _____    ______ ____
ROOT
ATOM      1  C   UNL     1      10.355  12.551  18.681  0.00  0.00    +0.000 A 
ATOM      2  C   UNL     1       9.636  12.222  17.533  0.00  0.00    +0.000 A 
ATOM      3  C   UNL     1       8.382  12.780  17.346  0.00  0.00    +0.000 A 
ATOM      4  C   UNL     1       7.841  13.642  18.311  0.00  0.00    +0.000 A 
ATOM      5  C   UNL     1       8.482  13.884  19.550  0.00  0.00    +0.000 A 
ATOM      6  C   UNL     1       9.772  13.344  19.685  0.00  0.00    +0.000 A 
ATOM      7  N   UNL     1       7.840  14.578  20.590  0.00  0.00    +0.000 N 
ATOM      8  C   UNL     1       7.466  15.968  20.282  0.00  0.00    +0.000 C 
ATOM      9  C   UNL     1       6.246  16.127  19.365  0.00  0.00    +0.000 C 
ATOM     10  C   UNL     1       6.531  15.537  17.977  0.00  0.00    +0.000 C 
ATOM     11  O   UNL     1       6.599  14.111  17.984  0.00  0.00    +0.000 OA
ENDROOT
BRANCH   9  12
ATOM     12  C   UNL     1       4.889  15.632  19.883  0.00  0.00    +0.000 A 
ATOM     13  C   UNL     1       4.822  14.918  21.096  0.00  0.00    +0.000 A 
ATOM     14  C   UNL     1       3.704  14.161  21.442  0.00  0.00    +0.000 A 
ATOM     15  C   UNL     1       2.614  14.124  20.585  0.00  0.00    +0.000 A 
ATOM     16 CL   UNL     1       1.296  13.074  20.927  0.00  0.00    +0.000 Cl
ATOM     17  C   UNL     1       2.600  14.907  19.436  0.00  0.00    +0.000 A 
ATOM     18  C   UNL     1       3.722  15.673  19.097  0.00  0.00    +0.000 A 
ATOM     19 CL   UNL     1       3.604  16.636  17.665  0.00  0.00    +0.000 Cl
ENDBRANCH   9  12
BRANCH   1  21
ATOM     20  O   UNL     1      12.273  12.027  19.988  0.00  0.00    +0.000 OA
ATOM     21  C   UNL     1      11.727  12.025  18.901  0.00  0.00    +0.000 C 
BRANCH  21  22
ATOM     22  O   UNL     1      12.327  11.621  17.761  0.00  0.00    +0.000 OA
ATOM     23  H   UNL     1      11.950  10.820  17.355  0.00  0.00    +0.000 HD
ENDBRANCH  21  22
ENDBRANCH   1  21
BRANCH   7  24
ATOM     24  C   UNL     1       8.192  14.314  21.998  0.00  0.00    +0.000 C 
BRANCH  24  25
ATOM     25  C   UNL     1       7.510  13.066  22.570  0.00  0.00    +0.000 C 
ATOM     26  C   UNL     1       8.246  11.709  22.669  0.00  0.00    +0.000 C 
ATOM     27  C   UNL     1       7.865  11.625  24.153  0.00  0.00    +0.000 C 
ATOM     28  C   UNL     1       7.448  13.098  24.114  0.00  0.00    +0.000 C 
ENDBRANCH  24  25
ENDBRANCH   7  24
TORSDOF 5
ENDMDL
MODEL 8
REMARK VINA RESULT:      -5.9      1.676      2.379
REMARK  Name = 
REMARK  5 active torsions:
REMARK  status: ('A' for Active; 'I' for Inactive)
REMARK    1  A    between atoms: C_2  and  O_3
REMARK    2  A    between atoms: C_2  and  C_4
REMARK    3  A    between atoms: N_10  and  C_11
REMARK    4  A    between atoms: C_11  and  C_12
REMARK    5  A    between atoms: C_17  and  C_18
REMARK                            x       y       z     vdW  Elec       q    Type
REMARK                         _______ _______ _______ _____ _____    ______ ____
ROOT
ATOM      1  C   UNL     1      -3.238  13.624  21.489  0.00  0.00    +0.000 A 
ATOM      2  C   UNL     1      -2.496  13.530  22.664  0.00  0.00    +0.000 A 
ATOM      3  C   UNL     1      -1.367  12.727  22.680  0.00  0.00    +0.000 A 
ATOM      4  C   UNL     1      -0.997  12.005  21.536  0.00  0.00    +0.000 A 
ATOM      5  C   UNL     1      -1.806  11.967  20.374  0.00  0.00    +0.000 A 
ATOM      6  C   UNL     1      -2.914  12.832  20.374  0.00  0.00    +0.000 A 
ATOM      7  N   UNL     1      -1.537  11.082  19.316  0.00  0.00    +0.000 N 
ATOM      8  C   UNL     1      -0.237  11.273  18.651  0.00  0.00    +0.000 C 
ATOM      9  C   UNL     1       0.978  10.769  19.439  0.00  0.00    +0.000 C 
ATOM     10  C   UNL     1       1.146  11.561  20.743  0.00  0.00    +0.000 C 
ATOM     11  O   UNL     1       0.137  11.260  21.707  0.00  0.00    +0.000 OA
ENDROOT
BRANCH   9  12
ATOM     12  C   UNL     1       1.080   9.263  19.716  0.00  0.00    +0.000 A 
ATOM     13  C   UNL     1       0.589   8.741  20.930  0.00  0.00    +0.000 A 
ATOM     14  C   UNL     1       0.951   7.474  21.383  0.00  0.00    +0.000 A 
ATOM     15  C   UNL     1       1.796   6.689  20.613  0.00  0.00    +0.000 A 
ATOM     16 CL   UNL     1       2.369   5.191  21.233  0.00  0.00    +0.000 Cl
ATOM     17  C   UNL     1       2.206   7.125  19.358  0.00  0.00    +0.000 A 
ATOM     18  C   UNL     1       1.834   8.397  18.902  0.00  0.00    +0.000 A 
ATOM     19 CL   UNL     1       2.367   8.842  17.319  0.00  0.00    +0.000 Cl
ENDBRANCH   9  12
BRANCH   1  21
ATOM     20  O   UNL     1      -5.459  14.307  22.006  0.00  0.00    +0.000 OA
ATOM     21  C   UNL     1      -4.423  14.517  21.402  0.00  0.00    +0.000 C 
BRANCH  21  22
ATOM     22  O   UNL     1      -4.256  15.534  20.531  0.00  0.00    +0.000 OA
ATOM     23  H   UNL     1      -4.189  15.272  19.595  0.00  0.00    +0.000 HD
ENDBRANCH  21  22
ENDBRANCH   1  21
BRANCH   7  24
ATOM     24  C   UNL     1      -2.627  10.595  18.450  0.00  0.00    +0.000 C 
BRANCH  24  25
ATOM     25  C   UNL     1      -2.396  10.885  16.963  0.00  0.00    +0.000 C 
ATOM     26  C   UNL     1      -2.281   9.749  15.919  0.00  0.00    +0.000 C 
ATOM     27  C   UNL     1      -3.359  10.435  15.071  0.00  0.00    +0.000 C 
ATOM     28  C   UNL     1      -3.692  11.345  16.256  0.00  0.00    +0.000 C 
ENDBRANCH  24  25
ENDBRANCH   7  24
TORSDOF 5
ENDMDL
MODEL 9
REMARK VINA RESULT:      -5.8      3.818      7.123
REMARK  Name = 
REMARK  5 active torsions:
REMARK  status: ('A' for Active; 'I' for Inactive)
REMARK    1  A    between atoms: C_2  and  O_3
REMARK    2  A    between atoms: C_2  and  C_4
REMARK    3  A    between atoms: N_10  and  C_11
REMARK    4  A    between atoms: C_11  and  C_12
REMARK    5  A    between atoms: C_17  and  C_18
REMARK                            x       y       z     vdW  Elec       q    Type
REMARK                         _______ _______ _______ _____ _____    ______ ____
ROOT
ATOM      1  C   UNL     1       0.958   9.112  20.899  0.00  0.00    +0.000 A 
ATOM      2  C   UNL     1       0.855   8.869  22.267  0.00  0.00    +0.000 A 
ATOM      3  C   UNL     1       0.129   9.750  23.051  0.00  0.00    +0.000 A 
ATOM      4  C   UNL     1      -0.470  10.880  22.476  0.00  0.00    +0.000 A 
ATOM      5  C   UNL     1      -0.268  11.232  21.119  0.00  0.00    +0.000 A 
ATOM      6  C   UNL     1       0.430  10.291  20.343  0.00  0.00    +0.000 A 
ATOM      7  N   UNL     1      -0.697  12.467  20.605  0.00  0.00    +0.000 N 
ATOM      8  C   UNL     1      -2.150  12.701  20.659  0.00  0.00    +0.000 C 
ATOM      9  C   UNL     1      -2.705  13.037  22.049  0.00  0.00    +0.000 C 
ATOM     10  C   UNL     1      -2.516  11.854  23.009  0.00  0.00    +0.000 C 
ATOM     11  O   UNL     1      -1.151  11.651  23.376  0.00  0.00    +0.000 OA
ENDROOT
BRANCH   9  12
ATOM     12  C   UNL     1      -2.237  14.339  22.713  0.00  0.00    +0.000 A 
ATOM     13  C   UNL     1      -1.389  14.285  23.837  0.00  0.00    +0.000 A 
ATOM     14  C   UNL     1      -1.210  15.383  24.676  0.00  0.00    +0.000 A 
ATOM     15  C   UNL     1      -1.862  16.574  24.389  0.00  0.00    +0.000 A 
ATOM     16 CL   UNL     1      -1.771  17.885  25.498  0.00  0.00    +0.000 Cl
ATOM     17  C   UNL     1      -2.614  16.697  23.226  0.00  0.00    +0.000 A 
ATOM     18  C   UNL     1      -2.784  15.593  22.381  0.00  0.00    +0.000 A 
ATOM     19 CL   UNL     1      -3.711  15.848  20.944  0.00  0.00    +0.000 Cl
ENDBRANCH   9  12
BRANCH   1  21
ATOM     20  O   UNL     1       1.861   8.382  18.822  0.00  0.00    +0.000 OA
ATOM     21  C   UNL     1       1.676   8.167  20.006  0.00  0.00    +0.000 C 
BRANCH  21  22
ATOM     22  O   UNL     1       2.030   7.021  20.624  0.00  0.00    +0.000 OA
ATOM     23  H   UNL     1       2.987   6.841  20.650  0.00  0.00    +0.000 HD
ENDBRANCH  21  22
ENDBRANCH   1  21
BRANCH   7  24
ATOM     24  C   UNL     1       0.004  13.091  19.467  0.00  0.00    +0.000 C 
BRANCH  24  25
ATOM     25  C   UNL     1       1.099  14.074  19.893  0.00  0.00    +0.000 C 
ATOM     26  C   UNL     1       1.427  14.332  21.383  0.00  0.00    +0.000 C 
ATOM     27  C   UNL     1       2.906  14.043  21.095  0.00  0.00    +0.000 C 
ATOM     28  C   UNL     1       2.513  13.470  19.731  0.00  0.00    +0.000 C 
ENDBRANCH  24  25
ENDBRANCH   7  24
TORSDOF 5
ENDMDL
