MODEL 1
REMARK VINA RESULT:      -8.8      0.000      0.000
REMARK  Name = 
REMARK  8 active torsions:
REMARK  status: ('A' for Active; 'I' for Inactive)
REMARK    1  A    between atoms: C_1  and  O_2
REMARK    2  A    between atoms: O_2  and  C_3
REMARK    3  A    between atoms: C_7  and  N_8
REMARK    4  A    between atoms: C_9  and  C_11
REMARK    5  A    between atoms: C_11  and  C_12
REMARK    6  A    between atoms: C_12  and  C_13
REMARK    7  A    between atoms: C_17  and  C_19
REMARK    8  A    between atoms: C_19  and  C_20
REMARK                            x       y       z     vdW  Elec       q    Type
REMARK                         _______ _______ _______ _____ _____    ______ ____
ROOT
ATOM      1  C   UNL     1       5.969   5.198  17.092  0.00  0.00    +0.000 C 
ATOM      2  C   UNL     1       4.939   6.094  16.379  0.00  0.00    +0.000 C 
ATOM      3  C   UNL     1       4.440   7.218  17.293  0.00  0.00    +0.000 C 
ATOM      4  N   UNL     1       3.862   6.648  18.504  0.00  0.00    +0.000 N 
ATOM      5  C   UNL     1       2.533   6.926  18.795  0.00  0.00    +0.000 C 
ATOM      6  O   UNL     1       1.839   7.632  18.056  0.00  0.00    +0.000 OA
ATOM      7  C   UNL     1       4.763   5.791  19.281  0.00  0.00    +0.000 C 
ATOM      8  C   UNL     1       5.357   4.681  18.408  0.00  0.00    +0.000 C 
ENDROOT
BRANCH   1   9
ATOM      9  C   UNL     1       7.296   5.968  17.246  0.00  0.00    +0.000 C 
BRANCH   9  10
ATOM     10  C   UNL     1       7.194   7.484  17.121  0.00  0.00    +0.000 C 
BRANCH  10  12
ATOM     11  N   UNL     1       8.373   9.472  17.858  0.00  0.00    +0.000 N 
ATOM     12  C   UNL     1       8.176   8.122  18.090  0.00  0.00    +0.000 C 
ATOM     13  O   UNL     1       8.648   7.457  19.007  0.00  0.00    +0.000 OA
ATOM     14  H   UNL     1       7.807   9.902  17.135  0.00  0.00    +0.000 HD
BRANCH  11  19
ATOM     15  C   UNL     1      11.076  11.919  18.522  0.00  0.00    +0.000 A 
ATOM     16  C   UNL     1      10.954  12.107  19.898  0.00  0.00    +0.000 A 
ATOM     17  C   UNL     1       9.993  11.404  20.619  0.00  0.00    +0.000 A 
ATOM     18  C   UNL     1       9.133  10.524  19.963  0.00  0.00    +0.000 A 
ATOM     19  C   UNL     1       9.222  10.340  18.581  0.00  0.00    +0.000 A 
ATOM     20  C   UNL     1      10.209  11.042  17.865  0.00  0.00    +0.000 A 
BRANCH  15  22
ATOM     21  C   UNL     1      11.627  13.581  16.925  0.00  0.00    +0.000 C 
ATOM     22  O   UNL     1      12.055  12.671  17.930  0.00  0.00    +0.000 OA
ENDBRANCH  15  22
ENDBRANCH  11  19
ENDBRANCH  10  12
ENDBRANCH   9  10
ENDBRANCH   1   9
BRANCH   5  23
ATOM     23  C   UNL     1       1.903   6.321  20.039  0.00  0.00    +0.000 C 
BRANCH  23  24
ATOM     24  C   UNL     1       1.702   4.823  19.970  0.00  0.00    +0.000 A 
ATOM     25  C   UNL     1       1.479   4.213  18.725  0.00  0.00    +0.000 A 
ATOM     26  C   UNL     1       1.296   2.830  18.627  0.00  0.00    +0.000 A 
ATOM     27  C   UNL     1       1.348   2.040  19.772  0.00  0.00    +0.000 A 
ATOM     28  C   UNL     1       1.602   2.634  21.002  0.00  0.00    +0.000 A 
ATOM     29  F   UNL     1       1.665   1.871  22.101  0.00  0.00    +0.000 F 
ATOM     30  C   UNL     1       1.794   4.009  21.109  0.00  0.00    +0.000 A 
ENDBRANCH  23  24
ENDBRANCH   5  23
TORSDOF 7
ENDMDL
MODEL 2
REMARK VINA RESULT:      -8.6      1.133      1.415
REMARK  Name = 
REMARK  8 active torsions:
REMARK  status: ('A' for Active; 'I' for Inactive)
REMARK    1  A    between atoms: C_1  and  O_2
REMARK    2  A    between atoms: O_2  and  C_3
REMARK    3  A    between atoms: C_7  and  N_8
REMARK    4  A    between atoms: C_9  and  C_11
REMARK    5  A    between atoms: C_11  and  C_12
REMARK    6  A    between atoms: C_12  and  C_13
REMARK    7  A    between atoms: C_17  and  C_19
REMARK    8  A    between atoms: C_19  and  C_20
REMARK                            x       y       z     vdW  Elec       q    Type
REMARK                         _______ _______ _______ _____ _____    ______ ____
ROOT
ATOM      1  C   UNL     1       6.022   4.530  17.007  0.00  0.00    +0.000 C 
ATOM      2  C   UNL     1       5.135   5.515  16.222  0.00  0.00    +0.000 C 
ATOM      3  C   UNL     1       4.777   6.744  17.064  0.00  0.00    +0.000 C 
ATOM      4  N   UNL     1       4.107   6.326  18.288  0.00  0.00    +0.000 N 
ATOM      5  C   UNL     1       2.822   6.795  18.532  0.00  0.00    +0.000 C 
ATOM      6  O   UNL     1       2.243   7.546  17.740  0.00  0.00    +0.000 OA
ATOM      7  C   UNL     1       4.870   5.400  19.131  0.00  0.00    +0.000 C 
ATOM      8  C   UNL     1       5.323   4.174  18.334  0.00  0.00    +0.000 C 
ENDROOT
BRANCH   1   9
ATOM      9  C   UNL     1       7.437   5.122  17.152  0.00  0.00    +0.000 C 
BRANCH   9  10
ATOM     10  C   UNL     1       7.654   6.020  18.365  0.00  0.00    +0.000 C 
BRANCH  10  12
ATOM     11  N   UNL     1       8.422   8.257  18.901  0.00  0.00    +0.000 N 
ATOM     12  C   UNL     1       8.005   7.418  17.883  0.00  0.00    +0.000 C 
ATOM     13  O   UNL     1       7.970   7.678  16.684  0.00  0.00    +0.000 OA
ATOM     14  H   UNL     1       8.517   7.850  19.824  0.00  0.00    +0.000 HD
BRANCH  11  19
ATOM     15  C   UNL     1      10.231  11.421  19.578  0.00  0.00    +0.000 A 
ATOM     16  C   UNL     1       9.687  12.268  18.615  0.00  0.00    +0.000 A 
ATOM     17  C   UNL     1       8.697  11.806  17.752  0.00  0.00    +0.000 A 
ATOM     18  C   UNL     1       8.262  10.483  17.834  0.00  0.00    +0.000 A 
ATOM     19  C   UNL     1       8.812   9.610  18.776  0.00  0.00    +0.000 A 
ATOM     20  C   UNL     1       9.798  10.094  19.655  0.00  0.00    +0.000 A 
BRANCH  15  22
ATOM     21  C   UNL     1      12.261  12.639  19.673  0.00  0.00    +0.000 C 
ATOM     22  O   UNL     1      11.196  11.994  20.360  0.00  0.00    +0.000 OA
ENDBRANCH  15  22
ENDBRANCH  11  19
ENDBRANCH  10  12
ENDBRANCH   9  10
ENDBRANCH   1   9
BRANCH   5  23
ATOM     23  C   UNL     1       2.095   6.350  19.790  0.00  0.00    +0.000 C 
BRANCH  23  24
ATOM     24  C   UNL     1       1.760   4.875  19.828  0.00  0.00    +0.000 A 
ATOM     25  C   UNL     1       1.452   4.207  18.633  0.00  0.00    +0.000 A 
ATOM     26  C   UNL     1       1.144   2.843  18.634  0.00  0.00    +0.000 A 
ATOM     27  C   UNL     1       1.155   2.129  19.829  0.00  0.00    +0.000 A 
ATOM     28  C   UNL     1       1.493   2.779  21.010  0.00  0.00    +0.000 A 
ATOM     29  F   UNL     1       1.515   2.088  22.157  0.00  0.00    +0.000 F 
ATOM     30  C   UNL     1       1.809   4.134  21.018  0.00  0.00    +0.000 A 
ENDBRANCH  23  24
ENDBRANCH   5  23
TORSDOF 7
ENDMDL
MODEL 3
REMARK VINA RESULT:      -8.3      5.215      9.250
REMARK  Name = 
REMARK  8 active torsions:
REMARK  status: ('A' for Active; 'I' for Inactive)
REMARK    1  A    between atoms: C_1  and  O_2
REMARK    2  A    between atoms: O_2  and  C_3
REMARK    3  A    between atoms: C_7  and  N_8
REMARK    4  A    between atoms: C_9  and  C_11
REMARK    5  A    between atoms: C_11  and  C_12
REMARK    6  A    between atoms: C_12  and  C_13
REMARK    7  A    between atoms: C_17  and  C_19
REMARK    8  A    between atoms: C_19  and  C_20
REMARK                            x       y       z     vdW  Elec       q    Type
REMARK                         _______ _______ _______ _____ _____    ______ ____
ROOT
ATOM      1  C   UNL     1       2.485   7.048  17.697  0.00  0.00    +0.000 C 
ATOM      2  C   UNL     1       2.460   5.787  18.581  0.00  0.00    +0.000 C 
ATOM      3  C   UNL     1       3.700   5.703  19.478  0.00  0.00    +0.000 C 
ATOM      4  N   UNL     1       4.904   5.722  18.657  0.00  0.00    +0.000 N 
ATOM      5  C   UNL     1       5.775   4.643  18.737  0.00  0.00    +0.000 C 
ATOM      6  O   UNL     1       5.549   3.678  19.475  0.00  0.00    +0.000 OA
ATOM      7  C   UNL     1       5.047   6.893  17.786  0.00  0.00    +0.000 C 
ATOM      8  C   UNL     1       3.807   7.081  16.907  0.00  0.00    +0.000 C 
ENDROOT
BRANCH   1   9
ATOM      9  C   UNL     1       2.214   8.289  18.571  0.00  0.00    +0.000 C 
BRANCH   9  10
ATOM     10  C   UNL     1       1.568   9.469  17.854  0.00  0.00    +0.000 C 
BRANCH  10  12
ATOM     11  N   UNL     1      -0.671  10.387  17.690  0.00  0.00    +0.000 N 
ATOM     12  C   UNL     1       0.249   9.795  18.536  0.00  0.00    +0.000 C 
ATOM     13  O   UNL     1       0.068   9.465  19.704  0.00  0.00    +0.000 OA
ATOM     14  H   UNL     1      -0.410  10.476  16.714  0.00  0.00    +0.000 HD
BRANCH  11  19
ATOM     15  C   UNL     1      -3.386  12.259  19.382  0.00  0.00    +0.000 A 
ATOM     16  C   UNL     1      -4.518  11.741  18.756  0.00  0.00    +0.000 A 
ATOM     17  C   UNL     1      -4.393  10.748  17.789  0.00  0.00    +0.000 A 
ATOM     18  C   UNL     1      -3.128  10.284  17.426  0.00  0.00    +0.000 A 
ATOM     19  C   UNL     1      -1.979  10.808  18.023  0.00  0.00    +0.000 A 
ATOM     20  C   UNL     1      -2.119  11.797  19.012  0.00  0.00    +0.000 A 
BRANCH  15  22
ATOM     21  C   UNL     1      -3.437  12.872  21.671  0.00  0.00    +0.000 C 
ATOM     22  O   UNL     1      -3.644  13.231  20.311  0.00  0.00    +0.000 OA
ENDBRANCH  15  22
ENDBRANCH  11  19
ENDBRANCH  10  12
ENDBRANCH   9  10
ENDBRANCH   1   9
BRANCH   5  23
ATOM     23  C   UNL     1       7.023   4.630  17.870  0.00  0.00    +0.000 C 
BRANCH  23  24
ATOM     24  C   UNL     1       6.752   4.484  16.389  0.00  0.00    +0.000 A 
ATOM     25  C   UNL     1       5.622   3.769  15.961  0.00  0.00    +0.000 A 
ATOM     26  C   UNL     1       5.341   3.622  14.599  0.00  0.00    +0.000 A 
ATOM     27  C   UNL     1       6.180   4.200  13.650  0.00  0.00    +0.000 A 
ATOM     28  C   UNL     1       7.280   4.938  14.069  0.00  0.00    +0.000 A 
ATOM     29  F   UNL     1       8.079   5.504  13.155  0.00  0.00    +0.000 F 
ATOM     30  C   UNL     1       7.564   5.097  15.422  0.00  0.00    +0.000 A 
ENDBRANCH  23  24
ENDBRANCH   5  23
TORSDOF 7
ENDMDL
MODEL 4
REMARK VINA RESULT:      -8.3      5.258      9.223
REMARK  Name = 
REMARK  8 active torsions:
REMARK  status: ('A' for Active; 'I' for Inactive)
REMARK    1  A    between atoms: C_1  and  O_2
REMARK    2  A    between atoms: O_2  and  C_3
REMARK    3  A    between atoms: C_7  and  N_8
REMARK    4  A    between atoms: C_9  and  C_11
REMARK    5  A    between atoms: C_11  and  C_12
REMARK    6  A    between atoms: C_12  and  C_13
REMARK    7  A    between atoms: C_17  and  C_19
REMARK    8  A    between atoms: C_19  and  C_20
REMARK                            x       y       z     vdW  Elec       q    Type
REMARK                         _______ _______ _______ _____ _____    ______ ____
ROOT
ATOM      1  C   UNL     1       2.226   6.924  18.221  0.00  0.00    +0.000 C 
ATOM      2  C   UNL     1       2.296   5.536  18.884  0.00  0.00    +0.000 C 
ATOM      3  C   UNL     1       3.564   5.378  19.728  0.00  0.00    +0.000 C 
ATOM      4  N   UNL     1       4.741   5.601  18.898  0.00  0.00    +0.000 N 
ATOM      5  C   UNL     1       5.670   4.575  18.781  0.00  0.00    +0.000 C 
ATOM      6  O   UNL     1       5.519   3.491  19.353  0.00  0.00    +0.000 OA
ATOM      7  C   UNL     1       4.795   6.905  18.230  0.00  0.00    +0.000 C 
ATOM      8  C   UNL     1       3.521   7.162  17.420  0.00  0.00    +0.000 C 
ENDROOT
BRANCH   1   9
ATOM      9  C   UNL     1       1.916   7.987  19.293  0.00  0.00    +0.000 C 
BRANCH   9  10
ATOM     10  C   UNL     1       1.820   9.422  18.788  0.00  0.00    +0.000 C 
BRANCH  10  12
ATOM     11  N   UNL     1      -0.279  10.074  17.762  0.00  0.00    +0.000 N 
ATOM     12  C   UNL     1       0.390   9.909  18.961  0.00  0.00    +0.000 C 
ATOM     13  O   UNL     1      -0.075  10.046  20.089  0.00  0.00    +0.000 OA
ATOM     14  H   UNL     1       0.209   9.795  16.919  0.00  0.00    +0.000 HD
BRANCH  11  19
ATOM     15  C   UNL     1      -3.556  10.657  16.130  0.00  0.00    +0.000 A 
ATOM     16  C   UNL     1      -4.257  11.319  17.136  0.00  0.00    +0.000 A 
ATOM     17  C   UNL     1      -3.642  11.601  18.352  0.00  0.00    +0.000 A 
ATOM     18  C   UNL     1      -2.325  11.202  18.576  0.00  0.00    +0.000 A 
ATOM     19  C   UNL     1      -1.611  10.515  17.591  0.00  0.00    +0.000 A 
ATOM     20  C   UNL     1      -2.237  10.252  16.359  0.00  0.00    +0.000 A 
BRANCH  15  22
ATOM     21  C   UNL     1      -3.535   9.989  13.857  0.00  0.00    +0.000 C 
ATOM     22  O   UNL     1      -4.274  10.436  14.986  0.00  0.00    +0.000 OA
ENDBRANCH  15  22
ENDBRANCH  11  19
ENDBRANCH  10  12
ENDBRANCH   9  10
ENDBRANCH   1   9
BRANCH   5  23
ATOM     23  C   UNL     1       6.891   4.777  17.898  0.00  0.00    +0.000 C 
BRANCH  23  24
ATOM     24  C   UNL     1       6.632   4.581  16.420  0.00  0.00    +0.000 A 
ATOM     25  C   UNL     1       5.480   3.894  16.007  0.00  0.00    +0.000 A 
ATOM     26  C   UNL     1       5.209   3.702  14.649  0.00  0.00    +0.000 A 
ATOM     27  C   UNL     1       6.081   4.208  13.688  0.00  0.00    +0.000 A 
ATOM     28  C   UNL     1       7.204   4.918  14.092  0.00  0.00    +0.000 A 
ATOM     29  F   UNL     1       8.035   5.415  13.166  0.00  0.00    +0.000 F 
ATOM     30  C   UNL     1       7.478   5.122  15.440  0.00  0.00    +0.000 A 
ENDBRANCH  23  24
ENDBRANCH   5  23
TORSDOF 7
ENDMDL
MODEL 5
REMARK VINA RESULT:      -8.2      5.511      8.048
REMARK  Name = 
REMARK  8 active torsions:
REMARK  status: ('A' for Active; 'I' for Inactive)
REMARK    1  A    between atoms: C_1  and  O_2
REMARK    2  A    between atoms: O_2  and  C_3
REMARK    3  A    between atoms: C_7  and  N_8
REMARK    4  A    between atoms: C_9  and  C_11
REMARK    5  A    between atoms: C_11  and  C_12
REMARK    6  A    between atoms: C_12  and  C_13
REMARK    7  A    between atoms: C_17  and  C_19
REMARK    8  A    between atoms: C_19  and  C_20
REMARK                            x       y       z     vdW  Elec       q    Type
REMARK                         _______ _______ _______ _____ _____    ______ ____
ROOT
ATOM      1  C   UNL     1       2.563   2.056  18.937  0.00  0.00    +0.000 C 
ATOM      2  C   UNL     1       4.092   2.001  19.121  0.00  0.00    +0.000 C 
ATOM      3  C   UNL     1       4.702   3.405  19.189  0.00  0.00    +0.000 C 
ATOM      4  N   UNL     1       4.364   4.149  17.983  0.00  0.00    +0.000 N 
ATOM      5  C   UNL     1       5.399   4.623  17.187  0.00  0.00    +0.000 C 
ATOM      6  O   UNL     1       6.584   4.424  17.475  0.00  0.00    +0.000 OA
ATOM      7  C   UNL     1       2.928   4.286  17.716  0.00  0.00    +0.000 C 
ATOM      8  C   UNL     1       2.237   2.920  17.703  0.00  0.00    +0.000 C 
ENDROOT
BRANCH   1   9
ATOM      9  C   UNL     1       1.908   2.522  20.253  0.00  0.00    +0.000 C 
BRANCH   9  10
ATOM     10  C   UNL     1       2.539   3.746  20.904  0.00  0.00    +0.000 C 
BRANCH  10  12
ATOM     11  N   UNL     1       2.428   6.121  20.422  0.00  0.00    +0.000 N 
ATOM     12  C   UNL     1       1.687   4.965  20.586  0.00  0.00    +0.000 C 
ATOM     13  O   UNL     1       0.476   4.839  20.432  0.00  0.00    +0.000 OA
ATOM     14  H   UNL     1       3.437   6.031  20.456  0.00  0.00    +0.000 HD
BRANCH  11  19
ATOM     15  C   UNL     1       0.754   9.391  20.917  0.00  0.00    +0.000 A 
ATOM     16  C   UNL     1       0.916   9.983  19.665  0.00  0.00    +0.000 A 
ATOM     17  C   UNL     1       1.556   9.292  18.640  0.00  0.00    +0.000 A 
ATOM     18  C   UNL     1       2.059   8.011  18.870  0.00  0.00    +0.000 A 
ATOM     19  C   UNL     1       1.930   7.410  20.124  0.00  0.00    +0.000 A 
ATOM     20  C   UNL     1       1.265   8.110  21.147  0.00  0.00    +0.000 A 
BRANCH  15  22
ATOM     21  C   UNL     1      -0.069  11.539  21.484  0.00  0.00    +0.000 C 
ATOM     22  O   UNL     1       0.113  10.175  21.837  0.00  0.00    +0.000 OA
ENDBRANCH  15  22
ENDBRANCH  11  19
ENDBRANCH  10  12
ENDBRANCH   9  10
ENDBRANCH   1   9
BRANCH   5  23
ATOM     23  C   UNL     1       5.068   5.378  15.910  0.00  0.00    +0.000 C 
BRANCH  23  24
ATOM     24  C   UNL     1       5.857   4.931  14.699  0.00  0.00    +0.000 A 
ATOM     25  C   UNL     1       5.344   3.913  13.879  0.00  0.00    +0.000 A 
ATOM     26  C   UNL     1       6.045   3.481  12.750  0.00  0.00    +0.000 A 
ATOM     27  C   UNL     1       7.261   4.072  12.419  0.00  0.00    +0.000 A 
ATOM     28  C   UNL     1       7.756   5.103  13.207  0.00  0.00    +0.000 A 
ATOM     29  F   UNL     1       8.921   5.680  12.881  0.00  0.00    +0.000 F 
ATOM     30  C   UNL     1       7.062   5.546  14.329  0.00  0.00    +0.000 A 
ENDBRANCH  23  24
ENDBRANCH   5  23
TORSDOF 7
ENDMDL
MODEL 6
REMARK VINA RESULT:      -8.1      2.081      3.033
REMARK  Name = 
REMARK  8 active torsions:
REMARK  status: ('A' for Active; 'I' for Inactive)
REMARK    1  A    between atoms: C_1  and  O_2
REMARK    2  A    between atoms: O_2  and  C_3
REMARK    3  A    between atoms: C_7  and  N_8
REMARK    4  A    between atoms: C_9  and  C_11
REMARK    5  A    between atoms: C_11  and  C_12
REMARK    6  A    between atoms: C_12  and  C_13
REMARK    7  A    between atoms: C_17  and  C_19
REMARK    8  A    between atoms: C_19  and  C_20
REMARK                            x       y       z     vdW  Elec       q    Type
REMARK                         _______ _______ _______ _____ _____    ______ ____
ROOT
ATOM      1  C   UNL     1       8.025   6.868  17.600  0.00  0.00    +0.000 C 
ATOM      2  C   UNL     1       7.226   6.399  16.369  0.00  0.00    +0.000 C 
ATOM      3  C   UNL     1       5.735   6.248  16.689  0.00  0.00    +0.000 C 
ATOM      4  N   UNL     1       5.559   5.313  17.793  0.00  0.00    +0.000 N 
ATOM      5  C   UNL     1       4.795   4.173  17.577  0.00  0.00    +0.000 C 
ATOM      6  O   UNL     1       4.273   3.937  16.482  0.00  0.00    +0.000 OA
ATOM      7  C   UNL     1       6.260   5.670  19.030  0.00  0.00    +0.000 C 
ATOM      8  C   UNL     1       7.750   5.906  18.772  0.00  0.00    +0.000 C 
ENDROOT
BRANCH   1   9
ATOM      9  C   UNL     1       7.705   8.349  17.881  0.00  0.00    +0.000 C 
BRANCH   9  10
ATOM     10  C   UNL     1       8.754   9.106  18.688  0.00  0.00    +0.000 C 
BRANCH  10  12
ATOM     11  N   UNL     1      10.016  11.170  18.508  0.00  0.00    +0.000 N 
ATOM     12  C   UNL     1       8.837  10.533  18.168  0.00  0.00    +0.000 C 
ATOM     13  O   UNL     1       7.937  10.977  17.461  0.00  0.00    +0.000 OA
ATOM     14  H   UNL     1      10.716  10.618  18.991  0.00  0.00    +0.000 HD
BRANCH  11  19
ATOM     15  C   UNL     1      10.151  14.872  18.648  0.00  0.00    +0.000 A 
ATOM     16  C   UNL     1      11.064  15.158  17.635  0.00  0.00    +0.000 A 
ATOM     17  C   UNL     1      11.620  14.130  16.880  0.00  0.00    +0.000 A 
ATOM     18  C   UNL     1      11.283  12.804  17.150  0.00  0.00    +0.000 A 
ATOM     19  C   UNL     1      10.389  12.493  18.178  0.00  0.00    +0.000 A 
ATOM     20  C   UNL     1       9.819  13.541  18.922  0.00  0.00    +0.000 A 
BRANCH  15  22
ATOM     21  C   UNL     1       8.738  15.718  20.352  0.00  0.00    +0.000 C 
ATOM     22  O   UNL     1       9.681  15.969  19.318  0.00  0.00    +0.000 OA
ENDBRANCH  15  22
ENDBRANCH  11  19
ENDBRANCH  10  12
ENDBRANCH   9  10
ENDBRANCH   1   9
BRANCH   5  23
ATOM     23  C   UNL     1       4.621   3.171  18.707  0.00  0.00    +0.000 C 
BRANCH  23  24
ATOM     24  C   UNL     1       3.317   3.304  19.463  0.00  0.00    +0.000 A 
ATOM     25  C   UNL     1       2.325   4.173  18.981  0.00  0.00    +0.000 A 
ATOM     26  C   UNL     1       1.108   4.313  19.653  0.00  0.00    +0.000 A 
ATOM     27  C   UNL     1       0.863   3.576  20.808  0.00  0.00    +0.000 A 
ATOM     28  C   UNL     1       1.827   2.690  21.270  0.00  0.00    +0.000 A 
ATOM     29  F   UNL     1       1.585   1.971  22.375  0.00  0.00    +0.000 F 
ATOM     30  C   UNL     1       3.039   2.536  20.604  0.00  0.00    +0.000 A 
ENDBRANCH  23  24
ENDBRANCH   5  23
TORSDOF 7
ENDMDL
MODEL 7
REMARK VINA RESULT:      -8.0      2.118      2.777
REMARK  Name = 
REMARK  8 active torsions:
REMARK  status: ('A' for Active; 'I' for Inactive)
REMARK    1  A    between atoms: C_1  and  O_2
REMARK    2  A    between atoms: O_2  and  C_3
REMARK    3  A    between atoms: C_7  and  N_8
REMARK    4  A    between atoms: C_9  and  C_11
REMARK    5  A    between atoms: C_11  and  C_12
REMARK    6  A    between atoms: C_12  and  C_13
REMARK    7  A    between atoms: C_17  and  C_19
REMARK    8  A    between atoms: C_19  and  C_20
REMARK                            x       y       z     vdW  Elec       q    Type
REMARK                         _______ _______ _______ _____ _____    ______ ____
ROOT
ATOM      1  C   UNL     1       7.920   6.768  17.955  0.00  0.00    +0.000 C 
ATOM      2  C   UNL     1       7.350   6.381  16.577  0.00  0.00    +0.000 C 
ATOM      3  C   UNL     1       5.835   6.160  16.636  0.00  0.00    +0.000 C 
ATOM      4  N   UNL     1       5.524   5.130  17.619  0.00  0.00    +0.000 N 
ATOM      5  C   UNL     1       4.855   3.990  17.192  0.00  0.00    +0.000 C 
ATOM      6  O   UNL     1       4.526   3.832  16.011  0.00  0.00    +0.000 OA
ATOM      7  C   UNL     1       6.001   5.401  18.979  0.00  0.00    +0.000 C 
ATOM      8  C   UNL     1       7.502   5.702  18.987  0.00  0.00    +0.000 C 
ENDROOT
BRANCH   1   9
ATOM      9  C   UNL     1       7.496   8.210  18.296  0.00  0.00    +0.000 C 
BRANCH   9  10
ATOM     10  C   UNL     1       8.184   9.306  17.490  0.00  0.00    +0.000 C 
BRANCH  10  12
ATOM     11  N   UNL     1       9.509  11.309  17.829  0.00  0.00    +0.000 N 
ATOM     12  C   UNL     1       8.982  10.185  18.440  0.00  0.00    +0.000 C 
ATOM     13  O   UNL     1       9.042   9.898  19.631  0.00  0.00    +0.000 OA
ATOM     14  H   UNL     1       9.260  11.467  16.860  0.00  0.00    +0.000 HD
BRANCH  11  19
ATOM     15  C   UNL     1      10.466  14.633  19.160  0.00  0.00    +0.000 A 
ATOM     16  C   UNL     1      11.747  14.382  19.649  0.00  0.00    +0.000 A 
ATOM     17  C   UNL     1      12.313  13.118  19.518  0.00  0.00    +0.000 A 
ATOM     18  C   UNL     1      11.591  12.089  18.914  0.00  0.00    +0.000 A 
ATOM     19  C   UNL     1      10.296  12.313  18.439  0.00  0.00    +0.000 A 
ATOM     20  C   UNL     1       9.741  13.599  18.561  0.00  0.00    +0.000 A 
BRANCH  15  22
ATOM     21  C   UNL     1      10.470  16.560  20.539  0.00  0.00    +0.000 C 
ATOM     22  O   UNL     1      10.024  15.914  19.354  0.00  0.00    +0.000 OA
ENDBRANCH  15  22
ENDBRANCH  11  19
ENDBRANCH  10  12
ENDBRANCH   9  10
ENDBRANCH   1   9
BRANCH   5  23
ATOM     23  C   UNL     1       4.545   2.891  18.195  0.00  0.00    +0.000 C 
BRANCH  23  24
ATOM     24  C   UNL     1       3.274   3.110  18.987  0.00  0.00    +0.000 A 
ATOM     25  C   UNL     1       2.097   3.478  18.315  0.00  0.00    +0.000 A 
ATOM     26  C   UNL     1       0.906   3.682  19.018  0.00  0.00    +0.000 A 
ATOM     27  C   UNL     1       0.874   3.506  20.399  0.00  0.00    +0.000 A 
ATOM     28  C   UNL     1       2.028   3.109  21.063  0.00  0.00    +0.000 A 
ATOM     29  F   UNL     1       1.993   2.928  22.390  0.00  0.00    +0.000 F 
ATOM     30  C   UNL     1       3.217   2.895  20.372  0.00  0.00    +0.000 A 
ENDBRANCH  23  24
ENDBRANCH   5  23
TORSDOF 7
ENDMDL
MODEL 8
REMARK VINA RESULT:      -8.0      6.500      9.312
REMARK  Name = 
REMARK  8 active torsions:
REMARK  status: ('A' for Active; 'I' for Inactive)
REMARK    1  A    between atoms: C_1  and  O_2
REMARK    2  A    between atoms: O_2  and  C_3
REMARK    3  A    between atoms: C_7  and  N_8
REMARK    4  A    between atoms: C_9  and  C_11
REMARK    5  A    between atoms: C_11  and  C_12
REMARK    6  A    between atoms: C_12  and  C_13
REMARK    7  A    between atoms: C_17  and  C_19
REMARK    8  A    between atoms: C_19  and  C_20
REMARK                            x       y       z     vdW  Elec       q    Type
REMARK                         _______ _______ _______ _____ _____    ______ ____
ROOT
ATOM      1  C   UNL     1       0.117  11.171  18.862  0.00  0.00    +0.000 C 
ATOM      2  C   UNL     1       0.279  12.651  19.258  0.00  0.00    +0.000 C 
ATOM      3  C   UNL     1       0.710  12.799  20.720  0.00  0.00    +0.000 C 
ATOM      4  N   UNL     1      -0.261  12.147  21.589  0.00  0.00    +0.000 N 
ATOM      5  C   UNL     1      -0.907  12.913  22.551  0.00  0.00    +0.000 C 
ATOM      6  O   UNL     1      -0.682  14.121  22.679  0.00  0.00    +0.000 OA
ATOM      7  C   UNL     1      -0.481  10.722  21.319  0.00  0.00    +0.000 C 
ATOM      8  C   UNL     1      -0.849  10.491  19.851  0.00  0.00    +0.000 C 
ENDROOT
BRANCH   1   9
ATOM      9  C   UNL     1       1.509  10.517  18.753  0.00  0.00    +0.000 C 
BRANCH   9  10
ATOM     10  C   UNL     1       1.602   9.322  17.811  0.00  0.00    +0.000 C 
BRANCH  10  12
ATOM     11  N   UNL     1       2.709   7.164  17.834  0.00  0.00    +0.000 N 
ATOM     12  C   UNL     1       2.053   8.106  18.605  0.00  0.00    +0.000 C 
ATOM     13  O   UNL     1       1.882   8.073  19.820  0.00  0.00    +0.000 OA
ATOM     14  H   UNL     1       2.883   7.402  16.864  0.00  0.00    +0.000 HD
BRANCH  11  19
ATOM     15  C   UNL     1       5.232   4.614  18.768  0.00  0.00    +0.000 A 
ATOM     16  C   UNL     1       4.423   3.547  19.157  0.00  0.00    +0.000 A 
ATOM     17  C   UNL     1       3.037   3.655  19.086  0.00  0.00    +0.000 A 
ATOM     18  C   UNL     1       2.451   4.842  18.646  0.00  0.00    +0.000 A 
ATOM     19  C   UNL     1       3.243   5.932  18.276  0.00  0.00    +0.000 A 
ATOM     20  C   UNL     1       4.643   5.805  18.334  0.00  0.00    +0.000 A 
BRANCH  15  22
ATOM     21  C   UNL     1       7.401   5.532  19.023  0.00  0.00    +0.000 C 
ATOM     22  O   UNL     1       6.575   4.383  18.889  0.00  0.00    +0.000 OA
ENDBRANCH  15  22
ENDBRANCH  11  19
ENDBRANCH  10  12
ENDBRANCH   9  10
ENDBRANCH   1   9
BRANCH   5  23
ATOM     23  C   UNL     1      -1.942  12.258  23.450  0.00  0.00    +0.000 C 
BRANCH  23  24
ATOM     24  C   UNL     1      -3.376  12.560  23.073  0.00  0.00    +0.000 A 
ATOM     25  C   UNL     1      -3.717  12.709  21.720  0.00  0.00    +0.000 A 
ATOM     26  C   UNL     1      -5.034  12.983  21.339  0.00  0.00    +0.000 A 
ATOM     27  C   UNL     1      -6.028  13.097  22.307  0.00  0.00    +0.000 A 
ATOM     28  C   UNL     1      -5.702  12.916  23.645  0.00  0.00    +0.000 A 
ATOM     29  F   UNL     1      -6.662  13.014  24.574  0.00  0.00    +0.000 F 
ATOM     30  C   UNL     1      -4.396  12.636  24.034  0.00  0.00    +0.000 A 
ENDBRANCH  23  24
ENDBRANCH   5  23
TORSDOF 7
ENDMDL
MODEL 9
REMARK VINA RESULT:      -7.9      5.025      7.189
REMARK  Name = 
REMARK  8 active torsions:
REMARK  status: ('A' for Active; 'I' for Inactive)
REMARK    1  A    between atoms: C_1  and  O_2
REMARK    2  A    between atoms: O_2  and  C_3
REMARK    3  A    between atoms: C_7  and  N_8
REMARK    4  A    between atoms: C_9  and  C_11
REMARK    5  A    between atoms: C_11  and  C_12
REMARK    6  A    between atoms: C_12  and  C_13
REMARK    7  A    between atoms: C_17  and  C_19
REMARK    8  A    between atoms: C_19  and  C_20
REMARK                            x       y       z     vdW  Elec       q    Type
REMARK                         _______ _______ _______ _____ _____    ______ ____
ROOT
ATOM      1  C   UNL     1       2.451   7.048  17.777  0.00  0.00    +0.000 C 
ATOM      2  C   UNL     1       2.474   5.770  18.636  0.00  0.00    +0.000 C 
ATOM      3  C   UNL     1       3.739   5.692  19.497  0.00  0.00    +0.000 C 
ATOM      4  N   UNL     1       4.920   5.748  18.645  0.00  0.00    +0.000 N 
ATOM      5  C   UNL     1       5.811   4.684  18.680  0.00  0.00    +0.000 C 
ATOM      6  O   UNL     1       5.624   3.701  19.405  0.00  0.00    +0.000 OA
ATOM      7  C   UNL     1       5.018   6.938  17.793  0.00  0.00    +0.000 C 
ATOM      8  C   UNL     1       3.751   7.120  16.952  0.00  0.00    +0.000 C 
ENDROOT
BRANCH   1   9
ATOM      9  C   UNL     1       2.183   8.267  18.681  0.00  0.00    +0.000 C 
BRANCH   9  10
ATOM     10  C   UNL     1       0.978   9.117  18.297  0.00  0.00    +0.000 C 
BRANCH  10  12
ATOM     11  N   UNL     1       1.042  11.532  18.077  0.00  0.00    +0.000 N 
ATOM     12  C   UNL     1       1.103  10.476  18.968  0.00  0.00    +0.000 C 
ATOM     13  O   UNL     1       1.173  10.549  20.191  0.00  0.00    +0.000 OA
ATOM     14  H   UNL     1       0.853  11.306  17.107  0.00  0.00    +0.000 HD
BRANCH  11  19
ATOM     15  C   UNL     1       2.558  14.862  18.669  0.00  0.00    +0.000 A 
ATOM     16  C   UNL     1       1.435  15.633  18.966  0.00  0.00    +0.000 A 
ATOM     17  C   UNL     1       0.172  15.050  19.000  0.00  0.00    +0.000 A 
ATOM     18  C   UNL     1       0.022  13.694  18.713  0.00  0.00    +0.000 A 
ATOM     19  C   UNL     1       1.131  12.908  18.388  0.00  0.00    +0.000 A 
ATOM     20  C   UNL     1       2.405  13.504  18.375  0.00  0.00    +0.000 A 
BRANCH  15  22
ATOM     21  C   UNL     1       4.861  14.878  18.113  0.00  0.00    +0.000 C 
ATOM     22  O   UNL     1       3.738  15.554  18.664  0.00  0.00    +0.000 OA
ENDBRANCH  15  22
ENDBRANCH  11  19
ENDBRANCH  10  12
ENDBRANCH   9  10
ENDBRANCH   1   9
BRANCH   5  23
ATOM     23  C   UNL     1       7.036   4.710  17.779  0.00  0.00    +0.000 C 
BRANCH  23  24
ATOM     24  C   UNL     1       6.734   4.501  16.311  0.00  0.00    +0.000 A 
ATOM     25  C   UNL     1       5.606   3.753  15.938  0.00  0.00    +0.000 A 
ATOM     26  C   UNL     1       5.298   3.546  14.590  0.00  0.00    +0.000 A 
ATOM     27  C   UNL     1       6.106   4.097  13.600  0.00  0.00    +0.000 A 
ATOM     28  C   UNL     1       7.204   4.867  13.964  0.00  0.00    +0.000 A 
ATOM     29  F   UNL     1       7.974   5.407  13.010  0.00  0.00    +0.000 F 
ATOM     30  C   UNL     1       7.515   5.085  15.303  0.00  0.00    +0.000 A 
ENDBRANCH  23  24
ENDBRANCH   5  23
TORSDOF 7
ENDMDL
