MODEL 1
REMARK VINA RESULT:      -7.7      0.000      0.000
REMARK  Name = 
REMARK  4 active torsions:
REMARK  status: ('A' for Active; 'I' for Inactive)
REMARK    1  A    between atoms: C_4  and  O_5
REMARK    2  A    between atoms: C_8  and  S_9
REMARK    3  A    between atoms: S_9  and  C_10
REMARK    4  A    between atoms: C_10  and  C_11
REMARK                            x       y       z     vdW  Elec       q    Type
REMARK                         _______ _______ _______ _____ _____    ______ ____
ROOT
ATOM      1  N   UNL     1       1.485   2.547  22.263  0.00  0.00    +0.000 N 
ATOM      2  C   UNL     1       2.265   2.994  21.223  0.00  0.00    +0.000 A 
ATOM      3  N   UNL     1       3.362   2.309  20.926  0.00  0.00    +0.000 NA
ATOM      4  C   UNL     1       4.102   2.819  19.929  0.00  0.00    +0.000 A 
ATOM      5  C   UNL     1       3.832   3.959  19.186  0.00  0.00    +0.000 A 
ATOM      6  N   UNL     1       4.625   4.475  18.179  0.00  0.00    +0.000 NA
ATOM      7  C   UNL     1       4.199   5.617  17.606  0.00  0.00    +0.000 A 
ATOM      8  C   UNL     1       3.010   6.194  18.018  0.00  0.00    +0.000 A 
ATOM      9  N   UNL     1       2.221   5.668  18.991  0.00  0.00    +0.000 NA
ATOM     10  C   UNL     1       2.634   4.553  19.595  0.00  0.00    +0.000 A 
ATOM     11  N   UNL     1       1.865   4.082  20.576  0.00  0.00    +0.000 NA
ATOM     12  H   UNL     1       1.614   1.563  22.450  0.00  0.00    +0.000 HD
ATOM     13  H   UNL     1       0.538   2.894  22.196  0.00  0.00    +0.000 HD
ENDROOT
BRANCH   4  14
ATOM     14  O   UNL     1       5.226   2.082  19.692  0.00  0.00    +0.000 OA
ATOM     15  H   UNL     1       4.853   1.183  19.647  0.00  0.00    +0.000 HD
ENDBRANCH   4  14
BRANCH   7  16
ATOM     16  S   UNL     1       5.197   6.456  16.395  0.00  0.00    +0.000 S 
BRANCH  16  17
ATOM     17  C   UNL     1       6.568   5.280  16.171  0.00  0.00    +0.000 C 
BRANCH  17  18
ATOM     18  C   UNL     1       6.688   4.846  14.724  0.00  0.00    +0.000 A 
ATOM     19  C   UNL     1       5.838   3.858  14.199  0.00  0.00    +0.000 A 
ATOM     20  C   UNL     1       5.939   3.466  12.862  0.00  0.00    +0.000 A 
ATOM     21  C   UNL     1       6.895   4.048  12.032  0.00  0.00    +0.000 A 
ATOM     22  C   UNL     1       7.758   5.016  12.543  0.00  0.00    +0.000 A 
ATOM     23  C   UNL     1       7.659   5.410  13.881  0.00  0.00    +0.000 A 
ENDBRANCH  17  18
ENDBRANCH  16  17
ENDBRANCH   7  16
TORSDOF 4
ENDMDL
MODEL 2
REMARK VINA RESULT:      -7.7      0.198      1.089
REMARK  Name = 
REMARK  4 active torsions:
REMARK  status: ('A' for Active; 'I' for Inactive)
REMARK    1  A    between atoms: C_4  and  O_5
REMARK    2  A    between atoms: C_8  and  S_9
REMARK    3  A    between atoms: S_9  and  C_10
REMARK    4  A    between atoms: C_10  and  C_11
REMARK                            x       y       z     vdW  Elec       q    Type
REMARK                         _______ _______ _______ _____ _____    ______ ____
ROOT
ATOM      1  N   UNL     1       1.511   2.608  22.225  0.00  0.00    +0.000 N 
ATOM      2  C   UNL     1       2.279   3.072  21.183  0.00  0.00    +0.000 A 
ATOM      3  N   UNL     1       3.375   2.395  20.865  0.00  0.00    +0.000 NA
ATOM      4  C   UNL     1       4.103   2.923  19.868  0.00  0.00    +0.000 A 
ATOM      5  C   UNL     1       3.822   4.072  19.144  0.00  0.00    +0.000 A 
ATOM      6  N   UNL     1       4.603   4.605  18.137  0.00  0.00    +0.000 NA
ATOM      7  C   UNL     1       4.167   5.753  17.585  0.00  0.00    +0.000 A 
ATOM      8  C   UNL     1       2.981   6.321  18.017  0.00  0.00    +0.000 A 
ATOM      9  N   UNL     1       2.204   5.779  18.990  0.00  0.00    +0.000 NA
ATOM     10  C   UNL     1       2.626   4.657  19.575  0.00  0.00    +0.000 A 
ATOM     11  N   UNL     1       1.868   4.168  20.556  0.00  0.00    +0.000 NA
ATOM     12  H   UNL     1       1.645   1.622  22.396  0.00  0.00    +0.000 HD
ATOM     13  H   UNL     1       0.562   2.953  22.172  0.00  0.00    +0.000 HD
ENDROOT
BRANCH   4  14
ATOM     14  O   UNL     1       5.226   2.192  19.609  0.00  0.00    +0.000 OA
ATOM     15  H   UNL     1       5.068   1.404  20.159  0.00  0.00    +0.000 HD
ENDBRANCH   4  14
BRANCH   7  16
ATOM     16  S   UNL     1       5.151   6.614  16.376  0.00  0.00    +0.000 S 
BRANCH  16  17
ATOM     17  C   UNL     1       6.541   5.463  16.149  0.00  0.00    +0.000 C 
BRANCH  17  18
ATOM     18  C   UNL     1       6.561   4.897  14.743  0.00  0.00    +0.000 A 
ATOM     19  C   UNL     1       7.578   5.253  13.841  0.00  0.00    +0.000 A 
ATOM     20  C   UNL     1       7.605   4.722  12.549  0.00  0.00    +0.000 A 
ATOM     21  C   UNL     1       6.613   3.835  12.135  0.00  0.00    +0.000 A 
ATOM     22  C   UNL     1       5.587   3.487  13.012  0.00  0.00    +0.000 A 
ATOM     23  C   UNL     1       5.558   4.018  14.306  0.00  0.00    +0.000 A 
ENDBRANCH  17  18
ENDBRANCH  16  17
ENDBRANCH   7  16
TORSDOF 4
ENDMDL
MODEL 3
REMARK VINA RESULT:      -7.4      2.141      3.561
REMARK  Name = 
REMARK  4 active torsions:
REMARK  status: ('A' for Active; 'I' for Inactive)
REMARK    1  A    between atoms: C_4  and  O_5
REMARK    2  A    between atoms: C_8  and  S_9
REMARK    3  A    between atoms: S_9  and  C_10
REMARK    4  A    between atoms: C_10  and  C_11
REMARK                            x       y       z     vdW  Elec       q    Type
REMARK                         _______ _______ _______ _____ _____    ______ ____
ROOT
ATOM      1  N   UNL     1       1.414   2.695  22.336  0.00  0.00    +0.000 N 
ATOM      2  C   UNL     1       2.058   3.256  21.259  0.00  0.00    +0.000 A 
ATOM      3  N   UNL     1       2.182   4.577  21.224  0.00  0.00    +0.000 NA
ATOM      4  C   UNL     1       2.783   5.066  20.128  0.00  0.00    +0.000 A 
ATOM      5  C   UNL     1       3.288   4.342  19.058  0.00  0.00    +0.000 A 
ATOM      6  N   UNL     1       3.883   4.874  17.930  0.00  0.00    +0.000 NA
ATOM      7  C   UNL     1       4.274   3.996  16.987  0.00  0.00    +0.000 A 
ATOM      8  C   UNL     1       4.094   2.638  17.192  0.00  0.00    +0.000 A 
ATOM      9  N   UNL     1       3.533   2.119  18.314  0.00  0.00    +0.000 NA
ATOM     10  C   UNL     1       3.110   2.969  19.252  0.00  0.00    +0.000 A 
ATOM     11  N   UNL     1       2.523   2.437  20.324  0.00  0.00    +0.000 NA
ATOM     12  H   UNL     1       1.430   3.291  23.151  0.00  0.00    +0.000 HD
ATOM     13  H   UNL     1       1.665   1.723  22.456  0.00  0.00    +0.000 HD
ENDROOT
BRANCH   4  14
ATOM     14  O   UNL     1       2.855   6.429  20.144  0.00  0.00    +0.000 OA
ATOM     15  H   UNL     1       2.578   6.619  21.059  0.00  0.00    +0.000 HD
ENDBRANCH   4  14
BRANCH   7  16
ATOM     16  S   UNL     1       4.925   4.560  15.430  0.00  0.00    +0.000 S 
BRANCH  16  17
ATOM     17  C   UNL     1       6.717   4.386  15.697  0.00  0.00    +0.000 C 
BRANCH  17  18
ATOM     18  C   UNL     1       7.197   5.297  16.809  0.00  0.00    +0.000 A 
ATOM     19  C   UNL     1       7.625   4.766  18.037  0.00  0.00    +0.000 A 
ATOM     20  C   UNL     1       8.081   5.604  19.058  0.00  0.00    +0.000 A 
ATOM     21  C   UNL     1       8.106   6.985  18.871  0.00  0.00    +0.000 A 
ATOM     22  C   UNL     1       7.666   7.529  17.665  0.00  0.00    +0.000 A 
ATOM     23  C   UNL     1       7.210   6.691  16.642  0.00  0.00    +0.000 A 
ENDBRANCH  17  18
ENDBRANCH  16  17
ENDBRANCH   7  16
TORSDOF 4
ENDMDL
MODEL 4
REMARK VINA RESULT:      -7.3      1.532      2.292
REMARK  Name = 
REMARK  4 active torsions:
REMARK  status: ('A' for Active; 'I' for Inactive)
REMARK    1  A    between atoms: C_4  and  O_5
REMARK    2  A    between atoms: C_8  and  S_9
REMARK    3  A    between atoms: S_9  and  C_10
REMARK    4  A    between atoms: C_10  and  C_11
REMARK                            x       y       z     vdW  Elec       q    Type
REMARK                         _______ _______ _______ _____ _____    ______ ____
ROOT
ATOM      1  N   UNL     1       1.576   2.483  22.097  0.00  0.00    +0.000 N 
ATOM      2  C   UNL     1       2.152   3.377  21.224  0.00  0.00    +0.000 A 
ATOM      3  N   UNL     1       1.779   4.648  21.296  0.00  0.00    +0.000 NA
ATOM      4  C   UNL     1       2.346   5.461  20.391  0.00  0.00    +0.000 A 
ATOM      5  C   UNL     1       3.273   5.115  19.418  0.00  0.00    +0.000 A 
ATOM      6  N   UNL     1       3.823   5.970  18.483  0.00  0.00    +0.000 NA
ATOM      7  C   UNL     1       4.680   5.423  17.601  0.00  0.00    +0.000 A 
ATOM      8  C   UNL     1       4.984   4.074  17.680  0.00  0.00    +0.000 A 
ATOM      9  N   UNL     1       4.460   3.243  18.618  0.00  0.00    +0.000 NA
ATOM     10  C   UNL     1       3.586   3.753  19.486  0.00  0.00    +0.000 A 
ATOM     11  N   UNL     1       3.053   2.908  20.369  0.00  0.00    +0.000 NA
ATOM     12  H   UNL     1       1.219   2.930  22.928  0.00  0.00    +0.000 HD
ATOM     13  H   UNL     1       2.144   1.655  22.212  0.00  0.00    +0.000 HD
ENDROOT
BRANCH   4  14
ATOM     14  O   UNL     1       1.901   6.747  20.503  0.00  0.00    +0.000 OA
ATOM     15  H   UNL     1       1.110   6.623  21.058  0.00  0.00    +0.000 HD
ENDBRANCH   4  14
BRANCH   7  16
ATOM     16  S   UNL     1       5.350   6.386  16.263  0.00  0.00    +0.000 S 
BRANCH  16  17
ATOM     17  C   UNL     1       6.845   5.438  15.842  0.00  0.00    +0.000 C 
BRANCH  17  18
ATOM     18  C   UNL     1       6.741   4.835  14.455  0.00  0.00    +0.000 A 
ATOM     19  C   UNL     1       7.618   5.232  13.433  0.00  0.00    +0.000 A 
ATOM     20  C   UNL     1       7.532   4.668  12.157  0.00  0.00    +0.000 A 
ATOM     21  C   UNL     1       6.563   3.706  11.882  0.00  0.00    +0.000 A 
ATOM     22  C   UNL     1       5.672   3.315  12.881  0.00  0.00    +0.000 A 
ATOM     23  C   UNL     1       5.757   3.879  14.158  0.00  0.00    +0.000 A 
ENDBRANCH  17  18
ENDBRANCH  16  17
ENDBRANCH   7  16
TORSDOF 4
ENDMDL
MODEL 5
REMARK VINA RESULT:      -7.3      2.226      3.660
REMARK  Name = 
REMARK  4 active torsions:
REMARK  status: ('A' for Active; 'I' for Inactive)
REMARK    1  A    between atoms: C_4  and  O_5
REMARK    2  A    between atoms: C_8  and  S_9
REMARK    3  A    between atoms: S_9  and  C_10
REMARK    4  A    between atoms: C_10  and  C_11
REMARK                            x       y       z     vdW  Elec       q    Type
REMARK                         _______ _______ _______ _____ _____    ______ ____
ROOT
ATOM      1  N   UNL     1       1.071   2.532  22.258  0.00  0.00    +0.000 N 
ATOM      2  C   UNL     1       1.780   3.114  21.234  0.00  0.00    +0.000 A 
ATOM      3  N   UNL     1       1.965   4.428  21.271  0.00  0.00    +0.000 NA
ATOM      4  C   UNL     1       2.629   4.940  20.223  0.00  0.00    +0.000 A 
ATOM      5  C   UNL     1       3.142   4.247  19.136  0.00  0.00    +0.000 A 
ATOM      6  N   UNL     1       3.802   4.805  18.058  0.00  0.00    +0.000 NA
ATOM      7  C   UNL     1       4.188   3.956  17.087  0.00  0.00    +0.000 A 
ATOM      8  C   UNL     1       3.939   2.600  17.216  0.00  0.00    +0.000 A 
ATOM      9  N   UNL     1       3.313   2.054  18.291  0.00  0.00    +0.000 NA
ATOM     10  C   UNL     1       2.894   2.876  19.254  0.00  0.00    +0.000 A 
ATOM     11  N   UNL     1       2.243   2.320  20.276  0.00  0.00    +0.000 NA
ATOM     12  H   UNL     1       1.083   3.086  23.102  0.00  0.00    +0.000 HD
ATOM     13  H   UNL     1       1.273   1.545  22.338  0.00  0.00    +0.000 HD
ENDROOT
BRANCH   4  14
ATOM     14  O   UNL     1       2.762   6.296  20.311  0.00  0.00    +0.000 OA
ATOM     15  H   UNL     1       3.415   6.373  21.030  0.00  0.00    +0.000 HD
ENDBRANCH   4  14
BRANCH   7  16
ATOM     16  S   UNL     1       4.923   4.564  15.585  0.00  0.00    +0.000 S 
BRANCH  16  17
ATOM     17  C   UNL     1       6.695   4.325  15.921  0.00  0.00    +0.000 C 
BRANCH  17  18
ATOM     18  C   UNL     1       7.201   5.329  16.938  0.00  0.00    +0.000 A 
ATOM     19  C   UNL     1       7.240   6.700  16.633  0.00  0.00    +0.000 A 
ATOM     20  C   UNL     1       7.694   7.628  17.575  0.00  0.00    +0.000 A 
ATOM     21  C   UNL     1       8.123   7.200  18.829  0.00  0.00    +0.000 A 
ATOM     22  C   UNL     1       8.108   5.841  19.140  0.00  0.00    +0.000 A 
ATOM     23  C   UNL     1       7.655   4.911  18.199  0.00  0.00    +0.000 A 
ENDBRANCH  17  18
ENDBRANCH  16  17
ENDBRANCH   7  16
TORSDOF 4
ENDMDL
MODEL 6
REMARK VINA RESULT:      -7.2      3.570      6.693
REMARK  Name = 
REMARK  4 active torsions:
REMARK  status: ('A' for Active; 'I' for Inactive)
REMARK    1  A    between atoms: C_4  and  O_5
REMARK    2  A    between atoms: C_8  and  S_9
REMARK    3  A    between atoms: S_9  and  C_10
REMARK    4  A    between atoms: C_10  and  C_11
REMARK                            x       y       z     vdW  Elec       q    Type
REMARK                         _______ _______ _______ _____ _____    ______ ____
ROOT
ATOM      1  N   UNL     1       8.744   9.524  17.917  0.00  0.00    +0.000 N 
ATOM      2  C   UNL     1       8.077   8.324  17.996  0.00  0.00    +0.000 A 
ATOM      3  N   UNL     1       8.472   7.450  18.913  0.00  0.00    +0.000 NA
ATOM      4  C   UNL     1       7.809   6.283  18.912  0.00  0.00    +0.000 A 
ATOM      5  C   UNL     1       6.766   5.913  18.075  0.00  0.00    +0.000 A 
ATOM      6  N   UNL     1       6.116   4.694  18.081  0.00  0.00    +0.000 NA
ATOM      7  C   UNL     1       5.152   4.524  17.158  0.00  0.00    +0.000 A 
ATOM      8  C   UNL     1       4.843   5.553  16.285  0.00  0.00    +0.000 A 
ATOM      9  N   UNL     1       5.467   6.759  16.300  0.00  0.00    +0.000 NA
ATOM     10  C   UNL     1       6.447   6.945  17.186  0.00  0.00    +0.000 A 
ATOM     11  N   UNL     1       7.073   8.121  17.152  0.00  0.00    +0.000 NA
ATOM     12  H   UNL     1       9.206   9.769  18.780  0.00  0.00    +0.000 HD
ATOM     13  H   UNL     1       8.184  10.233  17.463  0.00  0.00    +0.000 HD
ENDROOT
BRANCH   4  14
ATOM     14  O   UNL     1       8.280   5.422  19.861  0.00  0.00    +0.000 OA
ATOM     15  H   UNL     1       7.655   4.681  19.767  0.00  0.00    +0.000 HD
ENDBRANCH   4  14
BRANCH   7  16
ATOM     16  S   UNL     1       4.336   2.954  16.970  0.00  0.00    +0.000 S 
BRANCH  16  17
ATOM     17  C   UNL     1       2.590   3.419  17.186  0.00  0.00    +0.000 C 
BRANCH  17  18
ATOM     18  C   UNL     1       2.227   3.522  18.654  0.00  0.00    +0.000 A 
ATOM     19  C   UNL     1       1.905   2.373  19.395  0.00  0.00    +0.000 A 
ATOM     20  C   UNL     1       1.583   2.464  20.752  0.00  0.00    +0.000 A 
ATOM     21  C   UNL     1       1.568   3.705  21.386  0.00  0.00    +0.000 A 
ATOM     22  C   UNL     1       1.867   4.857  20.660  0.00  0.00    +0.000 A 
ATOM     23  C   UNL     1       2.189   4.767  19.301  0.00  0.00    +0.000 A 
ENDBRANCH  17  18
ENDBRANCH  16  17
ENDBRANCH   7  16
TORSDOF 4
ENDMDL
MODEL 7
REMARK VINA RESULT:      -7.2      2.030      3.196
REMARK  Name = 
REMARK  4 active torsions:
REMARK  status: ('A' for Active; 'I' for Inactive)
REMARK    1  A    between atoms: C_4  and  O_5
REMARK    2  A    between atoms: C_8  and  S_9
REMARK    3  A    between atoms: S_9  and  C_10
REMARK    4  A    between atoms: C_10  and  C_11
REMARK                            x       y       z     vdW  Elec       q    Type
REMARK                         _______ _______ _______ _____ _____    ______ ____
ROOT
ATOM      1  N   UNL     1       1.216   2.538  22.444  0.00  0.00    +0.000 N 
ATOM      2  C   UNL     1       2.026   2.689  21.343  0.00  0.00    +0.000 A 
ATOM      3  N   UNL     1       3.246   2.171  21.390  0.00  0.00    +0.000 NA
ATOM      4  C   UNL     1       4.001   2.388  20.301  0.00  0.00    +0.000 A 
ATOM      5  C   UNL     1       3.635   3.073  19.152  0.00  0.00    +0.000 A 
ATOM      6  N   UNL     1       4.442   3.301  18.054  0.00  0.00    +0.000 NA
ATOM      7  C   UNL     1       3.903   4.023  17.053  0.00  0.00    +0.000 A 
ATOM      8  C   UNL     1       2.597   4.471  17.151  0.00  0.00    +0.000 A 
ATOM      9  N   UNL     1       1.800   4.222  18.222  0.00  0.00    +0.000 NA
ATOM     10  C   UNL     1       2.317   3.533  19.240  0.00  0.00    +0.000 A 
ATOM     11  N   UNL     1       1.529   3.340  20.297  0.00  0.00    +0.000 NA
ATOM     12  H   UNL     1       1.482   1.750  23.016  0.00  0.00    +0.000 HD
ATOM     13  H   UNL     1       0.239   2.640  22.205  0.00  0.00    +0.000 HD
ENDROOT
BRANCH   4  14
ATOM     14  O   UNL     1       5.250   1.851  20.425  0.00  0.00    +0.000 OA
ATOM     15  H   UNL     1       5.575   1.923  19.510  0.00  0.00    +0.000 HD
ENDBRANCH   4  14
BRANCH   7  16
ATOM     16  S   UNL     1       4.882   4.504  15.647  0.00  0.00    +0.000 S 
BRANCH  16  17
ATOM     17  C   UNL     1       6.565   4.121  16.223  0.00  0.00    +0.000 C 
BRANCH  17  18
ATOM     18  C   UNL     1       7.117   5.238  17.086  0.00  0.00    +0.000 A 
ATOM     19  C   UNL     1       7.113   6.566  16.629  0.00  0.00    +0.000 A 
ATOM     20  C   UNL     1       7.609   7.599  17.428  0.00  0.00    +0.000 A 
ATOM     21  C   UNL     1       8.126   7.319  18.692  0.00  0.00    +0.000 A 
ATOM     22  C   UNL     1       8.155   6.004  19.153  0.00  0.00    +0.000 A 
ATOM     23  C   UNL     1       7.658   4.969  18.353  0.00  0.00    +0.000 A 
ENDBRANCH  17  18
ENDBRANCH  16  17
ENDBRANCH   7  16
TORSDOF 4
ENDMDL
MODEL 8
REMARK VINA RESULT:      -7.2      1.811      3.158
REMARK  Name = 
REMARK  4 active torsions:
REMARK  status: ('A' for Active; 'I' for Inactive)
REMARK    1  A    between atoms: C_4  and  O_5
REMARK    2  A    between atoms: C_8  and  S_9
REMARK    3  A    between atoms: S_9  and  C_10
REMARK    4  A    between atoms: C_10  and  C_11
REMARK                            x       y       z     vdW  Elec       q    Type
REMARK                         _______ _______ _______ _____ _____    ______ ____
ROOT
ATOM      1  N   UNL     1       1.753   2.712  21.966  0.00  0.00    +0.000 N 
ATOM      2  C   UNL     1       2.338   2.841  20.728  0.00  0.00    +0.000 A 
ATOM      3  N   UNL     1       2.811   1.748  20.143  0.00  0.00    +0.000 NA
ATOM      4  C   UNL     1       3.406   1.947  18.957  0.00  0.00    +0.000 A 
ATOM      5  C   UNL     1       3.561   3.153  18.289  0.00  0.00    +0.000 A 
ATOM      6  N   UNL     1       4.199   3.332  17.077  0.00  0.00    +0.000 NA
ATOM      7  C   UNL     1       4.272   4.596  16.618  0.00  0.00    +0.000 A 
ATOM      8  C   UNL     1       3.700   5.627  17.343  0.00  0.00    +0.000 A 
ATOM      9  N   UNL     1       3.051   5.442  18.522  0.00  0.00    +0.000 NA
ATOM     10  C   UNL     1       2.989   4.204  19.014  0.00  0.00    +0.000 A 
ATOM     11  N   UNL     1       2.385   4.055  20.193  0.00  0.00    +0.000 NA
ATOM     12  H   UNL     1       1.413   1.777  22.137  0.00  0.00    +0.000 HD
ATOM     13  H   UNL     1       1.134   3.485  22.168  0.00  0.00    +0.000 HD
ENDROOT
BRANCH   4  14
ATOM     14  O   UNL     1       3.891   0.788  18.423  0.00  0.00    +0.000 OA
ATOM     15  H   UNL     1       4.479   1.134  17.727  0.00  0.00    +0.000 HD
ENDBRANCH   4  14
BRANCH   7  16
ATOM     16  S   UNL     1       5.188   4.977  15.141  0.00  0.00    +0.000 S 
BRANCH  16  17
ATOM     17  C   UNL     1       6.886   4.560  15.644  0.00  0.00    +0.000 C 
BRANCH  17  18
ATOM     18  C   UNL     1       7.327   5.393  16.831  0.00  0.00    +0.000 A 
ATOM     19  C   UNL     1       7.693   4.781  18.041  0.00  0.00    +0.000 A 
ATOM     20  C   UNL     1       8.113   5.547  19.132  0.00  0.00    +0.000 A 
ATOM     21  C   UNL     1       8.164   6.936  19.033  0.00  0.00    +0.000 A 
ATOM     22  C   UNL     1       7.786   7.560  17.845  0.00  0.00    +0.000 A 
ATOM     23  C   UNL     1       7.366   6.795  16.752  0.00  0.00    +0.000 A 
ENDBRANCH  17  18
ENDBRANCH  16  17
ENDBRANCH   7  16
TORSDOF 4
ENDMDL
MODEL 9
REMARK VINA RESULT:      -7.1      1.114      1.613
REMARK  Name = 
REMARK  4 active torsions:
REMARK  status: ('A' for Active; 'I' for Inactive)
REMARK    1  A    between atoms: C_4  and  O_5
REMARK    2  A    between atoms: C_8  and  S_9
REMARK    3  A    between atoms: S_9  and  C_10
REMARK    4  A    between atoms: C_10  and  C_11
REMARK                            x       y       z     vdW  Elec       q    Type
REMARK                         _______ _______ _______ _____ _____    ______ ____
ROOT
ATOM      1  N   UNL     1       0.813   2.893  21.426  0.00  0.00    +0.000 N 
ATOM      2  C   UNL     1       2.021   2.997  20.779  0.00  0.00    +0.000 A 
ATOM      3  N   UNL     1       3.038   2.276  21.234  0.00  0.00    +0.000 NA
ATOM      4  C   UNL     1       4.199   2.453  20.585  0.00  0.00    +0.000 A 
ATOM      5  C   UNL     1       4.434   3.287  19.501  0.00  0.00    +0.000 A 
ATOM      6  N   UNL     1       5.648   3.467  18.866  0.00  0.00    +0.000 NA
ATOM      7  C   UNL     1       5.669   4.353  17.853  0.00  0.00    +0.000 A 
ATOM      8  C   UNL     1       4.506   5.008  17.484  0.00  0.00    +0.000 A 
ATOM      9  N   UNL     1       3.309   4.807  18.095  0.00  0.00    +0.000 NA
ATOM     10  C   UNL     1       3.266   3.956  19.121  0.00  0.00    +0.000 A 
ATOM     11  N   UNL     1       2.090   3.810  19.731  0.00  0.00    +0.000 NA
ATOM     12  H   UNL     1       0.718   2.025  21.933  0.00  0.00    +0.000 HD
ATOM     13  H   UNL     1       0.045   3.180  20.834  0.00  0.00    +0.000 HD
ENDROOT
BRANCH   4  14
ATOM     14  O   UNL     1       5.207   1.703  21.118  0.00  0.00    +0.000 OA
ATOM     15  H   UNL     1       5.971   2.028  20.609  0.00  0.00    +0.000 HD
ENDBRANCH   4  14
BRANCH   7  16
ATOM     16  S   UNL     1       7.197   4.779  17.046  0.00  0.00    +0.000 S 
BRANCH  16  17
ATOM     17  C   UNL     1       6.607   5.804  15.663  0.00  0.00    +0.000 C 
BRANCH  17  18
ATOM     18  C   UNL     1       6.590   5.019  14.366  0.00  0.00    +0.000 A 
ATOM     19  C   UNL     1       7.588   5.214  13.397  0.00  0.00    +0.000 A 
ATOM     20  C   UNL     1       7.581   4.481  12.207  0.00  0.00    +0.000 A 
ATOM     21  C   UNL     1       6.572   3.551  11.963  0.00  0.00    +0.000 A 
ATOM     22  C   UNL     1       5.564   3.360  12.907  0.00  0.00    +0.000 A 
ATOM     23  C   UNL     1       5.570   4.092  14.099  0.00  0.00    +0.000 A 
ENDBRANCH  17  18
ENDBRANCH  16  17
ENDBRANCH   7  16
TORSDOF 4
ENDMDL
