MODEL 1
REMARK VINA RESULT:      -7.3      0.000      0.000
REMARK  Name = 
REMARK  12 active torsions:
REMARK  status: ('A' for Active; 'I' for Inactive)
REMARK    1  A    between atoms: C_1  and  C_2
REMARK    2  A    between atoms: C_5  and  C_6
REMARK    3  A    between atoms: C_7  and  O_8
REMARK    4  A    between atoms: O_8  and  C_9
REMARK    5  A    between atoms: C_9  and  C_10
REMARK    6  A    between atoms: C_12  and  C_13
REMARK    7  A    between atoms: C_14  and  C_15
REMARK    8  A    between atoms: N_17  and  C_18
REMARK    9  A    between atoms: C_21  and  O_22
REMARK   10  A    between atoms: O_22  and  C_23
REMARK   11  A    between atoms: C_23  and  C_24
REMARK   12  A    between atoms: C_23  and  C_25
REMARK                            x       y       z     vdW  Elec       q    Type
REMARK                         _______ _______ _______ _____ _____    ______ ____
ROOT
ATOM      1  C   UNL     1      -0.387  10.646  21.772  0.00  0.00    +0.000 A 
ATOM      2  N   UNL     1       0.186  11.617  21.101  0.00  0.00    +0.000 NA
ATOM      3  C   UNL     1       0.880  11.120  20.008  0.00  0.00    +0.000 A 
ATOM      4  C   UNL     1       1.558  12.123  19.135  0.00  0.00    +0.000 C 
ATOM      5  C   UNL     1       0.832   9.736  19.877  0.00  0.00    +0.000 A 
ATOM      6  S   UNL     1      -0.086   9.069  21.169  0.00  0.00    +0.000 S 
ENDROOT
BRANCH   5   7
ATOM      7  C   UNL     1       1.432   8.894  18.842  0.00  0.00    +0.000 C 
ATOM      8  O   UNL     1       1.218   9.121  17.656  0.00  0.00    +0.000 OA
ATOM      9  N   UNL     1       2.202   7.827  19.308  0.00  0.00    +0.000 N 
ATOM     10  H   UNL     1       2.196   7.672  20.308  0.00  0.00    +0.000 HD
BRANCH   9  11
ATOM     11  C   UNL     1       2.885   6.873  18.508  0.00  0.00    +0.000 A 
ATOM     12  C   UNL     1       4.020   7.192  17.770  0.00  0.00    +0.000 A 
ATOM     13  C   UNL     1       4.641   6.235  16.965  0.00  0.00    +0.000 A 
ATOM     14  C   UNL     1       4.153   4.933  16.899  0.00  0.00    +0.000 A 
ATOM     15  C   UNL     1       3.021   4.601  17.643  0.00  0.00    +0.000 A 
ATOM     16  C   UNL     1       2.392   5.564  18.453  0.00  0.00    +0.000 A 
BRANCH  14  17
ATOM     17  O   UNL     1       4.811   4.098  16.037  0.00  0.00    +0.000 OA
BRANCH  17  18
ATOM     18  C   UNL     1       5.781   4.682  15.161  0.00  0.00    +0.000 C 
ATOM     19  C   UNL     1       7.177   4.484  15.744  0.00  0.00    +0.000 C 
ATOM     20  C   UNL     1       5.684   3.967  13.816  0.00  0.00    +0.000 C 
ENDBRANCH  17  18
ENDBRANCH  14  17
ENDBRANCH   9  11
ENDBRANCH   5   7
BRANCH   1  21
ATOM     21  C   UNL     1      -1.176  10.856  23.032  0.00  0.00    +0.000 C 
BRANCH  21  22
ATOM     22  O   UNL     1      -1.033  12.217  23.450  0.00  0.00    +0.000 OA
BRANCH  22  29
ATOM     23  C   UNL     1      -5.947  12.760  24.013  0.00  0.00    +0.000 C 
ATOM     24  C   UNL     1      -4.586  13.320  23.717  0.00  0.00    +0.000 A 
ATOM     25  C   UNL     1      -4.419  14.675  23.427  0.00  0.00    +0.000 A 
ATOM     26  C   UNL     1      -3.147  15.180  23.156  0.00  0.00    +0.000 A 
ATOM     27  C   UNL     1      -2.021  14.341  23.168  0.00  0.00    +0.000 A 
ATOM     28  C   UNL     1      -0.666  14.920  22.871  0.00  0.00    +0.000 C 
ATOM     29  C   UNL     1      -2.181  12.975  23.459  0.00  0.00    +0.000 A 
ATOM     30  C   UNL     1      -3.463  12.479  23.732  0.00  0.00    +0.000 A 
ENDBRANCH  22  29
ENDBRANCH  21  22
ENDBRANCH   1  21
TORSDOF 7
ENDMDL
MODEL 2
REMARK VINA RESULT:      -6.9      1.400      2.197
REMARK  Name = 
REMARK  12 active torsions:
REMARK  status: ('A' for Active; 'I' for Inactive)
REMARK    1  A    between atoms: C_1  and  C_2
REMARK    2  A    between atoms: C_5  and  C_6
REMARK    3  A    between atoms: C_7  and  O_8
REMARK    4  A    between atoms: O_8  and  C_9
REMARK    5  A    between atoms: C_9  and  C_10
REMARK    6  A    between atoms: C_12  and  C_13
REMARK    7  A    between atoms: C_14  and  C_15
REMARK    8  A    between atoms: N_17  and  C_18
REMARK    9  A    between atoms: C_21  and  O_22
REMARK   10  A    between atoms: O_22  and  C_23
REMARK   11  A    between atoms: C_23  and  C_24
REMARK   12  A    between atoms: C_23  and  C_25
REMARK                            x       y       z     vdW  Elec       q    Type
REMARK                         _______ _______ _______ _____ _____    ______ ____
ROOT
ATOM      1  C   UNL     1       0.031  11.740  21.363  0.00  0.00    +0.000 A 
ATOM      2  N   UNL     1      -0.397  10.600  21.851  0.00  0.00    +0.000 NA
ATOM      3  C   UNL     1       0.015   9.537  21.061  0.00  0.00    +0.000 A 
ATOM      4  C   UNL     1      -0.378   8.172  21.519  0.00  0.00    +0.000 C 
ATOM      5  C   UNL     1       0.755   9.906  19.943  0.00  0.00    +0.000 A 
ATOM      6  S   UNL     1       0.907  11.618  19.893  0.00  0.00    +0.000 S 
ENDROOT
BRANCH   5   7
ATOM      7  C   UNL     1       1.353   9.049  18.919  0.00  0.00    +0.000 C 
ATOM      8  O   UNL     1       1.144   9.264  17.729  0.00  0.00    +0.000 OA
ATOM      9  N   UNL     1       2.117   7.983  19.398  0.00  0.00    +0.000 N 
ATOM     10  H   UNL     1       2.107   7.839  20.400  0.00  0.00    +0.000 HD
BRANCH   9  11
ATOM     11  C   UNL     1       2.797   7.016  18.611  0.00  0.00    +0.000 A 
ATOM     12  C   UNL     1       3.877   7.342  17.798  0.00  0.00    +0.000 A 
ATOM     13  C   UNL     1       4.495   6.370  17.008  0.00  0.00    +0.000 A 
ATOM     14  C   UNL     1       4.060   5.048  17.033  0.00  0.00    +0.000 A 
ATOM     15  C   UNL     1       2.983   4.710  17.853  0.00  0.00    +0.000 A 
ATOM     16  C   UNL     1       2.357   5.688  18.648  0.00  0.00    +0.000 A 
BRANCH  14  17
ATOM     17  O   UNL     1       4.707   4.196  16.180  0.00  0.00    +0.000 OA
BRANCH  17  18
ATOM     18  C   UNL     1       5.821   4.715  15.445  0.00  0.00    +0.000 C 
ATOM     19  C   UNL     1       7.117   4.345  16.160  0.00  0.00    +0.000 C 
ATOM     20  C   UNL     1       5.803   4.077  14.059  0.00  0.00    +0.000 C 
ENDBRANCH  17  18
ENDBRANCH  14  17
ENDBRANCH   9  11
ENDBRANCH   5   7
BRANCH   1  21
ATOM     21  C   UNL     1      -0.285  13.076  21.968  0.00  0.00    +0.000 C 
BRANCH  21  22
ATOM     22  O   UNL     1      -1.705  13.226  22.054  0.00  0.00    +0.000 OA
BRANCH  22  29
ATOM     23  C   UNL     1      -1.059  15.837  26.240  0.00  0.00    +0.000 C 
ATOM     24  C   UNL     1      -1.939  15.281  25.158  0.00  0.00    +0.000 A 
ATOM     25  C   UNL     1      -3.315  15.514  25.165  0.00  0.00    +0.000 A 
ATOM     26  C   UNL     1      -4.118  14.991  24.152  0.00  0.00    +0.000 A 
ATOM     27  C   UNL     1      -3.561  14.225  23.115  0.00  0.00    +0.000 A 
ATOM     28  C   UNL     1      -4.457  13.678  22.039  0.00  0.00    +0.000 C 
ATOM     29  C   UNL     1      -2.176  13.986  23.100  0.00  0.00    +0.000 A 
ATOM     30  C   UNL     1      -1.378  14.517  24.123  0.00  0.00    +0.000 A 
ENDBRANCH  22  29
ENDBRANCH  21  22
ENDBRANCH   1  21
TORSDOF 7
ENDMDL
MODEL 3
REMARK VINA RESULT:      -6.9      6.843     10.127
REMARK  Name = 
REMARK  12 active torsions:
REMARK  status: ('A' for Active; 'I' for Inactive)
REMARK    1  A    between atoms: C_1  and  C_2
REMARK    2  A    between atoms: C_5  and  C_6
REMARK    3  A    between atoms: C_7  and  O_8
REMARK    4  A    between atoms: O_8  and  C_9
REMARK    5  A    between atoms: C_9  and  C_10
REMARK    6  A    between atoms: C_12  and  C_13
REMARK    7  A    between atoms: C_14  and  C_15
REMARK    8  A    between atoms: N_17  and  C_18
REMARK    9  A    between atoms: C_21  and  O_22
REMARK   10  A    between atoms: O_22  and  C_23
REMARK   11  A    between atoms: C_23  and  C_24
REMARK   12  A    between atoms: C_23  and  C_25
REMARK                            x       y       z     vdW  Elec       q    Type
REMARK                         _______ _______ _______ _____ _____    ______ ____
ROOT
ATOM      1  C   UNL     1       5.774   4.971  17.526  0.00  0.00    +0.000 A 
ATOM      2  N   UNL     1       6.644   4.779  18.489  0.00  0.00    +0.000 NA
ATOM      3  C   UNL     1       7.384   5.928  18.725  0.00  0.00    +0.000 A 
ATOM      4  C   UNL     1       8.395   5.859  19.821  0.00  0.00    +0.000 C 
ATOM      5  C   UNL     1       7.062   6.999  17.897  0.00  0.00    +0.000 A 
ATOM      6  S   UNL     1       5.823   6.526  16.802  0.00  0.00    +0.000 S 
ENDROOT
BRANCH   5   7
ATOM      7  C   UNL     1       7.627   8.347  17.886  0.00  0.00    +0.000 C 
ATOM      8  O   UNL     1       7.276   9.161  17.037  0.00  0.00    +0.000 OA
ATOM      9  N   UNL     1       8.594   8.602  18.861  0.00  0.00    +0.000 N 
ATOM     10  H   UNL     1       8.888   7.810  19.419  0.00  0.00    +0.000 HD
BRANCH   9  11
ATOM     11  C   UNL     1       9.286   9.827  19.057  0.00  0.00    +0.000 A 
ATOM     12  C   UNL     1       9.351  10.457  20.294  0.00  0.00    +0.000 A 
ATOM     13  C   UNL     1      10.009  11.681  20.438  0.00  0.00    +0.000 A 
ATOM     14  C   UNL     1      10.636  12.286  19.352  0.00  0.00    +0.000 A 
ATOM     15  C   UNL     1      10.584  11.656  18.109  0.00  0.00    +0.000 A 
ATOM     16  C   UNL     1       9.919  10.425  17.960  0.00  0.00    +0.000 A 
BRANCH  14  17
ATOM     17  O   UNL     1      11.203  13.507  19.601  0.00  0.00    +0.000 OA
BRANCH  17  18
ATOM     18  C   UNL     1      10.339  14.561  20.038  0.00  0.00    +0.000 C 
ATOM     19  C   UNL     1      11.161  15.627  20.757  0.00  0.00    +0.000 C 
ATOM     20  C   UNL     1       9.685  15.171  18.801  0.00  0.00    +0.000 C 
ENDBRANCH  17  18
ENDBRANCH  14  17
ENDBRANCH   9  11
ENDBRANCH   5   7
BRANCH   1  21
ATOM     21  C   UNL     1       4.854   3.904  17.009  0.00  0.00    +0.000 C 
BRANCH  21  22
ATOM     22  O   UNL     1       3.501   4.344  17.154  0.00  0.00    +0.000 OA
BRANCH  22  29
ATOM     23  C   UNL     1       2.511   2.418  21.633  0.00  0.00    +0.000 C 
ATOM     24  C   UNL     1       2.507   3.563  20.663  0.00  0.00    +0.000 A 
ATOM     25  C   UNL     1       2.003   4.811  21.032  0.00  0.00    +0.000 A 
ATOM     26  C   UNL     1       2.008   5.865  20.119  0.00  0.00    +0.000 A 
ATOM     27  C   UNL     1       2.515   5.691  18.821  0.00  0.00    +0.000 A 
ATOM     28  C   UNL     1       2.505   6.850  17.864  0.00  0.00    +0.000 C 
ATOM     29  C   UNL     1       3.025   4.437  18.441  0.00  0.00    +0.000 A 
ATOM     30  C   UNL     1       3.016   3.385  19.367  0.00  0.00    +0.000 A 
ENDBRANCH  22  29
ENDBRANCH  21  22
ENDBRANCH   1  21
TORSDOF 7
ENDMDL
MODEL 4
REMARK VINA RESULT:      -6.9      1.975     11.374
REMARK  Name = 
REMARK  12 active torsions:
REMARK  status: ('A' for Active; 'I' for Inactive)
REMARK    1  A    between atoms: C_1  and  C_2
REMARK    2  A    between atoms: C_5  and  C_6
REMARK    3  A    between atoms: C_7  and  O_8
REMARK    4  A    between atoms: O_8  and  C_9
REMARK    5  A    between atoms: C_9  and  C_10
REMARK    6  A    between atoms: C_12  and  C_13
REMARK    7  A    between atoms: C_14  and  C_15
REMARK    8  A    between atoms: N_17  and  C_18
REMARK    9  A    between atoms: C_21  and  O_22
REMARK   10  A    between atoms: O_22  and  C_23
REMARK   11  A    between atoms: C_23  and  C_24
REMARK   12  A    between atoms: C_23  and  C_25
REMARK                            x       y       z     vdW  Elec       q    Type
REMARK                         _______ _______ _______ _____ _____    ______ ____
ROOT
ATOM      1  C   UNL     1       1.479   7.862  20.530  0.00  0.00    +0.000 A 
ATOM      2  N   UNL     1       1.697   8.635  19.492  0.00  0.00    +0.000 NA
ATOM      3  C   UNL     1       0.940   9.794  19.569  0.00  0.00    +0.000 A 
ATOM      4  C   UNL     1       1.114  10.781  18.463  0.00  0.00    +0.000 C 
ATOM      5  C   UNL     1       0.124   9.873  20.693  0.00  0.00    +0.000 A 
ATOM      6  S   UNL     1       0.312   8.451  21.640  0.00  0.00    +0.000 S 
ENDROOT
BRANCH   5   7
ATOM      7  C   UNL     1      -0.780  10.952  21.092  0.00  0.00    +0.000 C 
ATOM      8  O   UNL     1      -1.431  11.561  20.250  0.00  0.00    +0.000 OA
ATOM      9  N   UNL     1      -0.802  11.242  22.458  0.00  0.00    +0.000 N 
ATOM     10  H   UNL     1      -0.124  10.755  23.031  0.00  0.00    +0.000 HD
BRANCH   9  11
ATOM     11  C   UNL     1      -1.592  12.237  23.092  0.00  0.00    +0.000 A 
ATOM     12  C   UNL     1      -2.891  11.995  23.525  0.00  0.00    +0.000 A 
ATOM     13  C   UNL     1      -3.650  13.012  24.110  0.00  0.00    +0.000 A 
ATOM     14  C   UNL     1      -3.116  14.285  24.293  0.00  0.00    +0.000 A 
ATOM     15  C   UNL     1      -1.811  14.535  23.869  0.00  0.00    +0.000 A 
ATOM     16  C   UNL     1      -1.045  13.513  23.278  0.00  0.00    +0.000 A 
BRANCH  14  17
ATOM     17  O   UNL     1      -3.969  15.213  24.827  0.00  0.00    +0.000 OA
BRANCH  17  18
ATOM     18  C   UNL     1      -4.369  16.303  23.990  0.00  0.00    +0.000 C 
ATOM     19  C   UNL     1      -5.867  16.211  23.717  0.00  0.00    +0.000 C 
ATOM     20  C   UNL     1      -4.066  17.599  24.737  0.00  0.00    +0.000 C 
ENDBRANCH  17  18
ENDBRANCH  14  17
ENDBRANCH   9  11
ENDBRANCH   5   7
BRANCH   1  21
ATOM     21  C   UNL     1       2.117   6.517  20.716  0.00  0.00    +0.000 C 
BRANCH  21  22
ATOM     22  O   UNL     1       1.455   5.567  19.877  0.00  0.00    +0.000 OA
BRANCH  22  29
ATOM     23  C   UNL     1       5.082   5.641  16.472  0.00  0.00    +0.000 C 
ATOM     24  C   UNL     1       3.988   4.930  17.215  0.00  0.00    +0.000 A 
ATOM     25  C   UNL     1       3.692   3.594  16.943  0.00  0.00    +0.000 A 
ATOM     26  C   UNL     1       2.673   2.947  17.643  0.00  0.00    +0.000 A 
ATOM     27  C   UNL     1       1.932   3.624  18.625  0.00  0.00    +0.000 A 
ATOM     28  C   UNL     1       0.842   2.895  19.360  0.00  0.00    +0.000 C 
ATOM     29  C   UNL     1       2.224   4.971  18.905  0.00  0.00    +0.000 A 
ATOM     30  C   UNL     1       3.251   5.610  18.196  0.00  0.00    +0.000 A 
ENDBRANCH  22  29
ENDBRANCH  21  22
ENDBRANCH   1  21
TORSDOF 7
ENDMDL
MODEL 5
REMARK VINA RESULT:      -6.9      1.726      2.330
REMARK  Name = 
REMARK  12 active torsions:
REMARK  status: ('A' for Active; 'I' for Inactive)
REMARK    1  A    between atoms: C_1  and  C_2
REMARK    2  A    between atoms: C_5  and  C_6
REMARK    3  A    between atoms: C_7  and  O_8
REMARK    4  A    between atoms: O_8  and  C_9
REMARK    5  A    between atoms: C_9  and  C_10
REMARK    6  A    between atoms: C_12  and  C_13
REMARK    7  A    between atoms: C_14  and  C_15
REMARK    8  A    between atoms: N_17  and  C_18
REMARK    9  A    between atoms: C_21  and  O_22
REMARK   10  A    between atoms: O_22  and  C_23
REMARK   11  A    between atoms: C_23  and  C_24
REMARK   12  A    between atoms: C_23  and  C_25
REMARK                            x       y       z     vdW  Elec       q    Type
REMARK                         _______ _______ _______ _____ _____    ______ ____
ROOT
ATOM      1  C   UNL     1      -1.024  11.819  20.549  0.00  0.00    +0.000 A 
ATOM      2  N   UNL     1      -1.706  11.459  19.488  0.00  0.00    +0.000 NA
ATOM      3  C   UNL     1      -0.955  10.623  18.675  0.00  0.00    +0.000 A 
ATOM      4  C   UNL     1      -1.624  10.111  17.443  0.00  0.00    +0.000 C 
ATOM      5  C   UNL     1       0.330  10.371  19.143  0.00  0.00    +0.000 A 
ATOM      6  S   UNL     1       0.583  11.223  20.615  0.00  0.00    +0.000 S 
ENDROOT
BRANCH   5   7
ATOM      7  C   UNL     1       1.370   9.530  18.551  0.00  0.00    +0.000 C 
ATOM      8  O   UNL     1       1.936   9.875  17.519  0.00  0.00    +0.000 OA
ATOM      9  N   UNL     1       1.620   8.328  19.216  0.00  0.00    +0.000 N 
ATOM     10  H   UNL     1       0.998   8.100  19.981  0.00  0.00    +0.000 HD
BRANCH   9  11
ATOM     11  C   UNL     1       2.576   7.345  18.843  0.00  0.00    +0.000 A 
ATOM     12  C   UNL     1       3.343   7.451  17.688  0.00  0.00    +0.000 A 
ATOM     13  C   UNL     1       4.245   6.445  17.335  0.00  0.00    +0.000 A 
ATOM     14  C   UNL     1       4.414   5.323  18.142  0.00  0.00    +0.000 A 
ATOM     15  C   UNL     1       3.655   5.212  19.307  0.00  0.00    +0.000 A 
ATOM     16  C   UNL     1       2.744   6.224  19.664  0.00  0.00    +0.000 A 
BRANCH  14  17
ATOM     17  O   UNL     1       5.286   4.380  17.669  0.00  0.00    +0.000 OA
BRANCH  17  18
ATOM     18  C   UNL     1       6.399   4.837  16.893  0.00  0.00    +0.000 C 
ATOM     19  C   UNL     1       7.691   4.592  17.666  0.00  0.00    +0.000 C 
ATOM     20  C   UNL     1       6.421   4.037  15.594  0.00  0.00    +0.000 C 
ENDBRANCH  17  18
ENDBRANCH  14  17
ENDBRANCH   9  11
ENDBRANCH   5   7
BRANCH   1  21
ATOM     21  C   UNL     1      -1.547  12.756  21.598  0.00  0.00    +0.000 C 
BRANCH  21  22
ATOM     22  O   UNL     1      -2.883  12.377  21.939  0.00  0.00    +0.000 OA
BRANCH  22  29
ATOM     23  C   UNL     1      -3.514  16.162  25.106  0.00  0.00    +0.000 C 
ATOM     24  C   UNL     1      -4.043  15.201  24.081  0.00  0.00    +0.000 A 
ATOM     25  C   UNL     1      -5.381  15.241  23.687  0.00  0.00    +0.000 A 
ATOM     26  C   UNL     1      -5.857  14.342  22.733  0.00  0.00    +0.000 A 
ATOM     27  C   UNL     1      -5.004  13.387  22.155  0.00  0.00    +0.000 A 
ATOM     28  C   UNL     1      -5.550  12.435  21.129  0.00  0.00    +0.000 C 
ATOM     29  C   UNL     1      -3.654  13.340  22.546  0.00  0.00    +0.000 A 
ATOM     30  C   UNL     1      -3.187  14.249  23.505  0.00  0.00    +0.000 A 
ENDBRANCH  22  29
ENDBRANCH  21  22
ENDBRANCH   1  21
TORSDOF 7
ENDMDL
MODEL 6
REMARK VINA RESULT:      -6.9      2.136     11.244
REMARK  Name = 
REMARK  12 active torsions:
REMARK  status: ('A' for Active; 'I' for Inactive)
REMARK    1  A    between atoms: C_1  and  C_2
REMARK    2  A    between atoms: C_5  and  C_6
REMARK    3  A    between atoms: C_7  and  O_8
REMARK    4  A    between atoms: O_8  and  C_9
REMARK    5  A    between atoms: C_9  and  C_10
REMARK    6  A    between atoms: C_12  and  C_13
REMARK    7  A    between atoms: C_14  and  C_15
REMARK    8  A    between atoms: N_17  and  C_18
REMARK    9  A    between atoms: C_21  and  O_22
REMARK   10  A    between atoms: O_22  and  C_23
REMARK   11  A    between atoms: C_23  and  C_24
REMARK   12  A    between atoms: C_23  and  C_25
REMARK                            x       y       z     vdW  Elec       q    Type
REMARK                         _______ _______ _______ _____ _____    ______ ____
ROOT
ATOM      1  C   UNL     1       1.706   8.653  18.768  0.00  0.00    +0.000 A 
ATOM      2  N   UNL     1       1.586   8.420  20.054  0.00  0.00    +0.000 NA
ATOM      3  C   UNL     1       0.623   9.243  20.619  0.00  0.00    +0.000 A 
ATOM      4  C   UNL     1       0.360   9.062  22.076  0.00  0.00    +0.000 C 
ATOM      5  C   UNL     1       0.025  10.124  19.724  0.00  0.00    +0.000 A 
ATOM      6  S   UNL     1       0.712   9.912  18.162  0.00  0.00    +0.000 S 
ENDROOT
BRANCH   5   7
ATOM      7  C   UNL     1      -1.029  11.107  19.976  0.00  0.00    +0.000 C 
ATOM      8  O   UNL     1      -2.010  11.167  19.243  0.00  0.00    +0.000 OA
ATOM      9  N   UNL     1      -0.805  11.964  21.055  0.00  0.00    +0.000 N 
ATOM     10  H   UNL     1       0.102  11.897  21.501  0.00  0.00    +0.000 HD
BRANCH   9  11
ATOM     11  C   UNL     1      -1.672  12.997  21.502  0.00  0.00    +0.000 A 
ATOM     12  C   UNL     1      -1.599  14.296  21.012  0.00  0.00    +0.000 A 
ATOM     13  C   UNL     1      -2.444  15.293  21.504  0.00  0.00    +0.000 A 
ATOM     14  C   UNL     1      -3.395  15.005  22.480  0.00  0.00    +0.000 A 
ATOM     15  C   UNL     1      -3.481  13.702  22.971  0.00  0.00    +0.000 A 
ATOM     16  C   UNL     1      -2.629  12.696  22.478  0.00  0.00    +0.000 A 
BRANCH  14  17
ATOM     17  O   UNL     1      -4.130  16.071  22.923  0.00  0.00    +0.000 OA
BRANCH  17  18
ATOM     18  C   UNL     1      -4.874  15.904  24.135  0.00  0.00    +0.000 C 
ATOM     19  C   UNL     1      -4.597  17.080  25.067  0.00  0.00    +0.000 C 
ATOM     20  C   UNL     1      -6.356  15.879  23.772  0.00  0.00    +0.000 C 
ENDBRANCH  17  18
ENDBRANCH  14  17
ENDBRANCH   9  11
ENDBRANCH   5   7
BRANCH   1  21
ATOM     21  C   UNL     1       2.696   7.953  17.884  0.00  0.00    +0.000 C 
BRANCH  21  22
ATOM     22  O   UNL     1       3.359   6.935  18.639  0.00  0.00    +0.000 OA
BRANCH  22  29
ATOM     23  C   UNL     1       0.722   2.721  18.813  0.00  0.00    +0.000 C 
ATOM     24  C   UNL     1       1.871   3.533  18.293  0.00  0.00    +0.000 A 
ATOM     25  C   UNL     1       2.771   2.991  17.374  0.00  0.00    +0.000 A 
ATOM     26  C   UNL     1       3.834   3.760  16.899  0.00  0.00    +0.000 A 
ATOM     27  C   UNL     1       4.016   5.082  17.334  0.00  0.00    +0.000 A 
ATOM     28  C   UNL     1       5.172   5.882  16.800  0.00  0.00    +0.000 C 
ATOM     29  C   UNL     1       3.114   5.637  18.259  0.00  0.00    +0.000 A 
ATOM     30  C   UNL     1       2.049   4.855  18.728  0.00  0.00    +0.000 A 
ENDBRANCH  22  29
ENDBRANCH  21  22
ENDBRANCH   1  21
TORSDOF 7
ENDMDL
MODEL 7
REMARK VINA RESULT:      -6.8      1.827     11.436
REMARK  Name = 
REMARK  12 active torsions:
REMARK  status: ('A' for Active; 'I' for Inactive)
REMARK    1  A    between atoms: C_1  and  C_2
REMARK    2  A    between atoms: C_5  and  C_6
REMARK    3  A    between atoms: C_7  and  O_8
REMARK    4  A    between atoms: O_8  and  C_9
REMARK    5  A    between atoms: C_9  and  C_10
REMARK    6  A    between atoms: C_12  and  C_13
REMARK    7  A    between atoms: C_14  and  C_15
REMARK    8  A    between atoms: N_17  and  C_18
REMARK    9  A    between atoms: C_21  and  O_22
REMARK   10  A    between atoms: O_22  and  C_23
REMARK   11  A    between atoms: C_23  and  C_24
REMARK   12  A    between atoms: C_23  and  C_25
REMARK                            x       y       z     vdW  Elec       q    Type
REMARK                         _______ _______ _______ _____ _____    ______ ____
ROOT
ATOM      1  C   UNL     1       1.904   7.863  19.734  0.00  0.00    +0.000 A 
ATOM      2  N   UNL     1       1.861   8.702  18.726  0.00  0.00    +0.000 NA
ATOM      3  C   UNL     1       1.262   9.896  19.100  0.00  0.00    +0.000 A 
ATOM      4  C   UNL     1       1.175  10.957  18.054  0.00  0.00    +0.000 C 
ATOM      5  C   UNL     1       0.832   9.933  20.423  0.00  0.00    +0.000 A 
ATOM      6  S   UNL     1       1.178   8.429  21.182  0.00  0.00    +0.000 S 
ENDROOT
BRANCH   5   7
ATOM      7  C   UNL     1       0.183  11.028  21.143  0.00  0.00    +0.000 C 
ATOM      8  O   UNL     1       0.852  11.832  21.785  0.00  0.00    +0.000 OA
ATOM      9  N   UNL     1      -1.211  11.052  21.071  0.00  0.00    +0.000 N 
ATOM     10  H   UNL     1      -1.650  10.261  20.617  0.00  0.00    +0.000 HD
BRANCH   9  11
ATOM     11  C   UNL     1      -2.067  12.008  21.679  0.00  0.00    +0.000 A 
ATOM     12  C   UNL     1      -2.683  13.024  20.958  0.00  0.00    +0.000 A 
ATOM     13  C   UNL     1      -3.487  13.969  21.599  0.00  0.00    +0.000 A 
ATOM     14  C   UNL     1      -3.710  13.902  22.971  0.00  0.00    +0.000 A 
ATOM     15  C   UNL     1      -3.104  12.880  23.703  0.00  0.00    +0.000 A 
ATOM     16  C   UNL     1      -2.292  11.928  23.059  0.00  0.00    +0.000 A 
BRANCH  14  17
ATOM     17  O   UNL     1      -4.472  14.910  23.497  0.00  0.00    +0.000 OA
BRANCH  17  18
ATOM     18  C   UNL     1      -5.827  15.020  23.046  0.00  0.00    +0.000 C 
ATOM     19  C   UNL     1      -6.666  13.917  23.684  0.00  0.00    +0.000 C 
ATOM     20  C   UNL     1      -6.356  16.382  23.486  0.00  0.00    +0.000 C 
ENDBRANCH  17  18
ENDBRANCH  14  17
ENDBRANCH   9  11
ENDBRANCH   5   7
BRANCH   1  21
ATOM     21  C   UNL     1       2.454   6.471  19.636  0.00  0.00    +0.000 C 
BRANCH  21  22
ATOM     22  O   UNL     1       2.476   6.073  18.263  0.00  0.00    +0.000 OA
BRANCH  22  29
ATOM     23  C   UNL     1       7.314   6.635  17.244  0.00  0.00    +0.000 C 
ATOM     24  C   UNL     1       6.056   5.816  17.248  0.00  0.00    +0.000 A 
ATOM     25  C   UNL     1       6.050   4.514  16.745  0.00  0.00    +0.000 A 
ATOM     26  C   UNL     1       4.873   3.765  16.757  0.00  0.00    +0.000 A 
ATOM     27  C   UNL     1       3.682   4.304  17.271  0.00  0.00    +0.000 A 
ATOM     28  C   UNL     1       2.433   3.468  17.269  0.00  0.00    +0.000 C 
ATOM     29  C   UNL     1       3.680   5.615  17.780  0.00  0.00    +0.000 A 
ATOM     30  C   UNL     1       4.869   6.357  17.764  0.00  0.00    +0.000 A 
ENDBRANCH  22  29
ENDBRANCH  21  22
ENDBRANCH   1  21
TORSDOF 7
ENDMDL
MODEL 8
REMARK VINA RESULT:      -6.8      2.045     11.049
REMARK  Name = 
REMARK  12 active torsions:
REMARK  status: ('A' for Active; 'I' for Inactive)
REMARK    1  A    between atoms: C_1  and  C_2
REMARK    2  A    between atoms: C_5  and  C_6
REMARK    3  A    between atoms: C_7  and  O_8
REMARK    4  A    between atoms: O_8  and  C_9
REMARK    5  A    between atoms: C_9  and  C_10
REMARK    6  A    between atoms: C_12  and  C_13
REMARK    7  A    between atoms: C_14  and  C_15
REMARK    8  A    between atoms: N_17  and  C_18
REMARK    9  A    between atoms: C_21  and  O_22
REMARK   10  A    between atoms: O_22  and  C_23
REMARK   11  A    between atoms: C_23  and  C_24
REMARK   12  A    between atoms: C_23  and  C_25
REMARK                            x       y       z     vdW  Elec       q    Type
REMARK                         _______ _______ _______ _____ _____    ______ ____
ROOT
ATOM      1  C   UNL     1       2.619   5.712  18.958  0.00  0.00    +0.000 A 
ATOM      2  N   UNL     1       2.689   6.732  18.135  0.00  0.00    +0.000 NA
ATOM      3  C   UNL     1       2.205   7.886  18.733  0.00  0.00    +0.000 A 
ATOM      4  C   UNL     1       2.255   9.133  17.916  0.00  0.00    +0.000 C 
ATOM      5  C   UNL     1       1.747   7.709  20.034  0.00  0.00    +0.000 A 
ATOM      6  S   UNL     1       1.918   6.058  20.484  0.00  0.00    +0.000 S 
ENDROOT
BRANCH   5   7
ATOM      7  C   UNL     1       1.195   8.705  20.952  0.00  0.00    +0.000 C 
ATOM      8  O   UNL     1       1.661   8.838  22.079  0.00  0.00    +0.000 OA
ATOM      9  N   UNL     1       0.106   9.432  20.466  0.00  0.00    +0.000 N 
ATOM     10  H   UNL     1      -0.264   9.140  19.570  0.00  0.00    +0.000 HD
BRANCH   9  11
ATOM     11  C   UNL     1      -0.601  10.450  21.159  0.00  0.00    +0.000 A 
ATOM     12  C   UNL     1      -0.757  10.441  22.541  0.00  0.00    +0.000 A 
ATOM     13  C   UNL     1      -1.493  11.440  23.183  0.00  0.00    +0.000 A 
ATOM     14  C   UNL     1      -2.068  12.479  22.457  0.00  0.00    +0.000 A 
ATOM     15  C   UNL     1      -1.909  12.502  21.072  0.00  0.00    +0.000 A 
ATOM     16  C   UNL     1      -1.170  11.496  20.423  0.00  0.00    +0.000 A 
BRANCH  14  17
ATOM     17  O   UNL     1      -2.809  13.370  23.186  0.00  0.00    +0.000 OA
BRANCH  17  18
ATOM     18  C   UNL     1      -2.329  14.716  23.272  0.00  0.00    +0.000 C 
ATOM     19  C   UNL     1      -0.805  14.708  23.348  0.00  0.00    +0.000 C 
ATOM     20  C   UNL     1      -2.772  15.450  22.010  0.00  0.00    +0.000 C 
ENDBRANCH  17  18
ENDBRANCH  14  17
ENDBRANCH   9  11
ENDBRANCH   5   7
BRANCH   1  21
ATOM     21  C   UNL     1       3.027   4.316  18.590  0.00  0.00    +0.000 C 
BRANCH  21  22
ATOM     22  O   UNL     1       4.434   4.170  18.797  0.00  0.00    +0.000 OA
BRANCH  22  29
ATOM     23  C   UNL     1       5.454   3.970  13.931  0.00  0.00    +0.000 C 
ATOM     24  C   UNL     1       5.811   4.360  15.336  0.00  0.00    +0.000 A 
ATOM     25  C   UNL     1       7.013   5.014  15.612  0.00  0.00    +0.000 A 
ATOM     26  C   UNL     1       7.330   5.371  16.922  0.00  0.00    +0.000 A 
ATOM     27  C   UNL     1       6.453   5.081  17.980  0.00  0.00    +0.000 A 
ATOM     28  C   UNL     1       6.826   5.481  19.380  0.00  0.00    +0.000 C 
ATOM     29  C   UNL     1       5.239   4.423  17.711  0.00  0.00    +0.000 A 
ATOM     30  C   UNL     1       4.931   4.070  16.389  0.00  0.00    +0.000 A 
ENDBRANCH  22  29
ENDBRANCH  21  22
ENDBRANCH   1  21
TORSDOF 7
ENDMDL
MODEL 9
REMARK VINA RESULT:      -6.8      2.021      2.890
REMARK  Name = 
REMARK  12 active torsions:
REMARK  status: ('A' for Active; 'I' for Inactive)
REMARK    1  A    between atoms: C_1  and  C_2
REMARK    2  A    between atoms: C_5  and  C_6
REMARK    3  A    between atoms: C_7  and  O_8
REMARK    4  A    between atoms: O_8  and  C_9
REMARK    5  A    between atoms: C_9  and  C_10
REMARK    6  A    between atoms: C_12  and  C_13
REMARK    7  A    between atoms: C_14  and  C_15
REMARK    8  A    between atoms: N_17  and  C_18
REMARK    9  A    between atoms: C_21  and  O_22
REMARK   10  A    between atoms: O_22  and  C_23
REMARK   11  A    between atoms: C_23  and  C_24
REMARK   12  A    between atoms: C_23  and  C_25
REMARK                            x       y       z     vdW  Elec       q    Type
REMARK                         _______ _______ _______ _____ _____    ______ ____
ROOT
ATOM      1  C   UNL     1      -1.953  12.063  19.969  0.00  0.00    +0.000 A 
ATOM      2  N   UNL     1      -2.388  11.434  18.903  0.00  0.00    +0.000 NA
ATOM      3  C   UNL     1      -1.382  10.668  18.334  0.00  0.00    +0.000 A 
ATOM      4  C   UNL     1      -1.749   9.872  17.127  0.00  0.00    +0.000 C 
ATOM      5  C   UNL     1      -0.158  10.748  18.991  0.00  0.00    +0.000 A 
ATOM      6  S   UNL     1      -0.293  11.822  20.327  0.00  0.00    +0.000 S 
ENDROOT
BRANCH   5   7
ATOM      7  C   UNL     1       1.096  10.065  18.674  0.00  0.00    +0.000 C 
ATOM      8  O   UNL     1       2.033  10.684  18.180  0.00  0.00    +0.000 OA
ATOM      9  N   UNL     1       1.115   8.694  18.934  0.00  0.00    +0.000 N 
ATOM     10  H   UNL     1       0.238   8.279  19.221  0.00  0.00    +0.000 HD
BRANCH   9  11
ATOM     11  C   UNL     1       2.208   7.813  18.716  0.00  0.00    +0.000 A 
ATOM     12  C   UNL     1       3.053   7.931  17.618  0.00  0.00    +0.000 A 
ATOM     13  C   UNL     1       4.094   7.021  17.416  0.00  0.00    +0.000 A 
ATOM     14  C   UNL     1       4.324   5.989  18.322  0.00  0.00    +0.000 A 
ATOM     15  C   UNL     1       3.487   5.868  19.431  0.00  0.00    +0.000 A 
ATOM     16  C   UNL     1       2.436   6.782  19.635  0.00  0.00    +0.000 A 
BRANCH  14  17
ATOM     17  O   UNL     1       5.337   5.129  17.994  0.00  0.00    +0.000 OA
BRANCH  17  18
ATOM     18  C   UNL     1       6.535   5.695  17.452  0.00  0.00    +0.000 C 
ATOM     19  C   UNL     1       7.519   5.982  18.583  0.00  0.00    +0.000 C 
ATOM     20  C   UNL     1       7.142   4.673  16.496  0.00  0.00    +0.000 C 
ENDBRANCH  17  18
ENDBRANCH  14  17
ENDBRANCH   9  11
ENDBRANCH   5   7
BRANCH   1  21
ATOM     21  C   UNL     1      -2.792  13.005  20.782  0.00  0.00    +0.000 C 
BRANCH  21  22
ATOM     22  O   UNL     1      -2.767  12.590  22.150  0.00  0.00    +0.000 OA
BRANCH  22  29
ATOM     23  C   UNL     1      -0.073  16.440  23.784  0.00  0.00    +0.000 C 
ATOM     24  C   UNL     1      -1.193  15.454  23.948  0.00  0.00    +0.000 A 
ATOM     25  C   UNL     1      -2.007  15.477  25.081  0.00  0.00    +0.000 A 
ATOM     26  C   UNL     1      -3.044  14.555  25.216  0.00  0.00    +0.000 A 
ATOM     27  C   UNL     1      -3.286  13.592  24.223  0.00  0.00    +0.000 A 
ATOM     28  C   UNL     1      -4.413  12.614  24.401  0.00  0.00    +0.000 C 
ATOM     29  C   UNL     1      -2.471  13.562  23.077  0.00  0.00    +0.000 A 
ATOM     30  C   UNL     1      -1.432  14.495  22.951  0.00  0.00    +0.000 A 
ENDBRANCH  22  29
ENDBRANCH  21  22
ENDBRANCH   1  21
TORSDOF 7
ENDMDL
