MODEL 1
REMARK VINA RESULT:      -7.9      0.000      0.000
REMARK  Name = 
REMARK  5 active torsions:
REMARK  status: ('A' for Active; 'I' for Inactive)
REMARK    1  A    between atoms: C_1  and  O_2
REMARK    2  A    between atoms: O_2  and  C_3
REMARK    3  A    between atoms: C_10  and  C_12
REMARK    4  A    between atoms: C_12  and  C_13
REMARK    5  A    between atoms: C_16  and  C_17
REMARK                            x       y       z     vdW  Elec       q    Type
REMARK                         _______ _______ _______ _____ _____    ______ ____
ROOT
ATOM      1  C   UNL     1       3.230   3.013  19.821  0.00  0.00    +0.000 A 
ATOM      2  C   UNL     1       2.453   3.152  20.968  0.00  0.00    +0.000 A 
ATOM      3  C   UNL     1       1.901   4.397  21.312  0.00  0.00    +0.000 A 
ATOM      4  C   UNL     1       2.120   5.518  20.486  0.00  0.00    +0.000 A 
ATOM      5  N   UNL     1       1.633   6.800  20.691  0.00  0.00    +0.000 NA
ATOM      6  C   UNL     1       1.959   7.559  19.673  0.00  0.00    +0.000 A 
ATOM      7  N   UNL     1       1.565   8.873  19.594  0.00  0.00    +0.000 N 
ATOM      8  C   UNL     1       1.576   9.646  18.454  0.00  0.00    +0.000 C 
ATOM      9  O   UNL     1       1.863   9.273  17.318  0.00  0.00    +0.000 OA
ATOM     10  S   UNL     1       2.970   6.848  18.502  0.00  0.00    +0.000 S 
ATOM     11  C   UNL     1       2.891   5.350  19.336  0.00  0.00    +0.000 A 
ATOM     12  C   UNL     1       3.462   4.115  18.992  0.00  0.00    +0.000 A 
ATOM     13  H   UNL     1       1.111   9.211  20.430  0.00  0.00    +0.000 HD
ENDROOT
BRANCH   1  15
ATOM     14  C   UNL     1       3.595   1.488  18.029  0.00  0.00    +0.000 C 
ATOM     15  O   UNL     1       3.816   1.855  19.385  0.00  0.00    +0.000 OA
ENDBRANCH   1  15
BRANCH   8  16
ATOM     16  C   UNL     1       1.185  11.095  18.698  0.00  0.00    +0.000 C 
BRANCH  16  17
ATOM     17  C   UNL     1      -0.313  11.261  18.769  0.00  0.00    +0.000 A 
ATOM     18  C   UNL     1      -1.147  10.511  17.932  0.00  0.00    +0.000 A 
ATOM     19  C   UNL     1      -2.530  10.716  17.937  0.00  0.00    +0.000 A 
ATOM     20  C   UNL     1      -3.131  11.650  18.797  0.00  0.00    +0.000 A 
ATOM     21  C   UNL     1      -2.280  12.360  19.664  0.00  0.00    +0.000 A 
ATOM     22  C   UNL     1      -0.893  12.174  19.651  0.00  0.00    +0.000 A 
BRANCH  20  23
ATOM     23  C   UNL     1      -4.594  11.880  18.786  0.00  0.00    +0.000 A 
ATOM     24  C   UNL     1      -5.370  11.627  17.647  0.00  0.00    +0.000 A 
ATOM     25  C   UNL     1      -6.737  11.858  17.683  0.00  0.00    +0.000 A 
ATOM     26  N   UNL     1      -7.393  12.315  18.768  0.00  0.00    +0.000 NA
ATOM     27  C   UNL     1      -6.643  12.558  19.860  0.00  0.00    +0.000 A 
ATOM     28  C   UNL     1      -5.270  12.366  19.914  0.00  0.00    +0.000 A 
ENDBRANCH  20  23
ENDBRANCH  16  17
ENDBRANCH   8  16
TORSDOF 4
ENDMDL
MODEL 2
REMARK VINA RESULT:      -7.6      4.294     10.338
REMARK  Name = 
REMARK  5 active torsions:
REMARK  status: ('A' for Active; 'I' for Inactive)
REMARK    1  A    between atoms: C_1  and  O_2
REMARK    2  A    between atoms: O_2  and  C_3
REMARK    3  A    between atoms: C_10  and  C_12
REMARK    4  A    between atoms: C_12  and  C_13
REMARK    5  A    between atoms: C_16  and  C_17
REMARK                            x       y       z     vdW  Elec       q    Type
REMARK                         _______ _______ _______ _____ _____    ______ ____
ROOT
ATOM      1  C   UNL     1      -1.645  12.121  21.672  0.00  0.00    +0.000 A 
ATOM      2  C   UNL     1      -1.417  11.635  22.957  0.00  0.00    +0.000 A 
ATOM      3  C   UNL     1      -0.652  10.475  23.158  0.00  0.00    +0.000 A 
ATOM      4  C   UNL     1      -0.093   9.798  22.054  0.00  0.00    +0.000 A 
ATOM      5  N   UNL     1       0.689   8.654  22.099  0.00  0.00    +0.000 NA
ATOM      6  C   UNL     1       1.107   8.364  20.891  0.00  0.00    +0.000 A 
ATOM      7  N   UNL     1       1.940   7.298  20.649  0.00  0.00    +0.000 N 
ATOM      8  C   UNL     1       2.677   7.100  19.502  0.00  0.00    +0.000 C 
ATOM      9  O   UNL     1       2.772   7.871  18.550  0.00  0.00    +0.000 OA
ATOM     10  S   UNL     1       0.489   9.329  19.631  0.00  0.00    +0.000 S 
ATOM     11  C   UNL     1      -0.325  10.312  20.779  0.00  0.00    +0.000 A 
ATOM     12  C   UNL     1      -1.104  11.460  20.565  0.00  0.00    +0.000 A 
ATOM     13  H   UNL     1       2.096   6.714  21.459  0.00  0.00    +0.000 HD
ENDROOT
BRANCH   1  15
ATOM     14  C   UNL     1      -1.773  14.164  20.457  0.00  0.00    +0.000 C 
ATOM     15  O   UNL     1      -2.371  13.238  21.355  0.00  0.00    +0.000 OA
ENDBRANCH   1  15
BRANCH   8  16
ATOM     16  C   UNL     1       3.423   5.775  19.480  0.00  0.00    +0.000 C 
BRANCH  16  17
ATOM     17  C   UNL     1       4.049   5.514  18.132  0.00  0.00    +0.000 A 
ATOM     18  C   UNL     1       3.675   4.391  17.386  0.00  0.00    +0.000 A 
ATOM     19  C   UNL     1       4.307   4.100  16.172  0.00  0.00    +0.000 A 
ATOM     20  C   UNL     1       5.308   4.934  15.648  0.00  0.00    +0.000 A 
ATOM     21  C   UNL     1       5.637   6.083  16.390  0.00  0.00    +0.000 A 
ATOM     22  C   UNL     1       5.022   6.370  17.614  0.00  0.00    +0.000 A 
BRANCH  20  23
ATOM     23  C   UNL     1       5.990   4.613  14.373  0.00  0.00    +0.000 A 
ATOM     24  C   UNL     1       5.452   3.694  13.461  0.00  0.00    +0.000 A 
ATOM     25  C   UNL     1       6.128   3.424  12.281  0.00  0.00    +0.000 A 
ATOM     26  N   UNL     1       7.293   4.004  11.932  0.00  0.00    +0.000 NA
ATOM     27  C   UNL     1       7.807   4.885  12.811  0.00  0.00    +0.000 A 
ATOM     28  C   UNL     1       7.209   5.210  14.021  0.00  0.00    +0.000 A 
ENDBRANCH  20  23
ENDBRANCH  16  17
ENDBRANCH   8  16
TORSDOF 4
ENDMDL
MODEL 3
REMARK VINA RESULT:      -7.6      3.979     10.312
REMARK  Name = 
REMARK  5 active torsions:
REMARK  status: ('A' for Active; 'I' for Inactive)
REMARK    1  A    between atoms: C_1  and  O_2
REMARK    2  A    between atoms: O_2  and  C_3
REMARK    3  A    between atoms: C_10  and  C_12
REMARK    4  A    between atoms: C_12  and  C_13
REMARK    5  A    between atoms: C_16  and  C_17
REMARK                            x       y       z     vdW  Elec       q    Type
REMARK                         _______ _______ _______ _____ _____    ______ ____
ROOT
ATOM      1  C   UNL     1      -0.435  11.166  20.175  0.00  0.00    +0.000 A 
ATOM      2  C   UNL     1       0.176  11.371  18.941  0.00  0.00    +0.000 A 
ATOM      3  C   UNL     1       1.106  10.445  18.440  0.00  0.00    +0.000 A 
ATOM      4  C   UNL     1       1.416   9.286  19.181  0.00  0.00    +0.000 A 
ATOM      5  N   UNL     1       2.300   8.284  18.811  0.00  0.00    +0.000 NA
ATOM      6  C   UNL     1       2.265   7.321  19.700  0.00  0.00    +0.000 A 
ATOM      7  N   UNL     1       3.013   6.178  19.559  0.00  0.00    +0.000 N 
ATOM      8  C   UNL     1       2.815   4.999  20.244  0.00  0.00    +0.000 C 
ATOM      9  O   UNL     1       1.901   4.753  21.029  0.00  0.00    +0.000 OA
ATOM     10  S   UNL     1       1.307   7.608  21.079  0.00  0.00    +0.000 S 
ATOM     11  C   UNL     1       0.780   9.098  20.408  0.00  0.00    +0.000 A 
ATOM     12  C   UNL     1      -0.135  10.026  20.927  0.00  0.00    +0.000 A 
ATOM     13  H   UNL     1       3.658   6.209  18.782  0.00  0.00    +0.000 HD
ENDROOT
BRANCH   1  15
ATOM     14  C   UNL     1      -1.586  11.821  22.154  0.00  0.00    +0.000 C 
ATOM     15  O   UNL     1      -1.353  11.996  20.762  0.00  0.00    +0.000 OA
ENDBRANCH   1  15
BRANCH   8  16
ATOM     16  C   UNL     1       3.869   3.942  19.955  0.00  0.00    +0.000 C 
BRANCH  16  17
ATOM     17  C   UNL     1       4.443   4.096  18.568  0.00  0.00    +0.000 A 
ATOM     18  C   UNL     1       3.695   3.717  17.449  0.00  0.00    +0.000 A 
ATOM     19  C   UNL     1       4.249   3.783  16.166  0.00  0.00    +0.000 A 
ATOM     20  C   UNL     1       5.554   4.257  15.954  0.00  0.00    +0.000 A 
ATOM     21  C   UNL     1       6.273   4.678  17.088  0.00  0.00    +0.000 A 
ATOM     22  C   UNL     1       5.732   4.597  18.376  0.00  0.00    +0.000 A 
BRANCH  20  23
ATOM     23  C   UNL     1       6.147   4.307  14.598  0.00  0.00    +0.000 A 
ATOM     24  C   UNL     1       5.629   3.548  13.540  0.00  0.00    +0.000 A 
ATOM     25  C   UNL     1       6.218   3.626  12.287  0.00  0.00    +0.000 A 
ATOM     26  N   UNL     1       7.277   4.407  12.002  0.00  0.00    +0.000 NA
ATOM     27  C   UNL     1       7.773   5.135  13.022  0.00  0.00    +0.000 A 
ATOM     28  C   UNL     1       7.257   5.114  14.310  0.00  0.00    +0.000 A 
ENDBRANCH  20  23
ENDBRANCH  16  17
ENDBRANCH   8  16
TORSDOF 4
ENDMDL
MODEL 4
REMARK VINA RESULT:      -7.5      3.105      9.821
REMARK  Name = 
REMARK  5 active torsions:
REMARK  status: ('A' for Active; 'I' for Inactive)
REMARK    1  A    between atoms: C_1  and  O_2
REMARK    2  A    between atoms: O_2  and  C_3
REMARK    3  A    between atoms: C_10  and  C_12
REMARK    4  A    between atoms: C_12  and  C_13
REMARK    5  A    between atoms: C_16  and  C_17
REMARK                            x       y       z     vdW  Elec       q    Type
REMARK                         _______ _______ _______ _____ _____    ______ ____
ROOT
ATOM      1  C   UNL     1      -6.056  12.303  19.273  0.00  0.00    +0.000 A 
ATOM      2  C   UNL     1      -6.245  11.443  18.195  0.00  0.00    +0.000 A 
ATOM      3  C   UNL     1      -5.146  10.855  17.547  0.00  0.00    +0.000 A 
ATOM      4  C   UNL     1      -3.837  11.121  17.998  0.00  0.00    +0.000 A 
ATOM      5  N   UNL     1      -2.663  10.606  17.468  0.00  0.00    +0.000 NA
ATOM      6  C   UNL     1      -1.647  10.997  18.198  0.00  0.00    +0.000 A 
ATOM      7  N   UNL     1      -0.361  10.595  17.924  0.00  0.00    +0.000 N 
ATOM      8  C   UNL     1       0.707  10.681  18.790  0.00  0.00    +0.000 C 
ATOM      9  O   UNL     1       0.674  11.054  19.961  0.00  0.00    +0.000 OA
ATOM     10  S   UNL     1      -2.001  12.098  19.448  0.00  0.00    +0.000 S 
ATOM     11  C   UNL     1      -3.675  11.975  19.088  0.00  0.00    +0.000 A 
ATOM     12  C   UNL     1      -4.764  12.583  19.730  0.00  0.00    +0.000 A 
ATOM     13  H   UNL     1      -0.274  10.078  17.061  0.00  0.00    +0.000 HD
ENDROOT
BRANCH   1  15
ATOM     14  C   UNL     1      -7.220  12.542  21.336  0.00  0.00    +0.000 C 
ATOM     15  O   UNL     1      -7.046  12.932  19.980  0.00  0.00    +0.000 OA
ENDBRANCH   1  15
BRANCH   8  16
ATOM     16  C   UNL     1       2.028  10.257  18.168  0.00  0.00    +0.000 C 
BRANCH  16  17
ATOM     17  C   UNL     1       2.300   8.790  18.390  0.00  0.00    +0.000 A 
ATOM     18  C   UNL     1       3.037   8.059  17.452  0.00  0.00    +0.000 A 
ATOM     19  C   UNL     1       3.227   6.683  17.610  0.00  0.00    +0.000 A 
ATOM     20  C   UNL     1       2.715   5.995  18.723  0.00  0.00    +0.000 A 
ATOM     21  C   UNL     1       2.017   6.756  19.679  0.00  0.00    +0.000 A 
ATOM     22  C   UNL     1       1.808   8.130  19.517  0.00  0.00    +0.000 A 
BRANCH  20  23
ATOM     23  C   UNL     1       2.899   4.534  18.879  0.00  0.00    +0.000 A 
ATOM     24  C   UNL     1       4.089   3.992  19.381  0.00  0.00    +0.000 A 
ATOM     25  C   UNL     1       4.217   2.617  19.508  0.00  0.00    +0.000 A 
ATOM     26  N   UNL     1       3.248   1.739  19.183  0.00  0.00    +0.000 NA
ATOM     27  C   UNL     1       2.105   2.264  18.700  0.00  0.00    +0.000 A 
ATOM     28  C   UNL     1       1.891   3.625  18.528  0.00  0.00    +0.000 A 
ENDBRANCH  20  23
ENDBRANCH  16  17
ENDBRANCH   8  16
TORSDOF 4
ENDMDL
MODEL 5
REMARK VINA RESULT:      -7.4      4.171     10.429
REMARK  Name = 
REMARK  5 active torsions:
REMARK  status: ('A' for Active; 'I' for Inactive)
REMARK    1  A    between atoms: C_1  and  O_2
REMARK    2  A    between atoms: O_2  and  C_3
REMARK    3  A    between atoms: C_10  and  C_12
REMARK    4  A    between atoms: C_12  and  C_13
REMARK    5  A    between atoms: C_16  and  C_17
REMARK                            x       y       z     vdW  Elec       q    Type
REMARK                         _______ _______ _______ _____ _____    ______ ____
ROOT
ATOM      1  C   UNL     1      -1.731  12.395  20.854  0.00  0.00    +0.000 A 
ATOM      2  C   UNL     1      -1.296  12.233  22.167  0.00  0.00    +0.000 A 
ATOM      3  C   UNL     1      -0.437  11.178  22.511  0.00  0.00    +0.000 A 
ATOM      4  C   UNL     1       0.007  10.277  21.520  0.00  0.00    +0.000 A 
ATOM      5  N   UNL     1       0.861   9.201  21.708  0.00  0.00    +0.000 NA
ATOM      6  C   UNL     1       1.126   8.647  20.550  0.00  0.00    +0.000 A 
ATOM      7  N   UNL     1       1.985   7.581  20.437  0.00  0.00    +0.000 N 
ATOM      8  C   UNL     1       2.567   7.141  19.269  0.00  0.00    +0.000 C 
ATOM      9  O   UNL     1       2.479   7.668  18.162  0.00  0.00    +0.000 OA
ATOM     10  S   UNL     1       0.277   9.268  19.210  0.00  0.00    +0.000 S 
ATOM     11  C   UNL     1      -0.432  10.469  20.211  0.00  0.00    +0.000 A 
ATOM     12  C   UNL     1      -1.306  11.509  19.859  0.00  0.00    +0.000 A 
ATOM     13  H   UNL     1       2.289   7.210  21.326  0.00  0.00    +0.000 HD
ENDROOT
BRANCH   1  15
ATOM     14  C   UNL     1      -3.962  13.116  20.436  0.00  0.00    +0.000 C 
ATOM     15  O   UNL     1      -2.566  13.383  20.402  0.00  0.00    +0.000 OA
ENDBRANCH   1  15
BRANCH   8  16
ATOM     16  C   UNL     1       3.388   5.872  19.439  0.00  0.00    +0.000 C 
BRANCH  16  17
ATOM     17  C   UNL     1       4.117   5.508  18.168  0.00  0.00    +0.000 A 
ATOM     18  C   UNL     1       5.063   6.382  17.623  0.00  0.00    +0.000 A 
ATOM     19  C   UNL     1       5.685   6.089  16.406  0.00  0.00    +0.000 A 
ATOM     20  C   UNL     1       5.409   4.901  15.708  0.00  0.00    +0.000 A 
ATOM     21  C   UNL     1       4.489   4.013  16.296  0.00  0.00    +0.000 A 
ATOM     22  C   UNL     1       3.849   4.309  17.505  0.00  0.00    +0.000 A 
BRANCH  20  23
ATOM     23  C   UNL     1       6.053   4.601  14.409  0.00  0.00    +0.000 A 
ATOM     24  C   UNL     1       5.496   3.687  13.505  0.00  0.00    +0.000 A 
ATOM     25  C   UNL     1       6.136   3.437  12.300  0.00  0.00    +0.000 A 
ATOM     26  N   UNL     1       7.284   4.032  11.921  0.00  0.00    +0.000 NA
ATOM     27  C   UNL     1       7.817   4.910  12.793  0.00  0.00    +0.000 A 
ATOM     28  C   UNL     1       7.254   5.215  14.025  0.00  0.00    +0.000 A 
ENDBRANCH  20  23
ENDBRANCH  16  17
ENDBRANCH   8  16
TORSDOF 4
ENDMDL
MODEL 6
REMARK VINA RESULT:      -7.4      0.463      1.033
REMARK  Name = 
REMARK  5 active torsions:
REMARK  status: ('A' for Active; 'I' for Inactive)
REMARK    1  A    between atoms: C_1  and  O_2
REMARK    2  A    between atoms: O_2  and  C_3
REMARK    3  A    between atoms: C_10  and  C_12
REMARK    4  A    between atoms: C_12  and  C_13
REMARK    5  A    between atoms: C_16  and  C_17
REMARK                            x       y       z     vdW  Elec       q    Type
REMARK                         _______ _______ _______ _____ _____    ______ ____
ROOT
ATOM      1  C   UNL     1       3.174   3.018  19.471  0.00  0.00    +0.000 A 
ATOM      2  C   UNL     1       2.419   3.107  20.638  0.00  0.00    +0.000 A 
ATOM      3  C   UNL     1       1.891   4.338  21.057  0.00  0.00    +0.000 A 
ATOM      4  C   UNL     1       2.108   5.498  20.285  0.00  0.00    +0.000 A 
ATOM      5  N   UNL     1       1.641   6.774  20.565  0.00  0.00    +0.000 NA
ATOM      6  C   UNL     1       1.957   7.580  19.581  0.00  0.00    +0.000 A 
ATOM      7  N   UNL     1       1.579   8.901  19.578  0.00  0.00    +0.000 N 
ATOM      8  C   UNL     1       1.578   9.732  18.479  0.00  0.00    +0.000 C 
ATOM      9  O   UNL     1       1.839   9.415  17.320  0.00  0.00    +0.000 OA
ATOM     10  S   UNL     1       2.938   6.919  18.356  0.00  0.00    +0.000 S 
ATOM     11  C   UNL     1       2.855   5.381  19.113  0.00  0.00    +0.000 A 
ATOM     12  C   UNL     1       3.405   4.159  18.696  0.00  0.00    +0.000 A 
ATOM     13  H   UNL     1       1.144   9.200  20.439  0.00  0.00    +0.000 HD
ENDROOT
BRANCH   1  15
ATOM     14  C   UNL     1       4.770   1.271  19.731  0.00  0.00    +0.000 C 
ATOM     15  O   UNL     1       3.737   1.877  18.965  0.00  0.00    +0.000 OA
ENDBRANCH   1  15
BRANCH   8  16
ATOM     16  C   UNL     1       1.210  11.170  18.804  0.00  0.00    +0.000 C 
BRANCH  16  17
ATOM     17  C   UNL     1      -0.284  11.378  18.787  0.00  0.00    +0.000 A 
ATOM     18  C   UNL     1      -0.870  12.364  19.588  0.00  0.00    +0.000 A 
ATOM     19  C   UNL     1      -2.259  12.511  19.636  0.00  0.00    +0.000 A 
ATOM     20  C   UNL     1      -3.110  11.701  18.865  0.00  0.00    +0.000 A 
ATOM     21  C   UNL     1      -2.500  10.746  18.031  0.00  0.00    +0.000 A 
ATOM     22  C   UNL     1      -1.111  10.582  17.991  0.00  0.00    +0.000 A 
BRANCH  20  23
ATOM     23  C   UNL     1      -4.582  11.843  18.933  0.00  0.00    +0.000 A 
ATOM     24  C   UNL     1      -5.416  11.361  17.915  0.00  0.00    +0.000 A 
ATOM     25  C   UNL     1      -6.790  11.519  18.021  0.00  0.00    +0.000 A 
ATOM     26  N   UNL     1      -7.400  12.111  19.066  0.00  0.00    +0.000 NA
ATOM     27  C   UNL     1      -6.595  12.573  20.043  0.00  0.00    +0.000 A 
ATOM     28  C   UNL     1      -5.211  12.471  20.018  0.00  0.00    +0.000 A 
ENDBRANCH  20  23
ENDBRANCH  16  17
ENDBRANCH   8  16
TORSDOF 4
ENDMDL
MODEL 7
REMARK VINA RESULT:      -7.3      0.481      1.019
REMARK  Name = 
REMARK  5 active torsions:
REMARK  status: ('A' for Active; 'I' for Inactive)
REMARK    1  A    between atoms: C_1  and  O_2
REMARK    2  A    between atoms: O_2  and  C_3
REMARK    3  A    between atoms: C_10  and  C_12
REMARK    4  A    between atoms: C_12  and  C_13
REMARK    5  A    between atoms: C_16  and  C_17
REMARK                            x       y       z     vdW  Elec       q    Type
REMARK                         _______ _______ _______ _____ _____    ______ ____
ROOT
ATOM      1  C   UNL     1       2.943   2.746  19.478  0.00  0.00    +0.000 A 
ATOM      2  C   UNL     1       2.122   2.855  20.597  0.00  0.00    +0.000 A 
ATOM      3  C   UNL     1       1.614   4.103  20.993  0.00  0.00    +0.000 A 
ATOM      4  C   UNL     1       1.921   5.259  20.246  0.00  0.00    +0.000 A 
ATOM      5  N   UNL     1       1.484   6.549  20.509  0.00  0.00    +0.000 NA
ATOM      6  C   UNL     1       1.890   7.349  19.553  0.00  0.00    +0.000 A 
ATOM      7  N   UNL     1       1.561   8.683  19.537  0.00  0.00    +0.000 N 
ATOM      8  C   UNL     1       1.658   9.520  18.447  0.00  0.00    +0.000 C 
ATOM      9  O   UNL     1       1.978   9.201  17.304  0.00  0.00    +0.000 OA
ATOM     10  S   UNL     1       2.919   6.660  18.384  0.00  0.00    +0.000 S 
ATOM     11  C   UNL     1       2.733   5.122  19.122  0.00  0.00    +0.000 A 
ATOM     12  C   UNL     1       3.263   3.883  18.728  0.00  0.00    +0.000 A 
ATOM     13  H   UNL     1       1.086   8.993  20.373  0.00  0.00    +0.000 HD
ENDROOT
BRANCH   1  15
ATOM     14  C   UNL     1       4.758   1.206  19.525  0.00  0.00    +0.000 C 
ATOM     15  O   UNL     1       3.495   1.588  18.997  0.00  0.00    +0.000 OA
ENDBRANCH   1  15
BRANCH   8  16
ATOM     16  C   UNL     1       1.324  10.970  18.762  0.00  0.00    +0.000 C 
BRANCH  16  17
ATOM     17  C   UNL     1      -0.167  11.196  18.817  0.00  0.00    +0.000 A 
ATOM     18  C   UNL     1      -1.029  10.418  18.037  0.00  0.00    +0.000 A 
ATOM     19  C   UNL     1      -2.403  10.672  18.023  0.00  0.00    +0.000 A 
ATOM     20  C   UNL     1      -2.969  11.690  18.810  0.00  0.00    +0.000 A 
ATOM     21  C   UNL     1      -2.092  12.430  19.624  0.00  0.00    +0.000 A 
ATOM     22  C   UNL     1      -0.713  12.192  19.628  0.00  0.00    +0.000 A 
BRANCH  20  23
ATOM     23  C   UNL     1      -4.422  11.972  18.779  0.00  0.00    +0.000 A 
ATOM     24  C   UNL     1      -5.119  12.369  19.928  0.00  0.00    +0.000 A 
ATOM     25  C   UNL     1      -6.481  12.621  19.852  0.00  0.00    +0.000 A 
ATOM     26  N   UNL     1      -7.202  12.516  18.718  0.00  0.00    +0.000 NA
ATOM     27  C   UNL     1      -6.529  12.133  17.617  0.00  0.00    +0.000 A 
ATOM     28  C   UNL     1      -5.170  11.850  17.600  0.00  0.00    +0.000 A 
ENDBRANCH  20  23
ENDBRANCH  16  17
ENDBRANCH   8  16
TORSDOF 4
ENDMDL
MODEL 8
REMARK VINA RESULT:      -7.3      4.279     10.075
REMARK  Name = 
REMARK  5 active torsions:
REMARK  status: ('A' for Active; 'I' for Inactive)
REMARK    1  A    between atoms: C_1  and  O_2
REMARK    2  A    between atoms: O_2  and  C_3
REMARK    3  A    between atoms: C_10  and  C_12
REMARK    4  A    between atoms: C_12  and  C_13
REMARK    5  A    between atoms: C_16  and  C_17
REMARK                            x       y       z     vdW  Elec       q    Type
REMARK                         _______ _______ _______ _____ _____    ______ ____
ROOT
ATOM      1  C   UNL     1      -2.382  14.952  24.943  0.00  0.00    +0.000 A 
ATOM      2  C   UNL     1      -3.408  14.016  24.833  0.00  0.00    +0.000 A 
ATOM      3  C   UNL     1      -3.381  13.041  23.824  0.00  0.00    +0.000 A 
ATOM      4  C   UNL     1      -2.301  12.992  22.918  0.00  0.00    +0.000 A 
ATOM      5  N   UNL     1      -2.134  12.084  21.883  0.00  0.00    +0.000 NA
ATOM      6  C   UNL     1      -0.971  12.283  21.312  0.00  0.00    +0.000 A 
ATOM      7  N   UNL     1      -0.527  11.492  20.280  0.00  0.00    +0.000 N 
ATOM      8  C   UNL     1       0.774  11.411  19.835  0.00  0.00    +0.000 C 
ATOM      9  O   UNL     1       1.754  11.964  20.330  0.00  0.00    +0.000 OA
ATOM     10  S   UNL     1      -0.086  13.630  21.863  0.00  0.00    +0.000 S 
ATOM     11  C   UNL     1      -1.280  13.931  23.058  0.00  0.00    +0.000 A 
ATOM     12  C   UNL     1      -1.306  14.923  24.051  0.00  0.00    +0.000 A 
ATOM     13  H   UNL     1      -1.219  10.837  19.945  0.00  0.00    +0.000 HD
ENDROOT
BRANCH   1  15
ATOM     14  C   UNL     1      -1.026  16.543  26.082  0.00  0.00    +0.000 C 
ATOM     15  O   UNL     1      -2.300  15.944  25.883  0.00  0.00    +0.000 OA
ENDBRANCH   1  15
BRANCH   8  16
ATOM     16  C   UNL     1       0.943  10.531  18.606  0.00  0.00    +0.000 C 
BRANCH  16  17
ATOM     17  C   UNL     1       1.469   9.165  18.970  0.00  0.00    +0.000 A 
ATOM     18  C   UNL     1       2.142   8.391  18.019  0.00  0.00    +0.000 A 
ATOM     19  C   UNL     1       2.564   7.093  18.324  0.00  0.00    +0.000 A 
ATOM     20  C   UNL     1       2.356   6.535  19.597  0.00  0.00    +0.000 A 
ATOM     21  C   UNL     1       1.720   7.347  20.554  0.00  0.00    +0.000 A 
ATOM     22  C   UNL     1       1.279   8.639  20.249  0.00  0.00    +0.000 A 
BRANCH  20  23
ATOM     23  C   UNL     1       2.785   5.153  19.913  0.00  0.00    +0.000 A 
ATOM     24  C   UNL     1       2.099   4.366  20.848  0.00  0.00    +0.000 A 
ATOM     25  C   UNL     1       2.538   3.078  21.113  0.00  0.00    +0.000 A 
ATOM     26  N   UNL     1       3.602   2.508  20.514  0.00  0.00    +0.000 NA
ATOM     27  C   UNL     1       4.259   3.268  19.617  0.00  0.00    +0.000 A 
ATOM     28  C   UNL     1       3.900   4.570  19.295  0.00  0.00    +0.000 A 
ENDBRANCH  20  23
ENDBRANCH  16  17
ENDBRANCH   8  16
TORSDOF 4
ENDMDL
MODEL 9
REMARK VINA RESULT:      -7.3      3.874     10.388
REMARK  Name = 
REMARK  5 active torsions:
REMARK  status: ('A' for Active; 'I' for Inactive)
REMARK    1  A    between atoms: C_1  and  O_2
REMARK    2  A    between atoms: O_2  and  C_3
REMARK    3  A    between atoms: C_10  and  C_12
REMARK    4  A    between atoms: C_12  and  C_13
REMARK    5  A    between atoms: C_16  and  C_17
REMARK                            x       y       z     vdW  Elec       q    Type
REMARK                         _______ _______ _______ _____ _____    ______ ____
ROOT
ATOM      1  C   UNL     1      -0.110  11.090  19.828  0.00  0.00    +0.000 A 
ATOM      2  C   UNL     1       0.508  11.197  18.585  0.00  0.00    +0.000 A 
ATOM      3  C   UNL     1       1.390  10.202  18.136  0.00  0.00    +0.000 A 
ATOM      4  C   UNL     1       1.647   9.072  18.939  0.00  0.00    +0.000 A 
ATOM      5  N   UNL     1       2.481   8.009  18.624  0.00  0.00    +0.000 NA
ATOM      6  C   UNL     1       2.401   7.099  19.564  0.00  0.00    +0.000 A 
ATOM      7  N   UNL     1       3.094   5.915  19.486  0.00  0.00    +0.000 N 
ATOM      8  C   UNL     1       2.840   4.787  20.234  0.00  0.00    +0.000 C 
ATOM      9  O   UNL     1       1.917   4.627  21.031  0.00  0.00    +0.000 OA
ATOM     10  S   UNL     1       1.461   7.506  20.925  0.00  0.00    +0.000 S 
ATOM     11  C   UNL     1       1.005   8.980  20.174  0.00  0.00    +0.000 A 
ATOM     12  C   UNL     1       0.136   9.979  20.641  0.00  0.00    +0.000 A 
ATOM     13  H   UNL     1       3.738   5.873  18.709  0.00  0.00    +0.000 HD
ENDROOT
BRANCH   1  15
ATOM     14  C   UNL     1      -1.973  12.536  19.501  0.00  0.00    +0.000 C 
ATOM     15  O   UNL     1      -0.986  11.993  20.369  0.00  0.00    +0.000 OA
ENDBRANCH   1  15
BRANCH   8  16
ATOM     16  C   UNL     1       3.842   3.666  20.004  0.00  0.00    +0.000 C 
BRANCH  16  17
ATOM     17  C   UNL     1       4.469   3.755  18.634  0.00  0.00    +0.000 A 
ATOM     18  C   UNL     1       5.724   4.351  18.470  0.00  0.00    +0.000 A 
ATOM     19  C   UNL     1       6.276   4.508  17.195  0.00  0.00    +0.000 A 
ATOM     20  C   UNL     1       5.612   4.049  16.046  0.00  0.00    +0.000 A 
ATOM     21  C   UNL     1       4.373   3.410  16.236  0.00  0.00    +0.000 A 
ATOM     22  C   UNL     1       3.805   3.266  17.508  0.00  0.00    +0.000 A 
BRANCH  20  23
ATOM     23  C   UNL     1       6.189   4.234  14.695  0.00  0.00    +0.000 A 
ATOM     24  C   UNL     1       7.276   5.090  14.470  0.00  0.00    +0.000 A 
ATOM     25  C   UNL     1       7.782   5.233  13.187  0.00  0.00    +0.000 A 
ATOM     26  N   UNL     1       7.296   4.584  12.110  0.00  0.00    +0.000 NA
ATOM     27  C   UNL     1       6.251   3.764  12.331  0.00  0.00    +0.000 A 
ATOM     28  C   UNL     1       5.671   3.565  13.576  0.00  0.00    +0.000 A 
ENDBRANCH  20  23
ENDBRANCH  16  17
ENDBRANCH   8  16
TORSDOF 4
ENDMDL
