MODEL 1
REMARK VINA RESULT:      -7.4      0.000      0.000
REMARK  Name = 
REMARK  6 active torsions:
REMARK  status: ('A' for Active; 'I' for Inactive)
REMARK    1  A    between atoms: C_6  and  C_7
REMARK    2  A    between atoms: N_15  and  C_16
REMARK    3  A    between atoms: C_16  and  C_17
REMARK    4  A    between atoms: C_17  and  C_18
REMARK    5  A    between atoms: C_18  and  N_19
REMARK    6  A    between atoms: N_19  and  C_20
REMARK                            x       y       z     vdW  Elec       q    Type
REMARK                         _______ _______ _______ _____ _____    ______ ____
ROOT
ATOM      1  C   UNL     1       1.504  10.336  19.410  0.00  0.00    +0.000 C 
ENDROOT
BRANCH   1   8
ATOM      2  O   UNL     1       1.602   8.481  21.395  0.00  0.00    +0.000 OA
ATOM      3  C   UNL     1       0.703   9.318  21.437  0.00  0.00    +0.000 C 
ATOM      4  C   UNL     1      -0.510   9.112  22.303  0.00  0.00    +0.000 C 
ATOM      5  C   UNL     1      -0.761  10.264  23.241  0.00  0.00    +0.000 C 
ATOM      6  S   UNL     1      -0.975  11.815  22.345  0.00  0.00    +0.000 S 
ATOM      7  C   UNL     1       0.509  11.728  21.265  0.00  0.00    +0.000 C 
ATOM      8  N   UNL     1       0.627  10.430  20.586  0.00  0.00    +0.000 N 
BRANCH   7   9
ATOM      9  C   UNL     1       0.551  12.956  20.358  0.00  0.00    +0.000 A 
ATOM     10  C   UNL     1       1.657  13.835  20.384  0.00  0.00    +0.000 A 
ATOM     11 CL   UNL     1       3.039  13.576  21.398  0.00  0.00    +0.000 Cl
ATOM     12  C   UNL     1       1.715  14.966  19.557  0.00  0.00    +0.000 A 
ATOM     13  C   UNL     1       0.675  15.253  18.684  0.00  0.00    +0.000 A 
ATOM     14  C   UNL     1      -0.420  14.400  18.624  0.00  0.00    +0.000 A 
ATOM     15  C   UNL     1      -0.482  13.261  19.441  0.00  0.00    +0.000 A 
ATOM     16 CL   UNL     1      -1.860  12.239  19.194  0.00  0.00    +0.000 Cl
ENDBRANCH   7   9
ENDBRANCH   1   8
BRANCH   1  17
ATOM     17  C   UNL     1       0.791   9.627  18.248  0.00  0.00    +0.000 C 
BRANCH  17  18
ATOM     18  C   UNL     1       1.679   8.572  17.599  0.00  0.00    +0.000 C 
BRANCH  18  19
ATOM     19  N   UNL     1       2.574   7.999  18.599  0.00  0.00    +0.000 N 
ATOM     20  H   UNL     1       2.349   8.338  19.532  0.00  0.00    +0.000 HD
BRANCH  19  21
ATOM     21  C   UNL     1       2.815   6.610  18.584  0.00  0.00    +0.000 A 
ATOM     22  C   UNL     1       2.075   5.748  19.401  0.00  0.00    +0.000 A 
ATOM     23  C   UNL     1       2.268   4.385  19.296  0.00  0.00    +0.000 A 
ATOM     24  N   UNL     1       3.112   3.810  18.426  0.00  0.00    +0.000 NA
ATOM     25  C   UNL     1       3.801   4.610  17.603  0.00  0.00    +0.000 A 
ATOM     26  C   UNL     1       4.645   4.000  16.690  0.00  0.00    +0.000 A 
ATOM     27  C   UNL     1       5.404   4.744  15.792  0.00  0.00    +0.000 A 
ATOM     28 CL   UNL     1       6.430   3.944  14.667  0.00  0.00    +0.000 Cl
ATOM     29  C   UNL     1       5.334   6.128  15.799  0.00  0.00    +0.000 A 
ATOM     30  C   UNL     1       4.485   6.764  16.705  0.00  0.00    +0.000 A 
ATOM     31  C   UNL     1       3.696   6.026  17.627  0.00  0.00    +0.000 A 
ENDBRANCH  19  21
ENDBRANCH  18  19
ENDBRANCH  17  18
ENDBRANCH   1  17
TORSDOF 6
ENDMDL
MODEL 2
REMARK VINA RESULT:      -7.4      2.321      3.711
REMARK  Name = 
REMARK  6 active torsions:
REMARK  status: ('A' for Active; 'I' for Inactive)
REMARK    1  A    between atoms: C_6  and  C_7
REMARK    2  A    between atoms: N_15  and  C_16
REMARK    3  A    between atoms: C_16  and  C_17
REMARK    4  A    between atoms: C_17  and  C_18
REMARK    5  A    between atoms: C_18  and  N_19
REMARK    6  A    between atoms: N_19  and  C_20
REMARK                            x       y       z     vdW  Elec       q    Type
REMARK                         _______ _______ _______ _____ _____    ______ ____
ROOT
ATOM      1  C   UNL     1      -0.200  10.064  19.080  0.00  0.00    +0.000 C 
ENDROOT
BRANCH   1   8
ATOM      2  O   UNL     1       2.256  10.684  18.093  0.00  0.00    +0.000 OA
ATOM      3  C   UNL     1       1.598  11.589  18.604  0.00  0.00    +0.000 C 
ATOM      4  C   UNL     1       2.247  12.881  19.020  0.00  0.00    +0.000 C 
ATOM      5  C   UNL     1       1.578  14.091  18.423  0.00  0.00    +0.000 C 
ATOM      6  S   UNL     1      -0.167  14.176  18.872  0.00  0.00    +0.000 S 
ATOM      7  C   UNL     1      -0.658  12.460  18.433  0.00  0.00    +0.000 C 
ATOM      8  N   UNL     1       0.259  11.458  18.997  0.00  0.00    +0.000 N 
BRANCH   7   9
ATOM      9  C   UNL     1      -2.138  12.257  18.752  0.00  0.00    +0.000 A 
ATOM     10  C   UNL     1      -3.011  11.695  17.793  0.00  0.00    +0.000 A 
ATOM     11 CL   UNL     1      -2.478  11.169  16.230  0.00  0.00    +0.000 Cl
ATOM     12  C   UNL     1      -4.372  11.498  18.068  0.00  0.00    +0.000 A 
ATOM     13  C   UNL     1      -4.900  11.856  19.301  0.00  0.00    +0.000 A 
ATOM     14  C   UNL     1      -4.064  12.397  20.269  0.00  0.00    +0.000 A 
ATOM     15  C   UNL     1      -2.699  12.589  20.006  0.00  0.00    +0.000 A 
ATOM     16 CL   UNL     1      -1.759  13.185  21.335  0.00  0.00    +0.000 Cl
ENDBRANCH   7   9
ENDBRANCH   1   8
BRANCH   1  17
ATOM     17  C   UNL     1      -0.183   9.566  20.535  0.00  0.00    +0.000 C 
BRANCH  17  18
ATOM     18  C   UNL     1       1.125   8.864  20.877  0.00  0.00    +0.000 C 
BRANCH  18  19
ATOM     19  N   UNL     1       1.683   8.248  19.676  0.00  0.00    +0.000 N 
ATOM     20  H   UNL     1       2.336   8.874  19.212  0.00  0.00    +0.000 HD
BRANCH  19  21
ATOM     21  C   UNL     1       2.174   6.930  19.751  0.00  0.00    +0.000 A 
ATOM     22  C   UNL     1       1.680   6.036  20.708  0.00  0.00    +0.000 A 
ATOM     23  C   UNL     1       2.112   4.725  20.696  0.00  0.00    +0.000 A 
ATOM     24  N   UNL     1       2.970   4.224  19.795  0.00  0.00    +0.000 NA
ATOM     25  C   UNL     1       3.425   5.047  18.842  0.00  0.00    +0.000 A 
ATOM     26  C   UNL     1       4.285   4.507  17.900  0.00  0.00    +0.000 A 
ATOM     27  C   UNL     1       4.812   5.280  16.870  0.00  0.00    +0.000 A 
ATOM     28 CL   UNL     1       5.867   4.565  15.715  0.00  0.00    +0.000 Cl
ATOM     29  C   UNL     1       4.488   6.624  16.770  0.00  0.00    +0.000 A 
ATOM     30  C   UNL     1       3.617   7.187  17.703  0.00  0.00    +0.000 A 
ATOM     31  C   UNL     1       3.062   6.417  18.759  0.00  0.00    +0.000 A 
ENDBRANCH  19  21
ENDBRANCH  18  19
ENDBRANCH  17  18
ENDBRANCH   1  17
TORSDOF 6
ENDMDL
MODEL 3
REMARK VINA RESULT:      -7.4      2.214      3.594
REMARK  Name = 
REMARK  6 active torsions:
REMARK  status: ('A' for Active; 'I' for Inactive)
REMARK    1  A    between atoms: C_6  and  C_7
REMARK    2  A    between atoms: N_15  and  C_16
REMARK    3  A    between atoms: C_16  and  C_17
REMARK    4  A    between atoms: C_17  and  C_18
REMARK    5  A    between atoms: C_18  and  N_19
REMARK    6  A    between atoms: N_19  and  C_20
REMARK                            x       y       z     vdW  Elec       q    Type
REMARK                         _______ _______ _______ _____ _____    ______ ____
ROOT
ATOM      1  C   UNL     1      -0.271  10.119  20.206  0.00  0.00    +0.000 C 
ENDROOT
BRANCH   1   8
ATOM      2  O   UNL     1       1.694  10.157  18.328  0.00  0.00    +0.000 OA
ATOM      3  C   UNL     1       1.377  11.225  18.847  0.00  0.00    +0.000 C 
ATOM      4  C   UNL     1       2.272  12.430  18.752  0.00  0.00    +0.000 C 
ATOM      5  C   UNL     1       1.567  13.641  18.199  0.00  0.00    +0.000 C 
ATOM      6  S   UNL     1       0.135  14.090  19.200  0.00  0.00    +0.000 S 
ATOM      7  C   UNL     1      -0.670  12.442  19.303  0.00  0.00    +0.000 C 
ATOM      8  N   UNL     1       0.274  11.386  19.698  0.00  0.00    +0.000 N 
BRANCH   7   9
ATOM      9  C   UNL     1      -1.937  12.546  20.148  0.00  0.00    +0.000 A 
ATOM     10  C   UNL     1      -3.202  12.250  19.591  0.00  0.00    +0.000 A 
ATOM     11 CL   UNL     1      -3.407  11.722  17.954  0.00  0.00    +0.000 Cl
ATOM     12  C   UNL     1      -4.377  12.338  20.352  0.00  0.00    +0.000 A 
ATOM     13  C   UNL     1      -4.325  12.723  21.685  0.00  0.00    +0.000 A 
ATOM     14  C   UNL     1      -3.095  13.005  22.266  0.00  0.00    +0.000 A 
ATOM     15  C   UNL     1      -1.914  12.912  21.514  0.00  0.00    +0.000 A 
ATOM     16 CL   UNL     1      -0.447  13.203  22.391  0.00  0.00    +0.000 Cl
ENDBRANCH   7   9
ENDBRANCH   1   8
BRANCH   1  17
ATOM     17  C   UNL     1       0.609   9.556  21.334  0.00  0.00    +0.000 C 
BRANCH  17  18
ATOM     18  C   UNL     1       0.815   8.053  21.193  0.00  0.00    +0.000 C 
BRANCH  18  19
ATOM     19  N   UNL     1       1.957   7.791  20.323  0.00  0.00    +0.000 N 
ATOM     20  H   UNL     1       2.775   8.316  20.623  0.00  0.00    +0.000 HD
BRANCH  19  21
ATOM     21  C   UNL     1       2.273   6.458  19.994  0.00  0.00    +0.000 A 
ATOM     22  C   UNL     1       1.699   5.393  20.697  0.00  0.00    +0.000 A 
ATOM     23  C   UNL     1       1.955   4.098  20.291  0.00  0.00    +0.000 A 
ATOM     24  N   UNL     1       2.708   3.778  19.228  0.00  0.00    +0.000 NA
ATOM     25  C   UNL     1       3.234   4.779  18.512  0.00  0.00    +0.000 A 
ATOM     26  C   UNL     1       3.983   4.434  17.399  0.00  0.00    +0.000 A 
ATOM     27  C   UNL     1       4.571   5.400  16.591  0.00  0.00    +0.000 A 
ATOM     28 CL   UNL     1       5.483   4.927  15.212  0.00  0.00    +0.000 Cl
ATOM     29  C   UNL     1       4.424   6.746  16.891  0.00  0.00    +0.000 A 
ATOM     30  C   UNL     1       3.667   7.118  18.002  0.00  0.00    +0.000 A 
ATOM     31  C   UNL     1       3.052   6.149  18.839  0.00  0.00    +0.000 A 
ENDBRANCH  19  21
ENDBRANCH  18  19
ENDBRANCH  17  18
ENDBRANCH   1  17
TORSDOF 6
ENDMDL
MODEL 4
REMARK VINA RESULT:      -7.3      3.794      9.169
REMARK  Name = 
REMARK  6 active torsions:
REMARK  status: ('A' for Active; 'I' for Inactive)
REMARK    1  A    between atoms: C_6  and  C_7
REMARK    2  A    between atoms: N_15  and  C_16
REMARK    3  A    between atoms: C_16  and  C_17
REMARK    4  A    between atoms: C_17  and  C_18
REMARK    5  A    between atoms: C_18  and  N_19
REMARK    6  A    between atoms: N_19  and  C_20
REMARK                            x       y       z     vdW  Elec       q    Type
REMARK                         _______ _______ _______ _____ _____    ______ ____
ROOT
ATOM      1  C   UNL     1       3.710   6.550  18.721  0.00  0.00    +0.000 C 
ENDROOT
BRANCH   1   8
ATOM      2  O   UNL     1       5.927   6.937  17.196  0.00  0.00    +0.000 OA
ATOM      3  C   UNL     1       5.217   5.967  16.938  0.00  0.00    +0.000 C 
ATOM      4  C   UNL     1       5.332   5.249  15.622  0.00  0.00    +0.000 C 
ATOM      5  C   UNL     1       5.563   3.769  15.780  0.00  0.00    +0.000 C 
ATOM      6  S   UNL     1       4.241   2.987  16.726  0.00  0.00    +0.000 S 
ATOM      7  C   UNL     1       4.196   4.137  18.158  0.00  0.00    +0.000 C 
ATOM      8  N   UNL     1       4.146   5.546  17.739  0.00  0.00    +0.000 N 
BRANCH   7   9
ATOM      9  C   UNL     1       3.105   3.697  19.131  0.00  0.00    +0.000 A 
ATOM     10  C   UNL     1       1.744   3.963  18.857  0.00  0.00    +0.000 A 
ATOM     11 CL   UNL     1       1.215   4.761  17.412  0.00  0.00    +0.000 Cl
ATOM     12  C   UNL     1       0.727   3.565  19.736  0.00  0.00    +0.000 A 
ATOM     13  C   UNL     1       1.036   2.891  20.911  0.00  0.00    +0.000 A 
ATOM     14  C   UNL     1       2.363   2.601  21.201  0.00  0.00    +0.000 A 
ATOM     15  C   UNL     1       3.386   2.988  20.322  0.00  0.00    +0.000 A 
ATOM     16 CL   UNL     1       4.983   2.479  20.764  0.00  0.00    +0.000 Cl
ENDBRANCH   7   9
ENDBRANCH   1   8
BRANCH   1  17
ATOM     17  C   UNL     1       2.925   7.681  18.038  0.00  0.00    +0.000 C 
BRANCH  17  18
ATOM     18  C   UNL     1       1.969   8.369  19.004  0.00  0.00    +0.000 C 
BRANCH  18  19
ATOM     19  N   UNL     1       1.088   9.270  18.269  0.00  0.00    +0.000 N 
ATOM     20  H   UNL     1       0.625   8.788  17.503  0.00  0.00    +0.000 HD
BRANCH  19  21
ATOM     21  C   UNL     1       0.202  10.097  18.988  0.00  0.00    +0.000 A 
ATOM     22  C   UNL     1       0.604  10.707  20.182  0.00  0.00    +0.000 A 
ATOM     23  C   UNL     1      -0.253  11.585  20.815  0.00  0.00    +0.000 A 
ATOM     24  N   UNL     1      -1.461  11.928  20.343  0.00  0.00    +0.000 NA
ATOM     25  C   UNL     1      -1.852  11.393  19.180  0.00  0.00    +0.000 A 
ATOM     26  C   UNL     1      -3.088  11.781  18.691  0.00  0.00    +0.000 A 
ATOM     27  C   UNL     1      -3.585  11.281  17.491  0.00  0.00    +0.000 A 
ATOM     28 CL   UNL     1      -5.119  11.801  16.915  0.00  0.00    +0.000 Cl
ATOM     29  C   UNL     1      -2.845  10.367  16.757  0.00  0.00    +0.000 A 
ATOM     30  C   UNL     1      -1.594   9.967  17.227  0.00  0.00    +0.000 A 
ATOM     31  C   UNL     1      -1.063  10.468  18.445  0.00  0.00    +0.000 A 
ENDBRANCH  19  21
ENDBRANCH  18  19
ENDBRANCH  17  18
ENDBRANCH   1  17
TORSDOF 6
ENDMDL
MODEL 5
REMARK VINA RESULT:      -7.3      0.068      1.678
REMARK  Name = 
REMARK  6 active torsions:
REMARK  status: ('A' for Active; 'I' for Inactive)
REMARK    1  A    between atoms: C_6  and  C_7
REMARK    2  A    between atoms: N_15  and  C_16
REMARK    3  A    between atoms: C_16  and  C_17
REMARK    4  A    between atoms: C_17  and  C_18
REMARK    5  A    between atoms: C_18  and  N_19
REMARK    6  A    between atoms: N_19  and  C_20
REMARK                            x       y       z     vdW  Elec       q    Type
REMARK                         _______ _______ _______ _____ _____    ______ ____
ROOT
ATOM      1  C   UNL     1       1.527  10.332  19.367  0.00  0.00    +0.000 C 
ENDROOT
BRANCH   1   8
ATOM      2  O   UNL     1       1.602   8.454  21.331  0.00  0.00    +0.000 OA
ATOM      3  C   UNL     1       0.718   9.306  21.387  0.00  0.00    +0.000 C 
ATOM      4  C   UNL     1      -0.493   9.113  22.259  0.00  0.00    +0.000 C 
ATOM      5  C   UNL     1      -0.718  10.259  23.210  0.00  0.00    +0.000 C 
ATOM      6  S   UNL     1      -0.909  11.824  22.333  0.00  0.00    +0.000 S 
ATOM      7  C   UNL     1       0.567  11.722  21.244  0.00  0.00    +0.000 C 
ATOM      8  N   UNL     1       0.658  10.429  20.549  0.00  0.00    +0.000 N 
BRANCH   7   9
ATOM      9  C   UNL     1       0.626  12.959  20.350  0.00  0.00    +0.000 A 
ATOM     10  C   UNL     1      -0.440  13.268  19.475  0.00  0.00    +0.000 A 
ATOM     11 CL   UNL     1      -1.882  12.312  19.376  0.00  0.00    +0.000 Cl
ATOM     12  C   UNL     1      -0.405  14.400  18.649  0.00  0.00    +0.000 A 
ATOM     13  C   UNL     1       0.690  15.254  18.669  0.00  0.00    +0.000 A 
ATOM     14  C   UNL     1       1.747  14.985  19.529  0.00  0.00    +0.000 A 
ATOM     15  C   UNL     1       1.717  13.859  20.366  0.00  0.00    +0.000 A 
ATOM     16 CL   UNL     1       3.059  13.699  21.452  0.00  0.00    +0.000 Cl
ENDBRANCH   7   9
ENDBRANCH   1   8
BRANCH   1  17
ATOM     17  C   UNL     1       0.819   9.585  18.225  0.00  0.00    +0.000 C 
BRANCH  17  18
ATOM     18  C   UNL     1       1.728   8.546  17.582  0.00  0.00    +0.000 C 
BRANCH  18  19
ATOM     19  N   UNL     1       2.596   7.955  18.595  0.00  0.00    +0.000 N 
ATOM     20  H   UNL     1       2.350   8.281  19.527  0.00  0.00    +0.000 HD
BRANCH  19  21
ATOM     21  C   UNL     1       2.833   6.566  18.566  0.00  0.00    +0.000 A 
ATOM     22  C   UNL     1       2.090   5.697  19.372  0.00  0.00    +0.000 A 
ATOM     23  C   UNL     1       2.279   4.334  19.253  0.00  0.00    +0.000 A 
ATOM     24  N   UNL     1       3.122   3.766  18.379  0.00  0.00    +0.000 NA
ATOM     25  C   UNL     1       3.814   4.573  17.564  0.00  0.00    +0.000 A 
ATOM     26  C   UNL     1       4.657   3.970  16.645  0.00  0.00    +0.000 A 
ATOM     27  C   UNL     1       5.418   4.721  15.756  0.00  0.00    +0.000 A 
ATOM     28 CL   UNL     1       6.443   3.930  14.623  0.00  0.00    +0.000 Cl
ATOM     29  C   UNL     1       5.353   6.106  15.777  0.00  0.00    +0.000 A 
ATOM     30  C   UNL     1       4.505   6.734  16.689  0.00  0.00    +0.000 A 
ATOM     31  C   UNL     1       3.713   5.989  17.603  0.00  0.00    +0.000 A 
ENDBRANCH  19  21
ENDBRANCH  18  19
ENDBRANCH  17  18
ENDBRANCH   1  17
TORSDOF 6
ENDMDL
MODEL 6
REMARK VINA RESULT:      -7.3      2.276      3.451
REMARK  Name = 
REMARK  6 active torsions:
REMARK  status: ('A' for Active; 'I' for Inactive)
REMARK    1  A    between atoms: C_6  and  C_7
REMARK    2  A    between atoms: N_15  and  C_16
REMARK    3  A    between atoms: C_16  and  C_17
REMARK    4  A    between atoms: C_17  and  C_18
REMARK    5  A    between atoms: C_18  and  N_19
REMARK    6  A    between atoms: N_19  and  C_20
REMARK                            x       y       z     vdW  Elec       q    Type
REMARK                         _______ _______ _______ _____ _____    ______ ____
ROOT
ATOM      1  C   UNL     1      -0.056  10.074  19.173  0.00  0.00    +0.000 C 
ENDROOT
BRANCH   1   8
ATOM      2  O   UNL     1       2.390  10.685  18.159  0.00  0.00    +0.000 OA
ATOM      3  C   UNL     1       1.725  11.600  18.641  0.00  0.00    +0.000 C 
ATOM      4  C   UNL     1       2.363  12.911  19.012  0.00  0.00    +0.000 C 
ATOM      5  C   UNL     1       1.681  14.095  18.376  0.00  0.00    +0.000 C 
ATOM      6  S   UNL     1      -0.064  14.177  18.827  0.00  0.00    +0.000 S 
ATOM      7  C   UNL     1      -0.539  12.444  18.448  0.00  0.00    +0.000 C 
ATOM      8  N   UNL     1       0.388  11.470  19.042  0.00  0.00    +0.000 N 
BRANCH   7   9
ATOM      9  C   UNL     1      -2.016  12.237  18.777  0.00  0.00    +0.000 A 
ATOM     10  C   UNL     1      -2.545  12.660  20.018  0.00  0.00    +0.000 A 
ATOM     11 CL   UNL     1      -1.590  13.460  21.222  0.00  0.00    +0.000 Cl
ATOM     12  C   UNL     1      -3.898  12.481  20.337  0.00  0.00    +0.000 A 
ATOM     13  C   UNL     1      -4.762  11.877  19.433  0.00  0.00    +0.000 A 
ATOM     14  C   UNL     1      -4.275  11.465  18.199  0.00  0.00    +0.000 A 
ATOM     15  C   UNL     1      -2.924  11.648  17.867  0.00  0.00    +0.000 A 
ATOM     16 CL   UNL     1      -2.478  11.171  16.261  0.00  0.00    +0.000 Cl
ENDBRANCH   7   9
ENDBRANCH   1   8
BRANCH   1  17
ATOM     17  C   UNL     1      -0.054   9.634  20.646  0.00  0.00    +0.000 C 
BRANCH  17  18
ATOM     18  C   UNL     1       1.186   8.819  20.989  0.00  0.00    +0.000 C 
BRANCH  18  19
ATOM     19  N   UNL     1       1.764   8.262  19.770  0.00  0.00    +0.000 N 
ATOM     20  H   UNL     1       2.461   8.888  19.375  0.00  0.00    +0.000 HD
BRANCH  19  21
ATOM     21  C   UNL     1       2.194   6.920  19.769  0.00  0.00    +0.000 A 
ATOM     22  C   UNL     1       1.668   6.000  20.683  0.00  0.00    +0.000 A 
ATOM     23  C   UNL     1       2.040   4.673  20.597  0.00  0.00    +0.000 A 
ATOM     24  N   UNL     1       2.865   4.183  19.661  0.00  0.00    +0.000 NA
ATOM     25  C   UNL     1       3.348   5.033  18.747  0.00  0.00    +0.000 A 
ATOM     26  C   UNL     1       4.173   4.506  17.768  0.00  0.00    +0.000 A 
ATOM     27  C   UNL     1       4.726   5.307  16.774  0.00  0.00    +0.000 A 
ATOM     28 CL   UNL     1       5.737   4.608  15.571  0.00  0.00    +0.000 Cl
ATOM     29  C   UNL     1       4.464   6.668  16.749  0.00  0.00    +0.000 A 
ATOM     30  C   UNL     1       3.629   7.220  17.721  0.00  0.00    +0.000 A 
ATOM     31  C   UNL     1       3.048   6.422  18.741  0.00  0.00    +0.000 A 
ENDBRANCH  19  21
ENDBRANCH  18  19
ENDBRANCH  17  18
ENDBRANCH   1  17
TORSDOF 6
ENDMDL
MODEL 7
REMARK VINA RESULT:      -7.2      2.146      3.175
REMARK  Name = 
REMARK  6 active torsions:
REMARK  status: ('A' for Active; 'I' for Inactive)
REMARK    1  A    between atoms: C_6  and  C_7
REMARK    2  A    between atoms: N_15  and  C_16
REMARK    3  A    between atoms: C_16  and  C_17
REMARK    4  A    between atoms: C_17  and  C_18
REMARK    5  A    between atoms: C_18  and  N_19
REMARK    6  A    between atoms: N_19  and  C_20
REMARK                            x       y       z     vdW  Elec       q    Type
REMARK                         _______ _______ _______ _____ _____    ______ ____
ROOT
ATOM      1  C   UNL     1      -0.049  10.046  20.033  0.00  0.00    +0.000 C 
ENDROOT
BRANCH   1   8
ATOM      2  O   UNL     1       1.846  10.071  18.084  0.00  0.00    +0.000 OA
ATOM      3  C   UNL     1       1.549  11.143  18.608  0.00  0.00    +0.000 C 
ATOM      4  C   UNL     1       2.441  12.347  18.473  0.00  0.00    +0.000 C 
ATOM      5  C   UNL     1       1.716  13.555  17.939  0.00  0.00    +0.000 C 
ATOM      6  S   UNL     1       0.322  14.012  18.988  0.00  0.00    +0.000 S 
ATOM      7  C   UNL     1      -0.479  12.364  19.131  0.00  0.00    +0.000 C 
ATOM      8  N   UNL     1       0.478  11.310  19.497  0.00  0.00    +0.000 N 
BRANCH   7   9
ATOM      9  C   UNL     1      -1.715  12.475  20.021  0.00  0.00    +0.000 A 
ATOM     10  C   UNL     1      -1.599  12.880  21.370  0.00  0.00    +0.000 A 
ATOM     11 CL   UNL     1      -0.084  13.309  22.095  0.00  0.00    +0.000 Cl
ATOM     12  C   UNL     1      -2.722  12.989  22.202  0.00  0.00    +0.000 A 
ATOM     13  C   UNL     1      -3.990  12.698  21.716  0.00  0.00    +0.000 A 
ATOM     14  C   UNL     1      -4.138  12.312  20.390  0.00  0.00    +0.000 A 
ATOM     15  C   UNL     1      -3.021  12.209  19.548  0.00  0.00    +0.000 A 
ATOM     16 CL   UNL     1      -3.365  11.807  17.897  0.00  0.00    +0.000 Cl
ENDBRANCH   7   9
ENDBRANCH   1   8
BRANCH   1  17
ATOM     17  C   UNL     1       0.816   9.541  21.199  0.00  0.00    +0.000 C 
BRANCH  17  18
ATOM     18  C   UNL     1       1.028   8.034  21.133  0.00  0.00    +0.000 C 
BRANCH  18  19
ATOM     19  N   UNL     1       2.076   7.724  20.165  0.00  0.00    +0.000 N 
ATOM     20  H   UNL     1       2.918   8.265  20.350  0.00  0.00    +0.000 HD
BRANCH  19  21
ATOM     21  C   UNL     1       2.365   6.375  19.880  0.00  0.00    +0.000 A 
ATOM     22  C   UNL     1       1.763   5.345  20.610  0.00  0.00    +0.000 A 
ATOM     23  C   UNL     1       1.993   4.033  20.246  0.00  0.00    +0.000 A 
ATOM     24  N   UNL     1       2.746   3.664  19.200  0.00  0.00    +0.000 NA
ATOM     25  C   UNL     1       3.300   4.631  18.457  0.00  0.00    +0.000 A 
ATOM     26  C   UNL     1       4.049   4.235  17.362  0.00  0.00    +0.000 A 
ATOM     27  C   UNL     1       4.665   5.164  16.529  0.00  0.00    +0.000 A 
ATOM     28 CL   UNL     1       5.576   4.628  15.172  0.00  0.00    +0.000 Cl
ATOM     29  C   UNL     1       4.545   6.521  16.787  0.00  0.00    +0.000 A 
ATOM     30  C   UNL     1       3.788   6.943  17.880  0.00  0.00    +0.000 A 
ATOM     31  C   UNL     1       3.145   6.014  18.741  0.00  0.00    +0.000 A 
ENDBRANCH  19  21
ENDBRANCH  18  19
ENDBRANCH  17  18
ENDBRANCH   1  17
TORSDOF 6
ENDMDL
MODEL 8
REMARK VINA RESULT:      -7.2      1.601      2.534
REMARK  Name = 
REMARK  6 active torsions:
REMARK  status: ('A' for Active; 'I' for Inactive)
REMARK    1  A    between atoms: C_6  and  C_7
REMARK    2  A    between atoms: N_15  and  C_16
REMARK    3  A    between atoms: C_16  and  C_17
REMARK    4  A    between atoms: C_17  and  C_18
REMARK    5  A    between atoms: C_18  and  N_19
REMARK    6  A    between atoms: N_19  and  C_20
REMARK                            x       y       z     vdW  Elec       q    Type
REMARK                         _______ _______ _______ _____ _____    ______ ____
ROOT
ATOM      1  C   UNL     1       1.134  10.643  21.288  0.00  0.00    +0.000 C 
ENDROOT
BRANCH   1   8
ATOM      2  O   UNL     1      -0.409  10.452  23.518  0.00  0.00    +0.000 OA
ATOM      3  C   UNL     1      -0.720  11.292  22.676  0.00  0.00    +0.000 C 
ATOM      4  C   UNL     1      -2.088  11.919  22.673  0.00  0.00    +0.000 C 
ATOM      5  C   UNL     1      -2.042  13.424  22.699  0.00  0.00    +0.000 C 
ATOM      6  S   UNL     1      -1.125  14.086  21.293  0.00  0.00    +0.000 S 
ATOM      7  C   UNL     1       0.387  13.051  21.427  0.00  0.00    +0.000 C 
ATOM      8  N   UNL     1       0.073  11.621  21.568  0.00  0.00    +0.000 N 
BRANCH   7   9
ATOM      9  C   UNL     1       1.351  13.408  20.298  0.00  0.00    +0.000 A 
ATOM     10  C   UNL     1       1.048  13.074  18.958  0.00  0.00    +0.000 A 
ATOM     11 CL   UNL     1      -0.423  12.282  18.497  0.00  0.00    +0.000 Cl
ATOM     12  C   UNL     1       1.919  13.396  17.907  0.00  0.00    +0.000 A 
ATOM     13  C   UNL     1       3.113  14.058  18.160  0.00  0.00    +0.000 A 
ATOM     14  C   UNL     1       3.431  14.414  19.464  0.00  0.00    +0.000 A 
ATOM     15  C   UNL     1       2.562  14.104  20.521  0.00  0.00    +0.000 A 
ATOM     16 CL   UNL     1       3.043  14.689  22.080  0.00  0.00    +0.000 Cl
ENDBRANCH   7   9
ENDBRANCH   1   8
BRANCH   1  17
ATOM     17  C   UNL     1       0.576   9.428  20.532  0.00  0.00    +0.000 C 
BRANCH  17  18
ATOM     18  C   UNL     1       1.287   8.140  20.929  0.00  0.00    +0.000 C 
BRANCH  18  19
ATOM     19  N   UNL     1       2.125   7.679  19.826  0.00  0.00    +0.000 N 
ATOM     20  H   UNL     1       2.957   8.257  19.730  0.00  0.00    +0.000 HD
BRANCH  19  21
ATOM     21  C   UNL     1       2.418   6.305  19.719  0.00  0.00    +0.000 A 
ATOM     22  C   UNL     1       1.790   5.373  20.553  0.00  0.00    +0.000 A 
ATOM     23  C   UNL     1       2.027   4.027  20.363  0.00  0.00    +0.000 A 
ATOM     24  N   UNL     1       2.811   3.531  19.394  0.00  0.00    +0.000 NA
ATOM     25  C   UNL     1       3.390   4.398  18.554  0.00  0.00    +0.000 A 
ATOM     26  C   UNL     1       4.171   3.870  17.540  0.00  0.00    +0.000 A 
ATOM     27  C   UNL     1       4.815   4.687  16.618  0.00  0.00    +0.000 A 
ATOM     28 CL   UNL     1       5.766   3.988  15.367  0.00  0.00    +0.000 Cl
ATOM     29  C   UNL     1       4.692   6.066  16.701  0.00  0.00    +0.000 A 
ATOM     30  C   UNL     1       3.903   6.620  17.709  0.00  0.00    +0.000 A 
ATOM     31  C   UNL     1       3.231   5.806  18.659  0.00  0.00    +0.000 A 
ENDBRANCH  19  21
ENDBRANCH  18  19
ENDBRANCH  17  18
ENDBRANCH   1  17
TORSDOF 6
ENDMDL
MODEL 9
REMARK VINA RESULT:      -7.1      1.624      1.994
REMARK  Name = 
REMARK  6 active torsions:
REMARK  status: ('A' for Active; 'I' for Inactive)
REMARK    1  A    between atoms: C_6  and  C_7
REMARK    2  A    between atoms: N_15  and  C_16
REMARK    3  A    between atoms: C_16  and  C_17
REMARK    4  A    between atoms: C_17  and  C_18
REMARK    5  A    between atoms: C_18  and  N_19
REMARK    6  A    between atoms: N_19  and  C_20
REMARK                            x       y       z     vdW  Elec       q    Type
REMARK                         _______ _______ _______ _____ _____    ______ ____
ROOT
ATOM      1  C   UNL     1       1.101  10.734  21.253  0.00  0.00    +0.000 C 
ENDROOT
BRANCH   1   8
ATOM      2  O   UNL     1      -0.425  10.574  23.497  0.00  0.00    +0.000 OA
ATOM      3  C   UNL     1      -0.739  11.407  22.649  0.00  0.00    +0.000 C 
ATOM      4  C   UNL     1      -2.104  12.039  22.650  0.00  0.00    +0.000 C 
ATOM      5  C   UNL     1      -2.052  13.545  22.659  0.00  0.00    +0.000 C 
ATOM      6  S   UNL     1      -1.143  14.186  21.239  0.00  0.00    +0.000 S 
ATOM      7  C   UNL     1       0.366  13.146  21.372  0.00  0.00    +0.000 C 
ATOM      8  N   UNL     1       0.046  11.720  21.531  0.00  0.00    +0.000 N 
BRANCH   7   9
ATOM      9  C   UNL     1       1.321  13.487  20.230  0.00  0.00    +0.000 A 
ATOM     10  C   UNL     1       2.553  14.131  20.488  0.00  0.00    +0.000 A 
ATOM     11 CL   UNL     1       3.081  14.542  22.087  0.00  0.00    +0.000 Cl
ATOM     12  C   UNL     1       3.444  14.449  19.454  0.00  0.00    +0.000 A 
ATOM     13  C   UNL     1       3.135  14.138  18.136  0.00  0.00    +0.000 A 
ATOM     14  C   UNL     1       1.939  13.491  17.853  0.00  0.00    +0.000 A 
ATOM     15  C   UNL     1       1.045  13.160  18.882  0.00  0.00    +0.000 A 
ATOM     16 CL   UNL     1      -0.363  12.274  18.393  0.00  0.00    +0.000 Cl
ENDBRANCH   7   9
ENDBRANCH   1   8
BRANCH   1  17
ATOM     17  C   UNL     1       0.522   9.490  20.559  0.00  0.00    +0.000 C 
BRANCH  17  18
ATOM     18  C   UNL     1       1.290   8.228  20.929  0.00  0.00    +0.000 C 
BRANCH  18  19
ATOM     19  N   UNL     1       2.021   7.737  19.764  0.00  0.00    +0.000 N 
ATOM     20  H   UNL     1       2.796   8.352  19.530  0.00  0.00    +0.000 HD
BRANCH  19  21
ATOM     21  C   UNL     1       2.389   6.378  19.712  0.00  0.00    +0.000 A 
ATOM     22  C   UNL     1       1.810   5.447  20.583  0.00  0.00    +0.000 A 
ATOM     23  C   UNL     1       2.120   4.109  20.446  0.00  0.00    +0.000 A 
ATOM     24  N   UNL     1       2.932   3.618  19.498  0.00  0.00    +0.000 NA
ATOM     25  C   UNL     1       3.464   4.481  18.624  0.00  0.00    +0.000 A 
ATOM     26  C   UNL     1       4.275   3.956  17.632  0.00  0.00    +0.000 A 
ATOM     27  C   UNL     1       4.875   4.770  16.677  0.00  0.00    +0.000 A 
ATOM     28 CL   UNL     1       5.865   4.073  15.455  0.00  0.00    +0.000 Cl
ATOM     29  C   UNL     1       4.677   6.142  16.705  0.00  0.00    +0.000 A 
ATOM     30  C   UNL     1       3.858   6.693  17.691  0.00  0.00    +0.000 A 
ATOM     31  C   UNL     1       3.229   5.881  18.673  0.00  0.00    +0.000 A 
ENDBRANCH  19  21
ENDBRANCH  18  19
ENDBRANCH  17  18
ENDBRANCH   1  17
TORSDOF 6
ENDMDL
