MODEL 1
REMARK VINA RESULT:      -8.2      0.000      0.000
REMARK  Name = 
REMARK  3 active torsions:
REMARK  status: ('A' for Active; 'I' for Inactive)
REMARK    1  A    between atoms: C_8  and  C_9
REMARK    2  A    between atoms: C_15  and  C_16
REMARK    3  A    between atoms: C_16  and  N_17
REMARK                            x       y       z     vdW  Elec       q    Type
REMARK                         _______ _______ _______ _____ _____    ______ ____
ROOT
ATOM      1 CL   UNL     1       4.170   2.246  17.430  0.00  0.00    +0.000 Cl
ATOM      2  C   UNL     1       4.667   3.699  16.706  0.00  0.00    +0.000 A 
ATOM      3  N   UNL     1       5.744   3.623  15.897  0.00  0.00    +0.000 NA
ATOM      4  C   UNL     1       6.288   4.773  15.455  0.00  0.00    +0.000 A 
ATOM      5  C   UNL     1       5.868   6.037  15.833  0.00  0.00    +0.000 A 
ATOM      6  C   UNL     1       4.765   6.071  16.687  0.00  0.00    +0.000 A 
ATOM      7  N   UNL     1       4.153   7.133  17.296  0.00  0.00    +0.000 N 
ATOM      8  C   UNL     1       3.055   6.738  18.030  0.00  0.00    +0.000 A 
ATOM      9  C   UNL     1       2.908   5.357  17.804  0.00  0.00    +0.000 A 
ATOM     10  C   UNL     1       4.094   4.917  17.096  0.00  0.00    +0.000 A 
ATOM     11  H   UNL     1       4.482   8.085  17.229  0.00  0.00    +0.000 HD
ENDROOT
BRANCH   8  12
ATOM     12  C   UNL     1       2.278   7.721  18.816  0.00  0.00    +0.000 A 
ATOM     13  C   UNL     1       2.015   7.524  20.175  0.00  0.00    +0.000 A 
ATOM     14  C   UNL     1       1.224   8.431  20.905  0.00  0.00    +0.000 A 
ATOM     15  C   UNL     1       0.720   9.570  20.283  0.00  0.00    +0.000 A 
ATOM     16  C   UNL     1       0.981   9.785  18.934  0.00  0.00    +0.000 A 
ATOM     17  C   UNL     1       1.734   8.856  18.207  0.00  0.00    +0.000 A 
ENDBRANCH   8  12
BRANCH   9  18
ATOM     18  C   UNL     1       1.699   4.494  18.122  0.00  0.00    +0.000 C 
BRANCH  18  19
ATOM     19  N   UNL     1       1.949   3.944  19.431  0.00  0.00    +0.000 NA
ATOM     20  C   UNL     1       3.284   4.022  20.008  0.00  0.00    +0.000 C 
ATOM     21  C   UNL     1       3.451   2.827  20.968  0.00  0.00    +0.000 C 
ATOM     22  O   UNL     1       2.399   2.761  21.949  0.00  0.00    +0.000 OA
ATOM     23  C   UNL     1       1.107   2.747  21.314  0.00  0.00    +0.000 C 
ATOM     24  C   UNL     1       0.912   4.001  20.448  0.00  0.00    +0.000 C 
ENDBRANCH  18  19
ENDBRANCH   9  18
TORSDOF 3
ENDMDL
MODEL 2
REMARK VINA RESULT:      -8.2      0.042      1.001
REMARK  Name = 
REMARK  3 active torsions:
REMARK  status: ('A' for Active; 'I' for Inactive)
REMARK    1  A    between atoms: C_8  and  C_9
REMARK    2  A    between atoms: C_15  and  C_16
REMARK    3  A    between atoms: C_16  and  N_17
REMARK                            x       y       z     vdW  Elec       q    Type
REMARK                         _______ _______ _______ _____ _____    ______ ____
ROOT
ATOM      1 CL   UNL     1       4.199   2.252  17.440  0.00  0.00    +0.000 Cl
ATOM      2  C   UNL     1       4.685   3.710  16.719  0.00  0.00    +0.000 A 
ATOM      3  N   UNL     1       5.767   3.646  15.916  0.00  0.00    +0.000 NA
ATOM      4  C   UNL     1       6.301   4.802  15.477  0.00  0.00    +0.000 A 
ATOM      5  C   UNL     1       5.865   6.062  15.854  0.00  0.00    +0.000 A 
ATOM      6  C   UNL     1       4.757   6.083  16.702  0.00  0.00    +0.000 A 
ATOM      7  N   UNL     1       4.131   7.138  17.309  0.00  0.00    +0.000 N 
ATOM      8  C   UNL     1       3.033   6.731  18.037  0.00  0.00    +0.000 A 
ATOM      9  C   UNL     1       2.902   5.349  17.809  0.00  0.00    +0.000 A 
ATOM     10  C   UNL     1       4.096   4.922  17.107  0.00  0.00    +0.000 A 
ATOM     11  H   UNL     1       4.449   8.094  17.244  0.00  0.00    +0.000 HD
ENDROOT
BRANCH   8  12
ATOM     12  C   UNL     1       2.242   7.705  18.819  0.00  0.00    +0.000 A 
ATOM     13  C   UNL     1       1.747   8.877  18.239  0.00  0.00    +0.000 A 
ATOM     14  C   UNL     1       1.047   9.830  19.001  0.00  0.00    +0.000 A 
ATOM     15  C   UNL     1       0.802   9.597  20.352  0.00  0.00    +0.000 A 
ATOM     16  C   UNL     1       1.279   8.431  20.942  0.00  0.00    +0.000 A 
ATOM     17  C   UNL     1       2.011   7.508  20.185  0.00  0.00    +0.000 A 
ENDBRANCH   8  12
BRANCH   9  18
ATOM     18  C   UNL     1       1.701   4.473  18.120  0.00  0.00    +0.000 C 
BRANCH  18  19
ATOM     19  N   UNL     1       1.945   3.934  19.435  0.00  0.00    +0.000 NA
ATOM     20  C   UNL     1       3.279   4.010  20.014  0.00  0.00    +0.000 C 
ATOM     21  C   UNL     1       3.437   2.823  20.986  0.00  0.00    +0.000 C 
ATOM     22  O   UNL     1       2.382   2.772  21.965  0.00  0.00    +0.000 OA
ATOM     23  C   UNL     1       1.092   2.759  21.327  0.00  0.00    +0.000 C 
ATOM     24  C   UNL     1       0.906   4.006  20.449  0.00  0.00    +0.000 C 
ENDBRANCH  18  19
ENDBRANCH   9  18
TORSDOF 3
ENDMDL
MODEL 3
REMARK VINA RESULT:      -7.9      1.683      2.156
REMARK  Name = 
REMARK  3 active torsions:
REMARK  status: ('A' for Active; 'I' for Inactive)
REMARK    1  A    between atoms: C_8  and  C_9
REMARK    2  A    between atoms: C_15  and  C_16
REMARK    3  A    between atoms: C_16  and  N_17
REMARK                            x       y       z     vdW  Elec       q    Type
REMARK                         _______ _______ _______ _____ _____    ______ ____
ROOT
ATOM      1 CL   UNL     1       7.797   4.434  18.396  0.00  0.00    +0.000 Cl
ATOM      2  C   UNL     1       6.847   4.799  17.038  0.00  0.00    +0.000 A 
ATOM      3  N   UNL     1       7.390   4.515  15.837  0.00  0.00    +0.000 NA
ATOM      4  C   UNL     1       6.760   4.959  14.733  0.00  0.00    +0.000 A 
ATOM      5  C   UNL     1       5.627   5.756  14.743  0.00  0.00    +0.000 A 
ATOM      6  C   UNL     1       5.109   6.045  16.006  0.00  0.00    +0.000 A 
ATOM      7  N   UNL     1       4.062   6.850  16.368  0.00  0.00    +0.000 N 
ATOM      8  C   UNL     1       3.845   6.824  17.729  0.00  0.00    +0.000 A 
ATOM      9  C   UNL     1       4.749   5.882  18.253  0.00  0.00    +0.000 A 
ATOM     10  C   UNL     1       5.657   5.528  17.181  0.00  0.00    +0.000 A 
ATOM     11  H   UNL     1       3.530   7.407  15.715  0.00  0.00    +0.000 HD
ENDROOT
BRANCH   8  12
ATOM     12  C   UNL     1       2.796   7.667  18.342  0.00  0.00    +0.000 A 
ATOM     13  C   UNL     1       2.223   8.738  17.649  0.00  0.00    +0.000 A 
ATOM     14  C   UNL     1       1.268   9.574  18.258  0.00  0.00    +0.000 A 
ATOM     15  C   UNL     1       0.850   9.319  19.561  0.00  0.00    +0.000 A 
ATOM     16  C   UNL     1       1.403   8.251  20.260  0.00  0.00    +0.000 A 
ATOM     17  C   UNL     1       2.382   7.450  19.661  0.00  0.00    +0.000 A 
ENDBRANCH   8  12
BRANCH   9  18
ATOM     18  C   UNL     1       4.726   5.252  19.635  0.00  0.00    +0.000 C 
BRANCH  18  19
ATOM     19  N   UNL     1       3.874   4.094  19.519  0.00  0.00    +0.000 NA
ATOM     20  C   UNL     1       4.465   2.770  19.383  0.00  0.00    +0.000 C 
ATOM     21  C   UNL     1       3.470   1.891  18.599  0.00  0.00    +0.000 C 
ATOM     22  O   UNL     1       2.159   1.882  19.194  0.00  0.00    +0.000 OA
ATOM     23  C   UNL     1       1.661   3.223  19.354  0.00  0.00    +0.000 C 
ATOM     24  C   UNL     1       2.608   4.056  20.232  0.00  0.00    +0.000 C 
ENDBRANCH  18  19
ENDBRANCH   9  18
TORSDOF 3
ENDMDL
MODEL 4
REMARK VINA RESULT:      -7.8      2.056      4.244
REMARK  Name = 
REMARK  3 active torsions:
REMARK  status: ('A' for Active; 'I' for Inactive)
REMARK    1  A    between atoms: C_8  and  C_9
REMARK    2  A    between atoms: C_15  and  C_16
REMARK    3  A    between atoms: C_16  and  N_17
REMARK                            x       y       z     vdW  Elec       q    Type
REMARK                         _______ _______ _______ _____ _____    ______ ____
ROOT
ATOM      1 CL   UNL     1       2.749   2.165  17.692  0.00  0.00    +0.000 Cl
ATOM      2  C   UNL     1       2.647   2.766  19.277  0.00  0.00    +0.000 A 
ATOM      3  N   UNL     1       2.512   1.846  20.254  0.00  0.00    +0.000 NA
ATOM      4  C   UNL     1       2.237   2.279  21.499  0.00  0.00    +0.000 A 
ATOM      5  C   UNL     1       2.006   3.602  21.838  0.00  0.00    +0.000 A 
ATOM      6  C   UNL     1       2.135   4.519  20.794  0.00  0.00    +0.000 A 
ATOM      7  N   UNL     1       1.907   5.868  20.772  0.00  0.00    +0.000 N 
ATOM      8  C   UNL     1       2.202   6.416  19.541  0.00  0.00    +0.000 A 
ATOM      9  C   UNL     1       2.730   5.370  18.763  0.00  0.00    +0.000 A 
ATOM     10  C   UNL     1       2.520   4.143  19.506  0.00  0.00    +0.000 A 
ATOM     11  H   UNL     1       1.549   6.391  21.558  0.00  0.00    +0.000 HD
ENDROOT
BRANCH   8  12
ATOM     12  C   UNL     1       1.976   7.853  19.280  0.00  0.00    +0.000 A 
ATOM     13  C   UNL     1       1.340   8.674  20.218  0.00  0.00    +0.000 A 
ATOM     14  C   UNL     1       1.073  10.027  19.941  0.00  0.00    +0.000 A 
ATOM     15  C   UNL     1       1.475  10.582  18.730  0.00  0.00    +0.000 A 
ATOM     16  C   UNL     1       2.116   9.782  17.790  0.00  0.00    +0.000 A 
ATOM     17  C   UNL     1       2.342   8.427  18.058  0.00  0.00    +0.000 A 
ENDBRANCH   8  12
BRANCH   9  18
ATOM     18  C   UNL     1       3.487   5.487  17.451  0.00  0.00    +0.000 C 
BRANCH  18  19
ATOM     19  N   UNL     1       4.862   5.193  17.768  0.00  0.00    +0.000 NA
ATOM     20  C   UNL     1       5.330   5.309  19.143  0.00  0.00    +0.000 C 
ATOM     21  C   UNL     1       6.834   5.645  19.099  0.00  0.00    +0.000 C 
ATOM     22  O   UNL     1       7.584   4.703  18.310  0.00  0.00    +0.000 OA
ATOM     23  C   UNL     1       7.033   4.593  16.984  0.00  0.00    +0.000 C 
ATOM     24  C   UNL     1       5.563   4.148  17.041  0.00  0.00    +0.000 C 
ENDBRANCH  18  19
ENDBRANCH   9  18
TORSDOF 3
ENDMDL
MODEL 5
REMARK VINA RESULT:      -7.8      2.075      4.292
REMARK  Name = 
REMARK  3 active torsions:
REMARK  status: ('A' for Active; 'I' for Inactive)
REMARK    1  A    between atoms: C_8  and  C_9
REMARK    2  A    between atoms: C_15  and  C_16
REMARK    3  A    between atoms: C_16  and  N_17
REMARK                            x       y       z     vdW  Elec       q    Type
REMARK                         _______ _______ _______ _____ _____    ______ ____
ROOT
ATOM      1 CL   UNL     1       3.108   2.283  17.654  0.00  0.00    +0.000 Cl
ATOM      2  C   UNL     1       2.915   2.869  19.235  0.00  0.00    +0.000 A 
ATOM      3  N   UNL     1       2.801   1.939  20.205  0.00  0.00    +0.000 NA
ATOM      4  C   UNL     1       2.457   2.349  21.441  0.00  0.00    +0.000 A 
ATOM      5  C   UNL     1       2.137   3.655  21.774  0.00  0.00    +0.000 A 
ATOM      6  C   UNL     1       2.247   4.582  20.737  0.00  0.00    +0.000 A 
ATOM      7  N   UNL     1       1.941   5.916  20.710  0.00  0.00    +0.000 N 
ATOM      8  C   UNL     1       2.246   6.485  19.491  0.00  0.00    +0.000 A 
ATOM      9  C   UNL     1       2.862   5.475  18.730  0.00  0.00    +0.000 A 
ATOM     10  C   UNL     1       2.698   4.235  19.463  0.00  0.00    +0.000 A 
ATOM     11  H   UNL     1       1.525   6.413  21.484  0.00  0.00    +0.000 HD
ENDROOT
BRANCH   8  12
ATOM     12  C   UNL     1       1.944   7.908  19.226  0.00  0.00    +0.000 A 
ATOM     13  C   UNL     1       2.333   8.527  18.034  0.00  0.00    +0.000 A 
ATOM     14  C   UNL     1       2.097   9.896  17.811  0.00  0.00    +0.000 A 
ATOM     15  C   UNL     1       1.431  10.652  18.771  0.00  0.00    +0.000 A 
ATOM     16  C   UNL     1       1.028  10.050  19.958  0.00  0.00    +0.000 A 
ATOM     17  C   UNL     1       1.304   8.697  20.188  0.00  0.00    +0.000 A 
ENDBRANCH   8  12
BRANCH   9  18
ATOM     18  C   UNL     1       3.655   5.643  17.446  0.00  0.00    +0.000 C 
BRANCH  18  19
ATOM     19  N   UNL     1       5.014   5.295  17.781  0.00  0.00    +0.000 NA
ATOM     20  C   UNL     1       5.466   5.387  19.162  0.00  0.00    +0.000 C 
ATOM     21  C   UNL     1       6.983   5.665  19.141  0.00  0.00    +0.000 C 
ATOM     22  O   UNL     1       7.707   4.698  18.358  0.00  0.00    +0.000 OA
ATOM     23  C   UNL     1       7.170   4.615  17.024  0.00  0.00    +0.000 C 
ATOM     24  C   UNL     1       5.684   4.227  17.058  0.00  0.00    +0.000 C 
ENDBRANCH  18  19
ENDBRANCH   9  18
TORSDOF 3
ENDMDL
MODEL 6
REMARK VINA RESULT:      -7.7      1.653      1.913
REMARK  Name = 
REMARK  3 active torsions:
REMARK  status: ('A' for Active; 'I' for Inactive)
REMARK    1  A    between atoms: C_8  and  C_9
REMARK    2  A    between atoms: C_15  and  C_16
REMARK    3  A    between atoms: C_16  and  N_17
REMARK                            x       y       z     vdW  Elec       q    Type
REMARK                         _______ _______ _______ _____ _____    ______ ____
ROOT
ATOM      1 CL   UNL     1       7.799   4.384  18.283  0.00  0.00    +0.000 Cl
ATOM      2  C   UNL     1       6.842   4.798  16.944  0.00  0.00    +0.000 A 
ATOM      3  N   UNL     1       7.368   4.533  15.730  0.00  0.00    +0.000 NA
ATOM      4  C   UNL     1       6.735   5.014  14.644  0.00  0.00    +0.000 A 
ATOM      5  C   UNL     1       5.618   5.831  14.684  0.00  0.00    +0.000 A 
ATOM      6  C   UNL     1       5.117   6.100  15.959  0.00  0.00    +0.000 A 
ATOM      7  N   UNL     1       4.089   6.914  16.350  0.00  0.00    +0.000 N 
ATOM      8  C   UNL     1       3.885   6.861  17.712  0.00  0.00    +0.000 A 
ATOM      9  C   UNL     1       4.776   5.891  18.205  0.00  0.00    +0.000 A 
ATOM     10  C   UNL     1       5.667   5.545  17.115  0.00  0.00    +0.000 A 
ATOM     11  H   UNL     1       3.561   7.496  15.716  0.00  0.00    +0.000 HD
ENDROOT
BRANCH   8  12
ATOM     12  C   UNL     1       2.857   7.707  18.355  0.00  0.00    +0.000 A 
ATOM     13  C   UNL     1       2.363   7.414  19.631  0.00  0.00    +0.000 A 
ATOM     14  C   UNL     1       1.342   8.187  20.214  0.00  0.00    +0.000 A 
ATOM     15  C   UNL     1       0.830   9.289  19.535  0.00  0.00    +0.000 A 
ATOM     16  C   UNL     1       1.317   9.600  18.270  0.00  0.00    +0.000 A 
ATOM     17  C   UNL     1       2.304   8.801  17.681  0.00  0.00    +0.000 A 
ENDBRANCH   8  12
BRANCH   9  18
ATOM     18  C   UNL     1       4.755   5.228  19.572  0.00  0.00    +0.000 C 
BRANCH  18  19
ATOM     19  N   UNL     1       3.787   4.164  19.472  0.00  0.00    +0.000 NA
ATOM     20  C   UNL     1       4.175   2.884  18.894  0.00  0.00    +0.000 C 
ATOM     21  C   UNL     1       2.914   2.250  18.272  0.00  0.00    +0.000 C 
ATOM     22  O   UNL     1       1.827   2.157  19.211  0.00  0.00    +0.000 OA
ATOM     23  C   UNL     1       1.536   3.444  19.787  0.00  0.00    +0.000 C 
ATOM     24  C   UNL     1       2.773   4.012  20.501  0.00  0.00    +0.000 C 
ENDBRANCH  18  19
ENDBRANCH   9  18
TORSDOF 3
ENDMDL
MODEL 7
REMARK VINA RESULT:      -7.6      2.038      4.209
REMARK  Name = 
REMARK  3 active torsions:
REMARK  status: ('A' for Active; 'I' for Inactive)
REMARK    1  A    between atoms: C_8  and  C_9
REMARK    2  A    between atoms: C_15  and  C_16
REMARK    3  A    between atoms: C_16  and  N_17
REMARK                            x       y       z     vdW  Elec       q    Type
REMARK                         _______ _______ _______ _____ _____    ______ ____
ROOT
ATOM      1 CL   UNL     1       3.122   2.705  17.462  0.00  0.00    +0.000 Cl
ATOM      2  C   UNL     1       2.958   3.224  19.070  0.00  0.00    +0.000 A 
ATOM      3  N   UNL     1       2.901   2.253  20.005  0.00  0.00    +0.000 NA
ATOM      4  C   UNL     1       2.581   2.604  21.265  0.00  0.00    +0.000 A 
ATOM      5  C   UNL     1       2.229   3.884  21.659  0.00  0.00    +0.000 A 
ATOM      6  C   UNL     1       2.279   4.854  20.657  0.00  0.00    +0.000 A 
ATOM      7  N   UNL     1       1.930   6.177  20.691  0.00  0.00    +0.000 N 
ATOM      8  C   UNL     1       2.181   6.803  19.488  0.00  0.00    +0.000 A 
ATOM      9  C   UNL     1       2.806   5.844  18.670  0.00  0.00    +0.000 A 
ATOM     10  C   UNL     1       2.704   4.572  19.357  0.00  0.00    +0.000 A 
ATOM     11  H   UNL     1       1.521   6.630  21.495  0.00  0.00    +0.000 HD
ENDROOT
BRANCH   8  12
ATOM     12  C   UNL     1       1.826   8.224  19.288  0.00  0.00    +0.000 A 
ATOM     13  C   UNL     1       2.204   8.915  18.132  0.00  0.00    +0.000 A 
ATOM     14  C   UNL     1       1.917  10.283  17.973  0.00  0.00    +0.000 A 
ATOM     15  C   UNL     1       1.211  10.966  18.960  0.00  0.00    +0.000 A 
ATOM     16  C   UNL     1       0.819  10.290  20.111  0.00  0.00    +0.000 A 
ATOM     17  C   UNL     1       1.145   8.939  20.279  0.00  0.00    +0.000 A 
ENDBRANCH   8  12
BRANCH   9  18
ATOM     18  C   UNL     1       3.556   6.088  17.372  0.00  0.00    +0.000 C 
BRANCH  18  19
ATOM     19  N   UNL     1       4.909   5.652  17.617  0.00  0.00    +0.000 NA
ATOM     20  C   UNL     1       5.785   5.341  16.496  0.00  0.00    +0.000 C 
ATOM     21  C   UNL     1       6.805   4.289  16.976  0.00  0.00    +0.000 C 
ATOM     22  O   UNL     1       7.507   4.707  18.162  0.00  0.00    +0.000 OA
ATOM     23  C   UNL     1       6.581   5.055  19.208  0.00  0.00    +0.000 C 
ATOM     24  C   UNL     1       5.643   6.184  18.752  0.00  0.00    +0.000 C 
ENDBRANCH  18  19
ENDBRANCH   9  18
TORSDOF 3
ENDMDL
MODEL 8
REMARK VINA RESULT:      -7.6      2.036      5.235
REMARK  Name = 
REMARK  3 active torsions:
REMARK  status: ('A' for Active; 'I' for Inactive)
REMARK    1  A    between atoms: C_8  and  C_9
REMARK    2  A    between atoms: C_15  and  C_16
REMARK    3  A    between atoms: C_16  and  N_17
REMARK                            x       y       z     vdW  Elec       q    Type
REMARK                         _______ _______ _______ _____ _____    ______ ____
ROOT
ATOM      1 CL   UNL     1       1.407   6.093  20.969  0.00  0.00    +0.000 Cl
ATOM      2  C   UNL     1       1.852   7.338  19.905  0.00  0.00    +0.000 A 
ATOM      3  N   UNL     1       1.114   8.466  19.968  0.00  0.00    +0.000 NA
ATOM      4  C   UNL     1       1.305   9.403  19.019  0.00  0.00    +0.000 A 
ATOM      5  C   UNL     1       2.153   9.260  17.934  0.00  0.00    +0.000 A 
ATOM      6  C   UNL     1       2.881   8.070  17.895  0.00  0.00    +0.000 A 
ATOM      7  N   UNL     1       3.737   7.591  16.941  0.00  0.00    +0.000 N 
ATOM      8  C   UNL     1       4.293   6.384  17.313  0.00  0.00    +0.000 A 
ATOM      9  C   UNL     1       3.831   6.125  18.616  0.00  0.00    +0.000 A 
ATOM     10  C   UNL     1       2.805   7.108  18.903  0.00  0.00    +0.000 A 
ATOM     11  H   UNL     1       3.921   8.058  16.065  0.00  0.00    +0.000 HD
ENDROOT
BRANCH   8  12
ATOM     12  C   UNL     1       5.205   5.661  16.402  0.00  0.00    +0.000 A 
ATOM     13  C   UNL     1       4.737   5.047  15.236  0.00  0.00    +0.000 A 
ATOM     14  C   UNL     1       5.599   4.308  14.404  0.00  0.00    +0.000 A 
ATOM     15  C   UNL     1       6.952   4.209  14.716  0.00  0.00    +0.000 A 
ATOM     16  C   UNL     1       7.435   4.822  15.867  0.00  0.00    +0.000 A 
ATOM     17  C   UNL     1       6.563   5.520  16.710  0.00  0.00    +0.000 A 
ENDBRANCH   8  12
BRANCH   9  18
ATOM     18  C   UNL     1       4.368   5.098  19.597  0.00  0.00    +0.000 C 
BRANCH  18  19
ATOM     19  N   UNL     1       3.588   3.905  19.376  0.00  0.00    +0.000 NA
ATOM     20  C   UNL     1       3.930   3.009  18.280  0.00  0.00    +0.000 C 
ATOM     21  C   UNL     1       2.637   2.296  17.836  0.00  0.00    +0.000 C 
ATOM     22  O   UNL     1       1.967   1.644  18.930  0.00  0.00    +0.000 OA
ATOM     23  C   UNL     1       1.713   2.572  20.001  0.00  0.00    +0.000 C 
ATOM     24  C   UNL     1       3.025   3.190  20.509  0.00  0.00    +0.000 C 
ENDBRANCH  18  19
ENDBRANCH   9  18
TORSDOF 3
ENDMDL
MODEL 9
REMARK VINA RESULT:      -7.6      1.975      5.199
REMARK  Name = 
REMARK  3 active torsions:
REMARK  status: ('A' for Active; 'I' for Inactive)
REMARK    1  A    between atoms: C_8  and  C_9
REMARK    2  A    between atoms: C_15  and  C_16
REMARK    3  A    between atoms: C_16  and  N_17
REMARK                            x       y       z     vdW  Elec       q    Type
REMARK                         _______ _______ _______ _____ _____    ______ ____
ROOT
ATOM      1 CL   UNL     1       1.565   5.819  20.883  0.00  0.00    +0.000 Cl
ATOM      2  C   UNL     1       2.008   7.103  19.865  0.00  0.00    +0.000 A 
ATOM      3  N   UNL     1       1.288   8.237  19.989  0.00  0.00    +0.000 NA
ATOM      4  C   UNL     1       1.476   9.211  19.078  0.00  0.00    +0.000 A 
ATOM      5  C   UNL     1       2.303   9.103  17.973  0.00  0.00    +0.000 A 
ATOM      6  C   UNL     1       3.013   7.907  17.869  0.00  0.00    +0.000 A 
ATOM      7  N   UNL     1       3.845   7.457  16.880  0.00  0.00    +0.000 N 
ATOM      8  C   UNL     1       4.389   6.228  17.190  0.00  0.00    +0.000 A 
ATOM      9  C   UNL     1       3.947   5.919  18.489  0.00  0.00    +0.000 A 
ATOM     10  C   UNL     1       2.940   6.903  18.837  0.00  0.00    +0.000 A 
ATOM     11  H   UNL     1       4.020   7.958  16.022  0.00  0.00    +0.000 HD
ENDROOT
BRANCH   8  12
ATOM     12  C   UNL     1       5.275   5.532  16.233  0.00  0.00    +0.000 A 
ATOM     13  C   UNL     1       6.667   5.623  16.328  0.00  0.00    +0.000 A 
ATOM     14  C   UNL     1       7.506   5.009  15.379  0.00  0.00    +0.000 A 
ATOM     15  C   UNL     1       6.953   4.261  14.343  0.00  0.00    +0.000 A 
ATOM     16  C   UNL     1       5.570   4.153  14.240  0.00  0.00    +0.000 A 
ATOM     17  C   UNL     1       4.743   4.802  15.165  0.00  0.00    +0.000 A 
ENDBRANCH   8  12
BRANCH   9  18
ATOM     18  C   UNL     1       4.486   4.844  19.416  0.00  0.00    +0.000 C 
BRANCH  18  19
ATOM     19  N   UNL     1       3.532   3.764  19.355  0.00  0.00    +0.000 NA
ATOM     20  C   UNL     1       3.198   3.165  18.070  0.00  0.00    +0.000 C 
ATOM     21  C   UNL     1       1.759   2.618  18.168  0.00  0.00    +0.000 C 
ATOM     22  O   UNL     1       1.585   1.728  19.286  0.00  0.00    +0.000 OA
ATOM     23  C   UNL     1       1.990   2.363  20.514  0.00  0.00    +0.000 C 
ATOM     24  C   UNL     1       3.461   2.802  20.441  0.00  0.00    +0.000 C 
ENDBRANCH  18  19
ENDBRANCH   9  18
TORSDOF 3
ENDMDL
