MODEL 1
REMARK VINA RESULT:      -7.1      0.000      0.000
REMARK  Name = 
REMARK  7 active torsions:
REMARK  status: ('A' for Active; 'I' for Inactive)
REMARK    1  A    between atoms: C_1  and  O_2
REMARK    2  A    between atoms: O_2  and  C_3
REMARK    3  A    between atoms: C_6  and  C_7
REMARK    4  A    between atoms: C_7  and  C_8
REMARK    5  A    between atoms: C_8  and  N_9
REMARK    6  A    between atoms: C_18  and  O_19
REMARK    7  A    between atoms: O_19  and  C_20
REMARK                            x       y       z     vdW  Elec       q    Type
REMARK                         _______ _______ _______ _____ _____    ______ ____
ROOT
ATOM      1  C   UNL     1       6.644   5.838  17.824  0.00  0.00    +0.000 A 
ATOM      2  C   UNL     1       5.506   5.918  18.637  0.00  0.00    +0.000 A 
ATOM      3  C   UNL     1       4.355   5.166  18.358  0.00  0.00    +0.000 A 
ATOM      4  C   UNL     1       4.311   4.330  17.241  0.00  0.00    +0.000 A 
ATOM      5  C   UNL     1       5.416   4.349  16.374  0.00  0.00    +0.000 A 
ATOM      6  C   UNL     1       6.586   5.071  16.651  0.00  0.00    +0.000 A 
ENDROOT
BRANCH   1   8
ATOM      7  C   UNL     1       7.848   7.869  17.661  0.00  0.00    +0.000 C 
ATOM      8  O   UNL     1       7.790   6.521  18.120  0.00  0.00    +0.000 OA
ENDBRANCH   1   8
BRANCH   6   9
ATOM      9  O   UNL     1       7.537   4.876  15.687  0.00  0.00    +0.000 OA
ATOM     10  C   UNL     1       7.157   4.919  14.321  0.00  0.00    +0.000 C 
ENDBRANCH   6   9
BRANCH   4  11
ATOM     11  C   UNL     1       3.095   3.449  16.983  0.00  0.00    +0.000 C 
BRANCH  11  12
ATOM     12  C   UNL     1       3.107   2.194  17.864  0.00  0.00    +0.000 C 
BRANCH  12  13
ATOM     13  N   UNL     1       2.573   2.315  19.210  0.00  0.00    +0.000 N 
ATOM     14  C   UNL     1       3.479   2.391  20.265  0.00  0.00    +0.000 C 
ATOM     15  O   UNL     1       4.657   2.053  20.173  0.00  0.00    +0.000 OA
ATOM     16  C   UNL     1       2.927   3.033  21.535  0.00  0.00    +0.000 C 
ATOM     17  O   UNL     1       1.579   2.701  21.810  0.00  0.00    +0.000 OA
ATOM     18  C   UNL     1       0.750   3.020  20.707  0.00  0.00    +0.000 C 
ATOM     19  C   UNL     1       1.194   2.430  19.371  0.00  0.00    +0.000 C 
ATOM     20  O   UNL     1       0.384   2.158  18.486  0.00  0.00    +0.000 OA
ENDBRANCH  12  13
ENDBRANCH  11  12
ENDBRANCH   4  11
TORSDOF 5
ENDMDL
MODEL 2
REMARK VINA RESULT:      -7.0      1.521      3.067
REMARK  Name = 
REMARK  7 active torsions:
REMARK  status: ('A' for Active; 'I' for Inactive)
REMARK    1  A    between atoms: C_1  and  O_2
REMARK    2  A    between atoms: O_2  and  C_3
REMARK    3  A    between atoms: C_6  and  C_7
REMARK    4  A    between atoms: C_7  and  C_8
REMARK    5  A    between atoms: C_8  and  N_9
REMARK    6  A    between atoms: C_18  and  O_19
REMARK    7  A    between atoms: O_19  and  C_20
REMARK                            x       y       z     vdW  Elec       q    Type
REMARK                         _______ _______ _______ _____ _____    ______ ____
ROOT
ATOM      1  C   UNL     1       6.583   5.218  15.681  0.00  0.00    +0.000 A 
ATOM      2  C   UNL     1       5.399   4.476  15.772  0.00  0.00    +0.000 A 
ATOM      3  C   UNL     1       4.383   4.831  16.672  0.00  0.00    +0.000 A 
ATOM      4  C   UNL     1       4.541   5.928  17.520  0.00  0.00    +0.000 A 
ATOM      5  C   UNL     1       5.779   6.591  17.498  0.00  0.00    +0.000 A 
ATOM      6  C   UNL     1       6.795   6.270  16.584  0.00  0.00    +0.000 A 
ENDROOT
BRANCH   1   8
ATOM      7  C   UNL     1       7.096   4.549  13.469  0.00  0.00    +0.000 C 
ATOM      8  O   UNL     1       7.554   4.916  14.768  0.00  0.00    +0.000 OA
ENDBRANCH   1   8
BRANCH   6   9
ATOM      9  O   UNL     1       7.875   7.098  16.722  0.00  0.00    +0.000 OA
ATOM     10  C   UNL     1       7.809   8.175  17.645  0.00  0.00    +0.000 C 
ENDBRANCH   6   9
BRANCH   4  11
ATOM     11  C   UNL     1       3.406   6.366  18.438  0.00  0.00    +0.000 C 
BRANCH  11  12
ATOM     12  C   UNL     1       2.137   5.535  18.206  0.00  0.00    +0.000 C 
BRANCH  12  13
ATOM     13  N   UNL     1       1.842   4.484  19.165  0.00  0.00    +0.000 N 
ATOM     14  C   UNL     1       1.780   3.174  18.695  0.00  0.00    +0.000 C 
ATOM     15  O   UNL     1       1.647   2.885  17.508  0.00  0.00    +0.000 OA
ATOM     16  C   UNL     1       1.999   2.104  19.761  0.00  0.00    +0.000 C 
ATOM     17  O   UNL     1       1.421   2.411  21.016  0.00  0.00    +0.000 OA
ATOM     18  C   UNL     1       1.884   3.664  21.486  0.00  0.00    +0.000 C 
ATOM     19  C   UNL     1       1.715   4.825  20.509  0.00  0.00    +0.000 C 
ATOM     20  O   UNL     1       1.561   5.980  20.903  0.00  0.00    +0.000 OA
ENDBRANCH  12  13
ENDBRANCH  11  12
ENDBRANCH   4  11
TORSDOF 5
ENDMDL
MODEL 3
REMARK VINA RESULT:      -6.9      1.427      3.285
REMARK  Name = 
REMARK  7 active torsions:
REMARK  status: ('A' for Active; 'I' for Inactive)
REMARK    1  A    between atoms: C_1  and  O_2
REMARK    2  A    between atoms: O_2  and  C_3
REMARK    3  A    between atoms: C_6  and  C_7
REMARK    4  A    between atoms: C_7  and  C_8
REMARK    5  A    between atoms: C_8  and  N_9
REMARK    6  A    between atoms: C_18  and  O_19
REMARK    7  A    between atoms: O_19  and  C_20
REMARK                            x       y       z     vdW  Elec       q    Type
REMARK                         _______ _______ _______ _____ _____    ______ ____
ROOT
ATOM      1  C   UNL     1       6.598   5.422  15.611  0.00  0.00    +0.000 A 
ATOM      2  C   UNL     1       5.452   4.622  15.699  0.00  0.00    +0.000 A 
ATOM      3  C   UNL     1       4.454   4.879  16.651  0.00  0.00    +0.000 A 
ATOM      4  C   UNL     1       4.594   5.934  17.554  0.00  0.00    +0.000 A 
ATOM      5  C   UNL     1       5.800   6.654  17.528  0.00  0.00    +0.000 A 
ATOM      6  C   UNL     1       6.796   6.432  16.564  0.00  0.00    +0.000 A 
ENDROOT
BRANCH   1   8
ATOM      7  C   UNL     1       7.096   4.595  13.450  0.00  0.00    +0.000 C 
ATOM      8  O   UNL     1       7.548   5.217  14.649  0.00  0.00    +0.000 OA
ENDBRANCH   1   8
BRANCH   6   9
ATOM      9  O   UNL     1       7.842   7.301  16.713  0.00  0.00    +0.000 OA
ATOM     10  C   UNL     1       7.997   7.994  17.941  0.00  0.00    +0.000 C 
ENDBRANCH   6   9
BRANCH   4  11
ATOM     11  C   UNL     1       3.475   6.267  18.533  0.00  0.00    +0.000 C 
BRANCH  11  12
ATOM     12  C   UNL     1       3.548   5.399  19.795  0.00  0.00    +0.000 C 
BRANCH  12  13
ATOM     13  N   UNL     1       2.954   4.074  19.731  0.00  0.00    +0.000 N 
ATOM     14  C   UNL     1       1.573   3.973  19.881  0.00  0.00    +0.000 C 
ATOM     15  O   UNL     1       0.876   4.862  20.366  0.00  0.00    +0.000 OA
ATOM     16  C   UNL     1       0.959   2.705  19.295  0.00  0.00    +0.000 C 
ATOM     17  O   UNL     1       1.755   1.547  19.465  0.00  0.00    +0.000 OA
ATOM     18  C   UNL     1       3.051   1.747  18.932  0.00  0.00    +0.000 C 
ATOM     19  C   UNL     1       3.778   2.988  19.446  0.00  0.00    +0.000 C 
ATOM     20  O   UNL     1       5.005   3.031  19.519  0.00  0.00    +0.000 OA
ENDBRANCH  12  13
ENDBRANCH  11  12
ENDBRANCH   4  11
TORSDOF 5
ENDMDL
MODEL 4
REMARK VINA RESULT:      -6.7      1.354      2.232
REMARK  Name = 
REMARK  7 active torsions:
REMARK  status: ('A' for Active; 'I' for Inactive)
REMARK    1  A    between atoms: C_1  and  O_2
REMARK    2  A    between atoms: O_2  and  C_3
REMARK    3  A    between atoms: C_6  and  C_7
REMARK    4  A    between atoms: C_7  and  C_8
REMARK    5  A    between atoms: C_8  and  N_9
REMARK    6  A    between atoms: C_18  and  O_19
REMARK    7  A    between atoms: O_19  and  C_20
REMARK                            x       y       z     vdW  Elec       q    Type
REMARK                         _______ _______ _______ _____ _____    ______ ____
ROOT
ATOM      1  C   UNL     1       5.817   6.203  16.716  0.00  0.00    +0.000 A 
ATOM      2  C   UNL     1       6.214   4.930  16.289  0.00  0.00    +0.000 A 
ATOM      3  C   UNL     1       5.328   3.843  16.318  0.00  0.00    +0.000 A 
ATOM      4  C   UNL     1       4.027   4.003  16.798  0.00  0.00    +0.000 A 
ATOM      5  C   UNL     1       3.682   5.258  17.329  0.00  0.00    +0.000 A 
ATOM      6  C   UNL     1       4.544   6.364  17.281  0.00  0.00    +0.000 A 
ENDROOT
BRANCH   1   8
ATOM      7  C   UNL     1       7.622   7.397  17.677  0.00  0.00    +0.000 C 
ATOM      8  O   UNL     1       6.654   7.282  16.638  0.00  0.00    +0.000 OA
ENDBRANCH   1   8
BRANCH   6   9
ATOM      9  O   UNL     1       3.955   7.482  17.805  0.00  0.00    +0.000 OA
ATOM     10  C   UNL     1       2.596   7.425  18.210  0.00  0.00    +0.000 C 
ENDBRANCH   6   9
BRANCH   4  11
ATOM     11  C   UNL     1       3.037   2.846  16.752  0.00  0.00    +0.000 C 
BRANCH  11  12
ATOM     12  C   UNL     1       3.194   1.918  17.963  0.00  0.00    +0.000 C 
BRANCH  12  13
ATOM     13  N   UNL     1       2.597   2.347  19.216  0.00  0.00    +0.000 N 
ATOM     14  C   UNL     1       3.451   2.647  20.274  0.00  0.00    +0.000 C 
ATOM     15  O   UNL     1       4.624   2.282  20.324  0.00  0.00    +0.000 OA
ATOM     16  C   UNL     1       2.852   3.566  21.336  0.00  0.00    +0.000 C 
ATOM     17  O   UNL     1       1.485   3.323  21.605  0.00  0.00    +0.000 OA
ATOM     18  C   UNL     1       0.719   3.395  20.416  0.00  0.00    +0.000 C 
ATOM     19  C   UNL     1       1.215   2.513  19.273  0.00  0.00    +0.000 C 
ATOM     20  O   UNL     1       0.444   2.058  18.429  0.00  0.00    +0.000 OA
ENDBRANCH  12  13
ENDBRANCH  11  12
ENDBRANCH   4  11
TORSDOF 5
ENDMDL
MODEL 5
REMARK VINA RESULT:      -6.7      1.354      1.514
REMARK  Name = 
REMARK  7 active torsions:
REMARK  status: ('A' for Active; 'I' for Inactive)
REMARK    1  A    between atoms: C_1  and  O_2
REMARK    2  A    between atoms: O_2  and  C_3
REMARK    3  A    between atoms: C_6  and  C_7
REMARK    4  A    between atoms: C_7  and  C_8
REMARK    5  A    between atoms: C_8  and  N_9
REMARK    6  A    between atoms: C_18  and  O_19
REMARK    7  A    between atoms: O_19  and  C_20
REMARK                            x       y       z     vdW  Elec       q    Type
REMARK                         _______ _______ _______ _____ _____    ______ ____
ROOT
ATOM      1  C   UNL     1       6.110   5.297  17.615  0.00  0.00    +0.000 A 
ATOM      2  C   UNL     1       5.212   5.971  18.452  0.00  0.00    +0.000 A 
ATOM      3  C   UNL     1       3.832   5.725  18.390  0.00  0.00    +0.000 A 
ATOM      4  C   UNL     1       3.318   4.812  17.469  0.00  0.00    +0.000 A 
ATOM      5  C   UNL     1       4.218   4.231  16.560  0.00  0.00    +0.000 A 
ATOM      6  C   UNL     1       5.604   4.441  16.626  0.00  0.00    +0.000 A 
ENDROOT
BRANCH   1   8
ATOM      7  C   UNL     1       7.946   5.911  18.978  0.00  0.00    +0.000 C 
ATOM      8  O   UNL     1       7.461   5.486  17.707  0.00  0.00    +0.000 OA
ENDBRANCH   1   8
BRANCH   6   9
ATOM      9  O   UNL     1       6.268   3.718  15.673  0.00  0.00    +0.000 OA
ATOM     10  C   UNL     1       6.682   4.361  14.478  0.00  0.00    +0.000 C 
ENDBRANCH   6   9
BRANCH   4  11
ATOM     11  C   UNL     1       1.831   4.481  17.456  0.00  0.00    +0.000 C 
BRANCH  11  12
ATOM     12  C   UNL     1       1.556   3.084  18.028  0.00  0.00    +0.000 C 
BRANCH  12  13
ATOM     13  N   UNL     1       2.076   2.789  19.353  0.00  0.00    +0.000 N 
ATOM     14  C   UNL     1       3.208   1.984  19.442  0.00  0.00    +0.000 C 
ATOM     15  O   UNL     1       3.603   1.264  18.527  0.00  0.00    +0.000 OA
ATOM     16  C   UNL     1       4.000   2.139  20.738  0.00  0.00    +0.000 C 
ATOM     17  O   UNL     1       3.196   2.322  21.887  0.00  0.00    +0.000 OA
ATOM     18  C   UNL     1       2.324   3.426  21.718  0.00  0.00    +0.000 C 
ATOM     19  C   UNL     1       1.469   3.387  20.454  0.00  0.00    +0.000 C 
ATOM     20  O   UNL     1       0.361   3.921  20.410  0.00  0.00    +0.000 OA
ENDBRANCH  12  13
ENDBRANCH  11  12
ENDBRANCH   4  11
TORSDOF 5
ENDMDL
MODEL 6
REMARK VINA RESULT:      -6.7      1.615      2.199
REMARK  Name = 
REMARK  7 active torsions:
REMARK  status: ('A' for Active; 'I' for Inactive)
REMARK    1  A    between atoms: C_1  and  O_2
REMARK    2  A    between atoms: O_2  and  C_3
REMARK    3  A    between atoms: C_6  and  C_7
REMARK    4  A    between atoms: C_7  and  C_8
REMARK    5  A    between atoms: C_8  and  N_9
REMARK    6  A    between atoms: C_18  and  O_19
REMARK    7  A    between atoms: O_19  and  C_20
REMARK                            x       y       z     vdW  Elec       q    Type
REMARK                         _______ _______ _______ _____ _____    ______ ____
ROOT
ATOM      1  C   UNL     1       6.870   6.134  16.743  0.00  0.00    +0.000 A 
ATOM      2  C   UNL     1       5.793   6.178  15.849  0.00  0.00    +0.000 A 
ATOM      3  C   UNL     1       4.741   5.254  15.927  0.00  0.00    +0.000 A 
ATOM      4  C   UNL     1       4.756   4.247  16.894  0.00  0.00    +0.000 A 
ATOM      5  C   UNL     1       5.897   4.146  17.707  0.00  0.00    +0.000 A 
ATOM      6  C   UNL     1       6.945   5.078  17.664  0.00  0.00    +0.000 A 
ENDROOT
BRANCH   1   8
ATOM      7  C   UNL     1       7.683   8.210  17.539  0.00  0.00    +0.000 C 
ATOM      8  O   UNL     1       7.870   7.065  16.712  0.00  0.00    +0.000 OA
ENDBRANCH   1   8
BRANCH   6   9
ATOM      9  O   UNL     1       7.907   4.797  18.594  0.00  0.00    +0.000 OA
ATOM     10  C   UNL     1       7.914   5.510  19.821  0.00  0.00    +0.000 C 
ENDBRANCH   6   9
BRANCH   4  11
ATOM     11  C   UNL     1       3.575   3.294  17.035  0.00  0.00    +0.000 C 
BRANCH  11  12
ATOM     12  C   UNL     1       2.413   3.941  17.799  0.00  0.00    +0.000 C 
BRANCH  12  13
ATOM     13  N   UNL     1       2.371   3.751  19.240  0.00  0.00    +0.000 N 
ATOM     14  C   UNL     1       2.792   4.804  20.047  0.00  0.00    +0.000 C 
ATOM     15  O   UNL     1       3.475   5.741  19.639  0.00  0.00    +0.000 OA
ATOM     16  C   UNL     1       2.248   4.771  21.473  0.00  0.00    +0.000 C 
ATOM     17  O   UNL     1       2.163   3.473  22.028  0.00  0.00    +0.000 OA
ATOM     18  C   UNL     1       1.393   2.622  21.197  0.00  0.00    +0.000 C 
ATOM     19  C   UNL     1       1.841   2.564  19.739  0.00  0.00    +0.000 C 
ATOM     20  O   UNL     1       1.665   1.559  19.052  0.00  0.00    +0.000 OA
ENDBRANCH  12  13
ENDBRANCH  11  12
ENDBRANCH   4  11
TORSDOF 5
ENDMDL
MODEL 7
REMARK VINA RESULT:      -6.7      1.630      3.164
REMARK  Name = 
REMARK  7 active torsions:
REMARK  status: ('A' for Active; 'I' for Inactive)
REMARK    1  A    between atoms: C_1  and  O_2
REMARK    2  A    between atoms: O_2  and  C_3
REMARK    3  A    between atoms: C_6  and  C_7
REMARK    4  A    between atoms: C_7  and  C_8
REMARK    5  A    between atoms: C_8  and  N_9
REMARK    6  A    between atoms: C_18  and  O_19
REMARK    7  A    between atoms: O_19  and  C_20
REMARK                            x       y       z     vdW  Elec       q    Type
REMARK                         _______ _______ _______ _____ _____    ______ ____
ROOT
ATOM      1  C   UNL     1       6.936   5.218  14.983  0.00  0.00    +0.000 A 
ATOM      2  C   UNL     1       5.939   4.371  14.485  0.00  0.00    +0.000 A 
ATOM      3  C   UNL     1       4.812   4.039  15.253  0.00  0.00    +0.000 A 
ATOM      4  C   UNL     1       4.671   4.535  16.550  0.00  0.00    +0.000 A 
ATOM      5  C   UNL     1       5.734   5.288  17.076  0.00  0.00    +0.000 A 
ATOM      6  C   UNL     1       6.854   5.655  16.313  0.00  0.00    +0.000 A 
ENDROOT
BRANCH   1   8
ATOM      7  C   UNL     1       7.942   5.252  12.841  0.00  0.00    +0.000 C 
ATOM      8  O   UNL     1       8.008   5.593  14.222  0.00  0.00    +0.000 OA
ENDBRANCH   1   8
BRANCH   6   9
ATOM      9  O   UNL     1       7.716   6.438  17.031  0.00  0.00    +0.000 OA
ATOM     10  C   UNL     1       7.678   6.391  18.449  0.00  0.00    +0.000 C 
ENDBRANCH   6   9
BRANCH   4  11
ATOM     11  C   UNL     1       3.410   4.246  17.355  0.00  0.00    +0.000 C 
BRANCH  11  12
ATOM     12  C   UNL     1       3.436   4.944  18.720  0.00  0.00    +0.000 C 
BRANCH  12  13
ATOM     13  N   UNL     1       3.221   4.119  19.898  0.00  0.00    +0.000 N 
ATOM     14  C   UNL     1       2.092   4.373  20.672  0.00  0.00    +0.000 C 
ATOM     15  O   UNL     1       1.450   5.419  20.613  0.00  0.00    +0.000 OA
ATOM     16  C   UNL     1       1.636   3.201  21.537  0.00  0.00    +0.000 C 
ATOM     17  O   UNL     1       2.696   2.448  22.095  0.00  0.00    +0.000 OA
ATOM     18  C   UNL     1       3.572   1.989  21.082  0.00  0.00    +0.000 C 
ATOM     19  C   UNL     1       4.105   3.073  20.147  0.00  0.00    +0.000 C 
ATOM     20  O   UNL     1       5.204   2.970  19.603  0.00  0.00    +0.000 OA
ENDBRANCH  12  13
ENDBRANCH  11  12
ENDBRANCH   4  11
TORSDOF 5
ENDMDL
MODEL 8
REMARK VINA RESULT:      -6.7      1.456      2.034
REMARK  Name = 
REMARK  7 active torsions:
REMARK  status: ('A' for Active; 'I' for Inactive)
REMARK    1  A    between atoms: C_1  and  O_2
REMARK    2  A    between atoms: O_2  and  C_3
REMARK    3  A    between atoms: C_6  and  C_7
REMARK    4  A    between atoms: C_7  and  C_8
REMARK    5  A    between atoms: C_8  and  N_9
REMARK    6  A    between atoms: C_18  and  O_19
REMARK    7  A    between atoms: O_19  and  C_20
REMARK                            x       y       z     vdW  Elec       q    Type
REMARK                         _______ _______ _______ _____ _____    ______ ____
ROOT
ATOM      1  C   UNL     1       6.166   6.693  16.841  0.00  0.00    +0.000 A 
ATOM      2  C   UNL     1       4.947   7.069  17.417  0.00  0.00    +0.000 A 
ATOM      3  C   UNL     1       3.870   6.173  17.497  0.00  0.00    +0.000 A 
ATOM      4  C   UNL     1       3.986   4.881  16.980  0.00  0.00    +0.000 A 
ATOM      5  C   UNL     1       5.174   4.558  16.303  0.00  0.00    +0.000 A 
ATOM      6  C   UNL     1       6.272   5.430  16.239  0.00  0.00    +0.000 A 
ENDROOT
BRANCH   1   8
ATOM      7  C   UNL     1       7.992   7.636  18.016  0.00  0.00    +0.000 C 
ATOM      8  O   UNL     1       7.240   7.539  16.810  0.00  0.00    +0.000 OA
ENDBRANCH   1   8
BRANCH   6   9
ATOM      9  O   UNL     1       7.328   4.861  15.581  0.00  0.00    +0.000 OA
ATOM     10  C   UNL     1       7.307   4.795  14.164  0.00  0.00    +0.000 C 
ENDBRANCH   6   9
BRANCH   4  11
ATOM     11  C   UNL     1       2.849   3.880  17.141  0.00  0.00    +0.000 C 
BRANCH  11  12
ATOM     12  C   UNL     1       1.713   4.445  18.003  0.00  0.00    +0.000 C 
BRANCH  12  13
ATOM     13  N   UNL     1       1.626   3.986  19.379  0.00  0.00    +0.000 N 
ATOM     14  C   UNL     1       1.239   2.667  19.601  0.00  0.00    +0.000 C 
ATOM     15  O   UNL     1       0.675   1.974  18.757  0.00  0.00    +0.000 OA
ATOM     16  C   UNL     1       1.664   2.096  20.951  0.00  0.00    +0.000 C 
ATOM     17  O   UNL     1       1.591   3.022  22.019  0.00  0.00    +0.000 OA
ATOM     18  C   UNL     1       2.345   4.185  21.726  0.00  0.00    +0.000 C 
ATOM     19  C   UNL     1       2.008   4.856  20.397  0.00  0.00    +0.000 C 
ATOM     20  O   UNL     1       2.147   6.068  20.234  0.00  0.00    +0.000 OA
ENDBRANCH  12  13
ENDBRANCH  11  12
ENDBRANCH   4  11
TORSDOF 5
ENDMDL
MODEL 9
REMARK VINA RESULT:      -6.6      1.581      1.861
REMARK  Name = 
REMARK  7 active torsions:
REMARK  status: ('A' for Active; 'I' for Inactive)
REMARK    1  A    between atoms: C_1  and  O_2
REMARK    2  A    between atoms: O_2  and  C_3
REMARK    3  A    between atoms: C_6  and  C_7
REMARK    4  A    between atoms: C_7  and  C_8
REMARK    5  A    between atoms: C_8  and  N_9
REMARK    6  A    between atoms: C_18  and  O_19
REMARK    7  A    between atoms: O_19  and  C_20
REMARK                            x       y       z     vdW  Elec       q    Type
REMARK                         _______ _______ _______ _____ _____    ______ ____
ROOT
ATOM      1  C   UNL     1       7.064   6.254  16.887  0.00  0.00    +0.000 A 
ATOM      2  C   UNL     1       6.301   6.114  18.054  0.00  0.00    +0.000 A 
ATOM      3  C   UNL     1       5.390   5.058  18.206  0.00  0.00    +0.000 A 
ATOM      4  C   UNL     1       5.206   4.129  17.180  0.00  0.00    +0.000 A 
ATOM      5  C   UNL     1       5.892   4.351  15.975  0.00  0.00    +0.000 A 
ATOM      6  C   UNL     1       6.830   5.383  15.814  0.00  0.00    +0.000 A 
ENDROOT
BRANCH   1   8
ATOM      7  C   UNL     1       7.924   8.303  17.703  0.00  0.00    +0.000 C 
ATOM      8  O   UNL     1       7.996   7.245  16.752  0.00  0.00    +0.000 OA
ENDBRANCH   1   8
BRANCH   6   9
ATOM      9  O   UNL     1       7.406   5.349  14.573  0.00  0.00    +0.000 OA
ATOM     10  C   UNL     1       6.842   4.520  13.570  0.00  0.00    +0.000 C 
ENDBRANCH   6   9
BRANCH   4  11
ATOM     11  C   UNL     1       4.280   2.935  17.376  0.00  0.00    +0.000 C 
BRANCH  11  12
ATOM     12  C   UNL     1       2.803   3.341  17.284  0.00  0.00    +0.000 C 
BRANCH  12  13
ATOM     13  N   UNL     1       2.122   3.671  18.525  0.00  0.00    +0.000 N 
ATOM     14  C   UNL     1       1.702   2.619  19.335  0.00  0.00    +0.000 C 
ATOM     15  O   UNL     1       1.586   1.461  18.939  0.00  0.00    +0.000 OA
ATOM     16  C   UNL     1       1.494   2.988  20.801  0.00  0.00    +0.000 C 
ATOM     17  O   UNL     1       0.936   4.273  21.000  0.00  0.00    +0.000 OA
ATOM     18  C   UNL     1       1.718   5.264  20.358  0.00  0.00    +0.000 C 
ATOM     19  C   UNL     1       1.994   5.012  18.878  0.00  0.00    +0.000 C 
ATOM     20  O   UNL     1       2.168   5.940  18.089  0.00  0.00    +0.000 OA
ENDBRANCH  12  13
ENDBRANCH  11  12
ENDBRANCH   4  11
TORSDOF 5
ENDMDL
