MODEL 1
REMARK VINA RESULT:      -6.7      0.000      0.000
REMARK  Name = 
REMARK  3 active torsions:
REMARK  status: ('A' for Active; 'I' for Inactive)
REMARK    1  A    between atoms: C_1  and  O_2
REMARK    2  A    between atoms: O_2  and  C_3
REMARK    3  A    between atoms: C_10  and  C_12
REMARK                            x       y       z     vdW  Elec       q    Type
REMARK                         _______ _______ _______ _____ _____    ______ ____
ROOT
ATOM      1  C   UNL     1       5.556   5.261  15.638  0.00  0.00    +0.000 A 
ATOM      2  C   UNL     1       5.119   4.058  16.188  0.00  0.00    +0.000 A 
ATOM      3  C   UNL     1       4.185   4.040  17.227  0.00  0.00    +0.000 A 
ATOM      4  C   UNL     1       3.702   5.266  17.705  0.00  0.00    +0.000 A 
ATOM      5  S   UNL     1       2.574   5.555  18.960  0.00  0.00    +0.000 S 
ATOM      6  C   UNL     1       2.733   7.233  18.735  0.00  0.00    +0.000 A 
ATOM      7  N   UNL     1       2.034   8.138  19.491  0.00  0.00    +0.000 N 
ATOM      8  C   UNL     1       1.325   7.873  20.641  0.00  0.00    +0.000 C 
ATOM      9  O   UNL     1       1.224   6.784  21.194  0.00  0.00    +0.000 OA
ATOM     10  N   UNL     1       3.536   7.607  17.765  0.00  0.00    +0.000 NA
ATOM     11  C   UNL     1       4.123   6.489  17.182  0.00  0.00    +0.000 A 
ATOM     12  C   UNL     1       5.076   6.479  16.141  0.00  0.00    +0.000 A 
ATOM     13  H   UNL     1       2.123   9.103  19.199  0.00  0.00    +0.000 HD
ENDROOT
BRANCH   8  14
ATOM     14  C   UNL     1       0.687   9.050  21.206  0.00  0.00    +0.000 A 
ATOM     15  C   UNL     1      -0.019   9.209  22.385  0.00  0.00    +0.000 A 
ATOM     16  C   UNL     1      -0.420  10.565  22.442  0.00  0.00    +0.000 A 
ATOM     17  C   UNL     1       0.062  11.152  21.296  0.00  0.00    +0.000 A 
ATOM     18  O   UNL     1       0.737  10.247  20.540  0.00  0.00    +0.000 OA
ENDBRANCH   8  14
BRANCH   1  20
ATOM     19  C   UNL     1       6.535   4.255  13.736  0.00  0.00    +0.000 C 
ATOM     20  O   UNL     1       6.480   5.362  14.632  0.00  0.00    +0.000 OA
ENDBRANCH   1  20
TORSDOF 2
ENDMDL
MODEL 2
REMARK VINA RESULT:      -6.7      1.753      7.988
REMARK  Name = 
REMARK  3 active torsions:
REMARK  status: ('A' for Active; 'I' for Inactive)
REMARK    1  A    between atoms: C_1  and  O_2
REMARK    2  A    between atoms: O_2  and  C_3
REMARK    3  A    between atoms: C_10  and  C_12
REMARK                            x       y       z     vdW  Elec       q    Type
REMARK                         _______ _______ _______ _____ _____    ______ ____
ROOT
ATOM      1  C   UNL     1       1.801   7.103  20.373  0.00  0.00    +0.000 A 
ATOM      2  C   UNL     1       1.927   5.821  20.904  0.00  0.00    +0.000 A 
ATOM      3  C   UNL     1       2.702   4.851  20.263  0.00  0.00    +0.000 A 
ATOM      4  C   UNL     1       3.346   5.200  19.068  0.00  0.00    +0.000 A 
ATOM      5  S   UNL     1       4.342   4.231  18.067  0.00  0.00    +0.000 S 
ATOM      6  C   UNL     1       4.536   5.528  16.984  0.00  0.00    +0.000 A 
ATOM      7  N   UNL     1       5.294   5.418  15.847  0.00  0.00    +0.000 N 
ATOM      8  C   UNL     1       5.789   4.255  15.298  0.00  0.00    +0.000 C 
ATOM      9  O   UNL     1       5.609   3.120  15.726  0.00  0.00    +0.000 OA
ATOM     10  N   UNL     1       3.948   6.652  17.324  0.00  0.00    +0.000 NA
ATOM     11  C   UNL     1       3.236   6.471  18.505  0.00  0.00    +0.000 A 
ATOM     12  C   UNL     1       2.437   7.429  19.166  0.00  0.00    +0.000 A 
ATOM     13  H   UNL     1       5.429   6.280  15.334  0.00  0.00    +0.000 HD
ENDROOT
BRANCH   8  14
ATOM     14  C   UNL     1       6.564   4.476  14.090  0.00  0.00    +0.000 A 
ATOM     15  C   UNL     1       6.467   3.887  12.842  0.00  0.00    +0.000 A 
ATOM     16  C   UNL     1       7.467   4.474  12.033  0.00  0.00    +0.000 A 
ATOM     17  C   UNL     1       8.118   5.383  12.833  0.00  0.00    +0.000 A 
ATOM     18  O   UNL     1       7.579   5.397  14.080  0.00  0.00    +0.000 OA
ENDBRANCH   8  14
BRANCH   1  20
ATOM     19  C   UNL     1       0.901   9.275  20.135  0.00  0.00    +0.000 C 
ATOM     20  O   UNL     1       1.047   8.102  20.930  0.00  0.00    +0.000 OA
ENDBRANCH   1  20
TORSDOF 2
ENDMDL
MODEL 3
REMARK VINA RESULT:      -6.5      3.892      8.221
REMARK  Name = 
REMARK  3 active torsions:
REMARK  status: ('A' for Active; 'I' for Inactive)
REMARK    1  A    between atoms: C_1  and  O_2
REMARK    2  A    between atoms: O_2  and  C_3
REMARK    3  A    between atoms: C_10  and  C_12
REMARK                            x       y       z     vdW  Elec       q    Type
REMARK                         _______ _______ _______ _____ _____    ______ ____
ROOT
ATOM      1  C   UNL     1       2.643   3.373  21.180  0.00  0.00    +0.000 A 
ATOM      2  C   UNL     1       2.246   4.708  21.151  0.00  0.00    +0.000 A 
ATOM      3  C   UNL     1       2.559   5.527  20.065  0.00  0.00    +0.000 A 
ATOM      4  C   UNL     1       3.291   4.972  19.005  0.00  0.00    +0.000 A 
ATOM      5  S   UNL     1       3.823   5.727  17.562  0.00  0.00    +0.000 S 
ATOM      6  C   UNL     1       4.565   4.278  17.065  0.00  0.00    +0.000 A 
ATOM      7  N   UNL     1       5.239   4.179  15.875  0.00  0.00    +0.000 N 
ATOM      8  C   UNL     1       5.617   5.218  15.055  0.00  0.00    +0.000 C 
ATOM      9  O   UNL     1       5.435   6.412  15.270  0.00  0.00    +0.000 OA
ATOM     10  N   UNL     1       4.417   3.252  17.871  0.00  0.00    +0.000 NA
ATOM     11  C   UNL     1       3.711   3.643  19.005  0.00  0.00    +0.000 A 
ATOM     12  C   UNL     1       3.391   2.839  20.120  0.00  0.00    +0.000 A 
ATOM     13  H   UNL     1       5.545   3.246  15.631  0.00  0.00    +0.000 HD
ENDROOT
BRANCH   8  14
ATOM     14  C   UNL     1       6.314   4.781  13.858  0.00  0.00    +0.000 A 
ATOM     15  C   UNL     1       6.045   3.733  12.996  0.00  0.00    +0.000 A 
ATOM     16  C   UNL     1       7.042   3.762  11.993  0.00  0.00    +0.000 A 
ATOM     17  C   UNL     1       7.862   4.821  12.303  0.00  0.00    +0.000 A 
ATOM     18  O   UNL     1       7.431   5.450  13.428  0.00  0.00    +0.000 OA
ENDBRANCH   8  14
BRANCH   1  20
ATOM     19  C   UNL     1       1.016   2.211  22.441  0.00  0.00    +0.000 C 
ATOM     20  O   UNL     1       2.391   2.512  22.215  0.00  0.00    +0.000 OA
ENDBRANCH   1  20
TORSDOF 2
ENDMDL
MODEL 4
REMARK VINA RESULT:      -6.4      3.649      8.289
REMARK  Name = 
REMARK  3 active torsions:
REMARK  status: ('A' for Active; 'I' for Inactive)
REMARK    1  A    between atoms: C_1  and  O_2
REMARK    2  A    between atoms: O_2  and  C_3
REMARK    3  A    between atoms: C_10  and  C_12
REMARK                            x       y       z     vdW  Elec       q    Type
REMARK                         _______ _______ _______ _____ _____    ______ ____
ROOT
ATOM      1  C   UNL     1       1.581   3.825  20.437  0.00  0.00    +0.000 A 
ATOM      2  C   UNL     1       1.872   5.159  20.716  0.00  0.00    +0.000 A 
ATOM      3  C   UNL     1       2.684   5.910  19.863  0.00  0.00    +0.000 A 
ATOM      4  C   UNL     1       3.203   5.285  18.721  0.00  0.00    +0.000 A 
ATOM      5  S   UNL     1       4.223   5.943  17.512  0.00  0.00    +0.000 S 
ATOM      6  C   UNL     1       4.250   4.446  16.704  0.00  0.00    +0.000 A 
ATOM      7  N   UNL     1       4.953   4.260  15.542  0.00  0.00    +0.000 N 
ATOM      8  C   UNL     1       5.889   5.115  15.002  0.00  0.00    +0.000 C 
ATOM      9  O   UNL     1       6.266   6.175  15.489  0.00  0.00    +0.000 OA
ATOM     10  N   UNL     1       3.523   3.492  17.239  0.00  0.00    +0.000 NA
ATOM     11  C   UNL     1       2.938   3.950  18.415  0.00  0.00    +0.000 A 
ATOM     12  C   UNL     1       2.125   3.210  19.300  0.00  0.00    +0.000 A 
ATOM     13  H   UNL     1       4.811   3.366  15.091  0.00  0.00    +0.000 HD
ENDROOT
BRANCH   8  14
ATOM     14  C   UNL     1       6.453   4.633  13.753  0.00  0.00    +0.000 A 
ATOM     15  C   UNL     1       7.528   5.097  13.016  0.00  0.00    +0.000 A 
ATOM     16  C   UNL     1       7.642   4.257  11.884  0.00  0.00    +0.000 A 
ATOM     17  C   UNL     1       6.630   3.333  11.994  0.00  0.00    +0.000 A 
ATOM     18  O   UNL     1       5.905   3.546  13.123  0.00  0.00    +0.000 OA
ENDBRANCH   8  14
BRANCH   1  20
ATOM     19  C   UNL     1       1.522   2.244  22.194  0.00  0.00    +0.000 C 
ATOM     20  O   UNL     1       0.810   3.018  21.231  0.00  0.00    +0.000 OA
ENDBRANCH   1  20
TORSDOF 2
ENDMDL
MODEL 5
REMARK VINA RESULT:      -6.3      0.834      1.058
REMARK  Name = 
REMARK  3 active torsions:
REMARK  status: ('A' for Active; 'I' for Inactive)
REMARK    1  A    between atoms: C_1  and  O_2
REMARK    2  A    between atoms: O_2  and  C_3
REMARK    3  A    between atoms: C_10  and  C_12
REMARK                            x       y       z     vdW  Elec       q    Type
REMARK                         _______ _______ _______ _____ _____    ______ ____
ROOT
ATOM      1  C   UNL     1       5.552   5.108  16.036  0.00  0.00    +0.000 A 
ATOM      2  C   UNL     1       5.264   4.072  16.922  0.00  0.00    +0.000 A 
ATOM      3  C   UNL     1       4.372   4.259  17.979  0.00  0.00    +0.000 A 
ATOM      4  C   UNL     1       3.777   5.519  18.130  0.00  0.00    +0.000 A 
ATOM      5  S   UNL     1       2.665   6.041  19.324  0.00  0.00    +0.000 S 
ATOM      6  C   UNL     1       2.638   7.597  18.635  0.00  0.00    +0.000 A 
ATOM      7  N   UNL     1       1.871   8.608  19.154  0.00  0.00    +0.000 N 
ATOM      8  C   UNL     1       1.231   8.611  20.374  0.00  0.00    +0.000 C 
ATOM      9  O   UNL     1       1.265   7.716  21.210  0.00  0.00    +0.000 OA
ATOM     10  N   UNL     1       3.364   7.757  17.553  0.00  0.00    +0.000 NA
ATOM     11  C   UNL     1       4.048   6.580  17.267  0.00  0.00    +0.000 A 
ATOM     12  C   UNL     1       4.962   6.368  16.212  0.00  0.00    +0.000 A 
ATOM     13  H   UNL     1       1.847   9.456  18.603  0.00  0.00    +0.000 HD
ENDROOT
BRANCH   8  14
ATOM     14  C   UNL     1       0.491   9.834  20.630  0.00  0.00    +0.000 A 
ATOM     15  C   UNL     1      -0.389  10.535  19.825  0.00  0.00    +0.000 A 
ATOM     16  C   UNL     1      -0.825  11.655  20.572  0.00  0.00    +0.000 A 
ATOM     17  C   UNL     1      -0.184  11.574  21.786  0.00  0.00    +0.000 A 
ATOM     18  O   UNL     1       0.613  10.474  21.836  0.00  0.00    +0.000 OA
ENDBRANCH   8  14
BRANCH   1  20
ATOM     19  C   UNL     1       6.169   3.948  14.070  0.00  0.00    +0.000 C 
ATOM     20  O   UNL     1       6.427   5.009  14.987  0.00  0.00    +0.000 OA
ENDBRANCH   1  20
TORSDOF 2
ENDMDL
MODEL 6
REMARK VINA RESULT:      -6.3      1.723      7.648
REMARK  Name = 
REMARK  3 active torsions:
REMARK  status: ('A' for Active; 'I' for Inactive)
REMARK    1  A    between atoms: C_1  and  O_2
REMARK    2  A    between atoms: O_2  and  C_3
REMARK    3  A    between atoms: C_10  and  C_12
REMARK                            x       y       z     vdW  Elec       q    Type
REMARK                         _______ _______ _______ _____ _____    ______ ____
ROOT
ATOM      1  C   UNL     1       0.276  10.275  19.834  0.00  0.00    +0.000 A 
ATOM      2  C   UNL     1       0.322   9.405  20.921  0.00  0.00    +0.000 A 
ATOM      3  C   UNL     1       1.111   8.253  20.887  0.00  0.00    +0.000 A 
ATOM      4  C   UNL     1       1.852   7.991  19.726  0.00  0.00    +0.000 A 
ATOM      5  S   UNL     1       2.888   6.669  19.394  0.00  0.00    +0.000 S 
ATOM      6  C   UNL     1       3.203   7.289  17.842  0.00  0.00    +0.000 A 
ATOM      7  N   UNL     1       4.039   6.653  16.961  0.00  0.00    +0.000 N 
ATOM      8  C   UNL     1       4.537   5.374  17.077  0.00  0.00    +0.000 C 
ATOM      9  O   UNL     1       4.289   4.582  17.979  0.00  0.00    +0.000 OA
ATOM     10  N   UNL     1       2.627   8.434  17.555  0.00  0.00    +0.000 NA
ATOM     11  C   UNL     1       1.824   8.836  18.617  0.00  0.00    +0.000 A 
ATOM     12  C   UNL     1       1.010   9.988  18.673  0.00  0.00    +0.000 A 
ATOM     13  H   UNL     1       4.239   7.165  16.111  0.00  0.00    +0.000 HD
ENDROOT
BRANCH   8  14
ATOM     14  C   UNL     1       5.405   4.994  15.976  0.00  0.00    +0.000 A 
ATOM     15  C   UNL     1       5.330   3.924  15.103  0.00  0.00    +0.000 A 
ATOM     16  C   UNL     1       6.433   4.035  14.224  0.00  0.00    +0.000 A 
ATOM     17  C   UNL     1       7.117   5.162  14.614  0.00  0.00    +0.000 A 
ATOM     18  O   UNL     1       6.504   5.755  15.671  0.00  0.00    +0.000 OA
ENDBRANCH   8  14
BRANCH   1  20
ATOM     19  C   UNL     1      -1.442  11.463  18.729  0.00  0.00    +0.000 C 
ATOM     20  O   UNL     1      -0.485  11.413  19.783  0.00  0.00    +0.000 OA
ENDBRANCH   1  20
TORSDOF 2
ENDMDL
MODEL 7
REMARK VINA RESULT:      -6.3      1.134      1.260
REMARK  Name = 
REMARK  3 active torsions:
REMARK  status: ('A' for Active; 'I' for Inactive)
REMARK    1  A    between atoms: C_1  and  O_2
REMARK    2  A    between atoms: O_2  and  C_3
REMARK    3  A    between atoms: C_10  and  C_12
REMARK                            x       y       z     vdW  Elec       q    Type
REMARK                         _______ _______ _______ _____ _____    ______ ____
ROOT
ATOM      1  C   UNL     1       6.284   5.140  15.447  0.00  0.00    +0.000 A 
ATOM      2  C   UNL     1       5.784   3.865  15.702  0.00  0.00    +0.000 A 
ATOM      3  C   UNL     1       4.764   3.667  16.635  0.00  0.00    +0.000 A 
ATOM      4  C   UNL     1       4.258   4.786  17.312  0.00  0.00    +0.000 A 
ATOM      5  S   UNL     1       3.028   4.850  18.502  0.00  0.00    +0.000 S 
ATOM      6  C   UNL     1       3.231   6.534  18.638  0.00  0.00    +0.000 A 
ATOM      7  N   UNL     1       2.481   7.289  19.503  0.00  0.00    +0.000 N 
ATOM      8  C   UNL     1       1.671   6.820  20.512  0.00  0.00    +0.000 C 
ATOM      9  O   UNL     1       1.507   5.645  20.821  0.00  0.00    +0.000 OA
ATOM     10  N   UNL     1       4.121   7.071  17.835  0.00  0.00    +0.000 NA
ATOM     11  C   UNL     1       4.741   6.075  17.087  0.00  0.00    +0.000 A 
ATOM     12  C   UNL     1       5.781   6.246  16.148  0.00  0.00    +0.000 A 
ATOM     13  H   UNL     1       2.609   8.290  19.422  0.00  0.00    +0.000 HD
ENDROOT
BRANCH   8  14
ATOM     14  C   UNL     1       1.003   7.878  21.250  0.00  0.00    +0.000 A 
ATOM     15  C   UNL     1       1.526   8.943  21.962  0.00  0.00    +0.000 A 
ATOM     16  C   UNL     1       0.427   9.666  22.482  0.00  0.00    +0.000 A 
ATOM     17  C   UNL     1      -0.700   9.000  22.061  0.00  0.00    +0.000 A 
ATOM     18  O   UNL     1      -0.366   7.917  21.310  0.00  0.00    +0.000 OA
ENDBRANCH   8  14
BRANCH   1  20
ATOM     19  C   UNL     1       7.183   4.781  13.290  0.00  0.00    +0.000 C 
ATOM     20  O   UNL     1       7.295   5.413  14.563  0.00  0.00    +0.000 OA
ENDBRANCH   1  20
TORSDOF 2
ENDMDL
MODEL 8
REMARK VINA RESULT:      -6.2      1.635      7.693
REMARK  Name = 
REMARK  3 active torsions:
REMARK  status: ('A' for Active; 'I' for Inactive)
REMARK    1  A    between atoms: C_1  and  O_2
REMARK    2  A    between atoms: O_2  and  C_3
REMARK    3  A    between atoms: C_10  and  C_12
REMARK                            x       y       z     vdW  Elec       q    Type
REMARK                         _______ _______ _______ _____ _____    ______ ____
ROOT
ATOM      1  C   UNL     1       0.335   9.854  20.199  0.00  0.00    +0.000 A 
ATOM      2  C   UNL     1       0.380   8.901  21.215  0.00  0.00    +0.000 A 
ATOM      3  C   UNL     1       1.174   7.759  21.094  0.00  0.00    +0.000 A 
ATOM      4  C   UNL     1       1.922   7.593  19.919  0.00  0.00    +0.000 A 
ATOM      5  S   UNL     1       2.965   6.304  19.489  0.00  0.00    +0.000 S 
ATOM      6  C   UNL     1       3.283   7.046  17.991  0.00  0.00    +0.000 A 
ATOM      7  N   UNL     1       4.126   6.485  17.067  0.00  0.00    +0.000 N 
ATOM      8  C   UNL     1       4.628   5.203  17.084  0.00  0.00    +0.000 C 
ATOM      9  O   UNL     1       4.381   4.341  17.920  0.00  0.00    +0.000 OA
ATOM     10  N   UNL     1       2.704   8.208  17.793  0.00  0.00    +0.000 NA
ATOM     11  C   UNL     1       1.895   8.522  18.880  0.00  0.00    +0.000 A 
ATOM     12  C   UNL     1       1.075   9.662  19.023  0.00  0.00    +0.000 A 
ATOM     13  H   UNL     1       4.327   7.063  16.261  0.00  0.00    +0.000 HD
ENDROOT
BRANCH   8  14
ATOM     14  C   UNL     1       5.503   4.914  15.961  0.00  0.00    +0.000 A 
ATOM     15  C   UNL     1       6.813   5.291  15.725  0.00  0.00    +0.000 A 
ATOM     16  C   UNL     1       7.181   4.734  14.478  0.00  0.00    +0.000 A 
ATOM     17  C   UNL     1       6.075   4.054  14.025  0.00  0.00    +0.000 A 
ATOM     18  O   UNL     1       5.053   4.151  14.915  0.00  0.00    +0.000 OA
ENDBRANCH   8  14
BRANCH   1  20
ATOM     19  C   UNL     1       0.292  12.212  20.352  0.00  0.00    +0.000 C 
ATOM     20  O   UNL     1      -0.431  10.989  20.235  0.00  0.00    +0.000 OA
ENDBRANCH   1  20
TORSDOF 2
ENDMDL
MODEL 9
REMARK VINA RESULT:      -6.2      2.694      7.831
REMARK  Name = 
REMARK  3 active torsions:
REMARK  status: ('A' for Active; 'I' for Inactive)
REMARK    1  A    between atoms: C_1  and  O_2
REMARK    2  A    between atoms: O_2  and  C_3
REMARK    3  A    between atoms: C_10  and  C_12
REMARK                            x       y       z     vdW  Elec       q    Type
REMARK                         _______ _______ _______ _____ _____    ______ ____
ROOT
ATOM      1  C   UNL     1       0.287  11.015  21.564  0.00  0.00    +0.000 A 
ATOM      2  C   UNL     1       0.552  11.568  20.313  0.00  0.00    +0.000 A 
ATOM      3  C   UNL     1       1.091  10.793  19.285  0.00  0.00    +0.000 A 
ATOM      4  C   UNL     1       1.363   9.442  19.545  0.00  0.00    +0.000 A 
ATOM      5  S   UNL     1       2.025   8.263  18.495  0.00  0.00    +0.000 S 
ATOM      6  C   UNL     1       1.952   7.100  19.735  0.00  0.00    +0.000 A 
ATOM      7  N   UNL     1       2.371   5.808  19.545  0.00  0.00    +0.000 N 
ATOM      8  C   UNL     1       3.097   5.328  18.478  0.00  0.00    +0.000 C 
ATOM      9  O   UNL     1       3.512   5.986  17.531  0.00  0.00    +0.000 OA
ATOM     10  N   UNL     1       1.434   7.506  20.871  0.00  0.00    +0.000 NA
ATOM     11  C   UNL     1       1.117   8.858  20.787  0.00  0.00    +0.000 A 
ATOM     12  C   UNL     1       0.583   9.667  21.814  0.00  0.00    +0.000 A 
ATOM     13  H   UNL     1       2.181   5.178  20.313  0.00  0.00    +0.000 HD
ENDROOT
BRANCH   8  14
ATOM     14  C   UNL     1       3.378   3.906  18.569  0.00  0.00    +0.000 A 
ATOM     15  C   UNL     1       3.082   2.875  17.696  0.00  0.00    +0.000 A 
ATOM     16  C   UNL     1       3.587   1.688  18.277  0.00  0.00    +0.000 A 
ATOM     17  C   UNL     1       4.158   2.062  19.470  0.00  0.00    +0.000 A 
ATOM     18  O   UNL     1       4.042   3.403  19.658  0.00  0.00    +0.000 OA
ENDBRANCH   8  14
BRANCH   1  20
ATOM     19  C   UNL     1      -1.475  11.246  23.123  0.00  0.00    +0.000 C 
ATOM     20  O   UNL     1      -0.222  11.712  22.628  0.00  0.00    +0.000 OA
ENDBRANCH   1  20
TORSDOF 2
ENDMDL
