MODEL 1
REMARK VINA RESULT:      -7.0      0.000      0.000
REMARK  Name = 
REMARK  6 active torsions:
REMARK  status: ('A' for Active; 'I' for Inactive)
REMARK    1  A    between atoms: N_1  and  C_2
REMARK    2  A    between atoms: C_2  and  N_4
REMARK    3  A    between atoms: N_4  and  C_5
REMARK    4  A    between atoms: C_9  and  O_10
REMARK    5  A    between atoms: O_10  and  C_11
REMARK    6  A    between atoms: C_11  and  C_12
REMARK                            x       y       z     vdW  Elec       q    Type
REMARK                         _______ _______ _______ _____ _____    ______ ____
ROOT
ATOM      1  C   UNL     1       6.288   5.561  16.520  0.00  0.00    +0.000 A 
ATOM      2  C   UNL     1       5.316   6.563  16.439  0.00  0.00    +0.000 A 
ATOM      3  C   UNL     1       4.325   6.657  17.415  0.00  0.00    +0.000 A 
ATOM      4  C   UNL     1       4.308   5.768  18.484  0.00  0.00    +0.000 A 
ATOM      5  C   UNL     1       5.273   4.764  18.574  0.00  0.00    +0.000 A 
ATOM      6  C   UNL     1       6.280   4.684  17.609  0.00  0.00    +0.000 A 
ENDROOT
BRANCH   1   7
ATOM      7  N   UNL     1       7.282   5.530  15.521  0.00  0.00    +0.000 N 
ATOM      8  H   UNL     1       8.062   6.157  15.646  0.00  0.00    +0.000 HD
BRANCH   7   9
ATOM      9  C   UNL     1       7.192   5.020  14.250  0.00  0.00    +0.000 C 
ATOM     10  S   UNL     1       6.124   3.905  13.634  0.00  0.00    +0.000 S 
BRANCH   9  11
ATOM     11  N   UNL     1       8.089   5.608  13.402  0.00  0.00    +0.000 N 
ATOM     12  H   UNL     1       8.596   4.968  12.800  0.00  0.00    +0.000 HD
ATOM     13  H   UNL     1       8.636   6.381  13.760  0.00  0.00    +0.000 HD
ENDBRANCH   9  11
ENDBRANCH   7   9
ENDBRANCH   1   7
BRANCH   5  14
ATOM     14  O   UNL     1       5.323   3.822  19.569  0.00  0.00    +0.000 OA
BRANCH  14  15
ATOM     15  C   UNL     1       4.667   2.593  19.256  0.00  0.00    +0.000 C 
BRANCH  15  16
ATOM     16  C   UNL     1       3.191   2.738  19.515  0.00  0.00    +0.000 A 
ATOM     17  C   UNL     1       2.257   2.515  18.496  0.00  0.00    +0.000 A 
ATOM     18  C   UNL     1       0.892   2.647  18.754  0.00  0.00    +0.000 A 
ATOM     19  C   UNL     1       0.454   3.004  20.027  0.00  0.00    +0.000 A 
ATOM     20  C   UNL     1       1.376   3.234  21.047  0.00  0.00    +0.000 A 
ATOM     21  C   UNL     1       2.739   3.105  20.790  0.00  0.00    +0.000 A 
ENDBRANCH  15  16
ENDBRANCH  14  15
ENDBRANCH   5  14
TORSDOF 6
ENDMDL
MODEL 2
REMARK VINA RESULT:      -7.0      0.165      1.150
REMARK  Name = 
REMARK  6 active torsions:
REMARK  status: ('A' for Active; 'I' for Inactive)
REMARK    1  A    between atoms: N_1  and  C_2
REMARK    2  A    between atoms: C_2  and  N_4
REMARK    3  A    between atoms: N_4  and  C_5
REMARK    4  A    between atoms: C_9  and  O_10
REMARK    5  A    between atoms: O_10  and  C_11
REMARK    6  A    between atoms: C_11  and  C_12
REMARK                            x       y       z     vdW  Elec       q    Type
REMARK                         _______ _______ _______ _____ _____    ______ ____
ROOT
ATOM      1  C   UNL     1       6.367   5.451  16.384  0.00  0.00    +0.000 A 
ATOM      2  C   UNL     1       5.407   6.454  16.221  0.00  0.00    +0.000 A 
ATOM      3  C   UNL     1       4.399   6.620  17.169  0.00  0.00    +0.000 A 
ATOM      4  C   UNL     1       4.354   5.801  18.293  0.00  0.00    +0.000 A 
ATOM      5  C   UNL     1       5.306   4.796  18.465  0.00  0.00    +0.000 A 
ATOM      6  C   UNL     1       6.330   4.645  17.527  0.00  0.00    +0.000 A 
ENDROOT
BRANCH   1   7
ATOM      7  N   UNL     1       7.380   5.347  15.408  0.00  0.00    +0.000 N 
ATOM      8  H   UNL     1       8.243   5.830  15.606  0.00  0.00    +0.000 HD
BRANCH   7   9
ATOM      9  C   UNL     1       7.257   4.966  14.096  0.00  0.00    +0.000 C 
ATOM     10  S   UNL     1       6.207   3.876  13.407  0.00  0.00    +0.000 S 
BRANCH   9  11
ATOM     11  N   UNL     1       8.095   5.674  13.281  0.00  0.00    +0.000 N 
ATOM     12  H   UNL     1       7.725   5.884  12.360  0.00  0.00    +0.000 HD
ATOM     13  H   UNL     1       9.079   5.437  13.301  0.00  0.00    +0.000 HD
ENDBRANCH   9  11
ENDBRANCH   7   9
ENDBRANCH   1   7
BRANCH   5  14
ATOM     14  O   UNL     1       5.329   3.920  19.520  0.00  0.00    +0.000 OA
BRANCH  14  15
ATOM     15  C   UNL     1       4.680   2.673  19.268  0.00  0.00    +0.000 C 
BRANCH  15  16
ATOM     16  C   UNL     1       3.205   2.819  19.530  0.00  0.00    +0.000 A 
ATOM     17  C   UNL     1       2.734   3.254  20.776  0.00  0.00    +0.000 A 
ATOM     18  C   UNL     1       1.364   3.391  21.000  0.00  0.00    +0.000 A 
ATOM     19  C   UNL     1       0.458   3.091  19.985  0.00  0.00    +0.000 A 
ATOM     20  C   UNL     1       0.915   2.652  18.744  0.00  0.00    +0.000 A 
ATOM     21  C   UNL     1       2.282   2.513  18.519  0.00  0.00    +0.000 A 
ENDBRANCH  15  16
ENDBRANCH  14  15
ENDBRANCH   5  14
TORSDOF 6
ENDMDL
MODEL 3
REMARK VINA RESULT:      -6.9      1.600      2.074
REMARK  Name = 
REMARK  6 active torsions:
REMARK  status: ('A' for Active; 'I' for Inactive)
REMARK    1  A    between atoms: N_1  and  C_2
REMARK    2  A    between atoms: C_2  and  N_4
REMARK    3  A    between atoms: N_4  and  C_5
REMARK    4  A    between atoms: C_9  and  O_10
REMARK    5  A    between atoms: O_10  and  C_11
REMARK    6  A    between atoms: C_11  and  C_12
REMARK                            x       y       z     vdW  Elec       q    Type
REMARK                         _______ _______ _______ _____ _____    ______ ____
ROOT
ATOM      1  C   UNL     1       6.392   4.400  16.453  0.00  0.00    +0.000 A 
ATOM      2  C   UNL     1       7.563   4.466  17.214  0.00  0.00    +0.000 A 
ATOM      3  C   UNL     1       7.570   5.144  18.432  0.00  0.00    +0.000 A 
ATOM      4  C   UNL     1       6.408   5.743  18.906  0.00  0.00    +0.000 A 
ATOM      5  C   UNL     1       5.233   5.686  18.154  0.00  0.00    +0.000 A 
ATOM      6  C   UNL     1       5.221   4.985  16.945  0.00  0.00    +0.000 A 
ENDROOT
BRANCH   1   7
ATOM      7  N   UNL     1       6.435   3.678  15.243  0.00  0.00    +0.000 N 
ATOM      8  H   UNL     1       6.538   2.678  15.323  0.00  0.00    +0.000 HD
BRANCH   7   9
ATOM      9  C   UNL     1       6.685   4.152  13.980  0.00  0.00    +0.000 C 
ATOM     10  S   UNL     1       6.166   3.570  12.512  0.00  0.00    +0.000 S 
BRANCH   9  11
ATOM     11  N   UNL     1       7.408   5.313  14.008  0.00  0.00    +0.000 N 
ATOM     12  H   UNL     1       7.648   5.691  13.098  0.00  0.00    +0.000 HD
ATOM     13  H   UNL     1       8.131   5.398  14.710  0.00  0.00    +0.000 HD
ENDBRANCH   9  11
ENDBRANCH   7   9
ENDBRANCH   1   7
BRANCH   5  14
ATOM     14  O   UNL     1       4.048   6.269  18.519  0.00  0.00    +0.000 OA
BRANCH  14  15
ATOM     15  C   UNL     1       2.907   5.788  17.807  0.00  0.00    +0.000 C 
BRANCH  15  16
ATOM     16  C   UNL     1       2.186   4.772  18.653  0.00  0.00    +0.000 A 
ATOM     17  C   UNL     1       1.640   3.616  18.081  0.00  0.00    +0.000 A 
ATOM     18  C   UNL     1       0.980   2.682  18.879  0.00  0.00    +0.000 A 
ATOM     19  C   UNL     1       0.860   2.897  20.250  0.00  0.00    +0.000 A 
ATOM     20  C   UNL     1       1.394   4.048  20.829  0.00  0.00    +0.000 A 
ATOM     21  C   UNL     1       2.051   4.982  20.033  0.00  0.00    +0.000 A 
ENDBRANCH  15  16
ENDBRANCH  14  15
ENDBRANCH   5  14
TORSDOF 6
ENDMDL
MODEL 4
REMARK VINA RESULT:      -6.8      0.969      1.707
REMARK  Name = 
REMARK  6 active torsions:
REMARK  status: ('A' for Active; 'I' for Inactive)
REMARK    1  A    between atoms: N_1  and  C_2
REMARK    2  A    between atoms: C_2  and  N_4
REMARK    3  A    between atoms: N_4  and  C_5
REMARK    4  A    between atoms: C_9  and  O_10
REMARK    5  A    between atoms: O_10  and  C_11
REMARK    6  A    between atoms: C_11  and  C_12
REMARK                            x       y       z     vdW  Elec       q    Type
REMARK                         _______ _______ _______ _____ _____    ______ ____
ROOT
ATOM      1  C   UNL     1       6.435   5.718  16.600  0.00  0.00    +0.000 A 
ATOM      2  C   UNL     1       7.387   6.574  17.163  0.00  0.00    +0.000 A 
ATOM      3  C   UNL     1       7.678   6.499  18.524  0.00  0.00    +0.000 A 
ATOM      4  C   UNL     1       7.037   5.561  19.327  0.00  0.00    +0.000 A 
ATOM      5  C   UNL     1       6.084   4.703  18.776  0.00  0.00    +0.000 A 
ATOM      6  C   UNL     1       5.810   4.762  17.407  0.00  0.00    +0.000 A 
ENDROOT
BRANCH   1   7
ATOM      7  N   UNL     1       6.201   5.818  15.214  0.00  0.00    +0.000 N 
ATOM      8  H   UNL     1       5.375   6.326  14.935  0.00  0.00    +0.000 HD
BRANCH   7   9
ATOM      9  C   UNL     1       6.739   5.059  14.206  0.00  0.00    +0.000 C 
ATOM     10  S   UNL     1       6.073   3.781  13.376  0.00  0.00    +0.000 S 
BRANCH   9  11
ATOM     11  N   UNL     1       7.971   5.517  13.827  0.00  0.00    +0.000 N 
ATOM     12  H   UNL     1       8.477   4.913  13.188  0.00  0.00    +0.000 HD
ATOM     13  H   UNL     1       8.542   5.965  14.533  0.00  0.00    +0.000 HD
ENDBRANCH   9  11
ENDBRANCH   7   9
ENDBRANCH   1   7
BRANCH   5  14
ATOM     14  O   UNL     1       5.378   3.769  19.487  0.00  0.00    +0.000 OA
BRANCH  14  15
ATOM     15  C   UNL     1       4.535   2.933  18.693  0.00  0.00    +0.000 C 
BRANCH  15  16
ATOM     16  C   UNL     1       3.130   2.990  19.230  0.00  0.00    +0.000 A 
ATOM     17  C   UNL     1       2.880   3.373  20.553  0.00  0.00    +0.000 A 
ATOM     18  C   UNL     1       1.571   3.428  21.033  0.00  0.00    +0.000 A 
ATOM     19  C   UNL     1       0.507   3.097  20.197  0.00  0.00    +0.000 A 
ATOM     20  C   UNL     1       0.745   2.708  18.879  0.00  0.00    +0.000 A 
ATOM     21  C   UNL     1       2.051   2.652  18.399  0.00  0.00    +0.000 A 
ENDBRANCH  15  16
ENDBRANCH  14  15
ENDBRANCH   5  14
TORSDOF 6
ENDMDL
MODEL 5
REMARK VINA RESULT:      -6.8      1.681      2.394
REMARK  Name = 
REMARK  6 active torsions:
REMARK  status: ('A' for Active; 'I' for Inactive)
REMARK    1  A    between atoms: N_1  and  C_2
REMARK    2  A    between atoms: C_2  and  N_4
REMARK    3  A    between atoms: N_4  and  C_5
REMARK    4  A    between atoms: C_9  and  O_10
REMARK    5  A    between atoms: O_10  and  C_11
REMARK    6  A    between atoms: C_11  and  C_12
REMARK                            x       y       z     vdW  Elec       q    Type
REMARK                         _______ _______ _______ _____ _____    ______ ____
ROOT
ATOM      1  C   UNL     1       6.295   4.461  16.258  0.00  0.00    +0.000 A 
ATOM      2  C   UNL     1       7.285   4.543  17.243  0.00  0.00    +0.000 A 
ATOM      3  C   UNL     1       7.049   5.259  18.415  0.00  0.00    +0.000 A 
ATOM      4  C   UNL     1       5.821   5.878  18.622  0.00  0.00    +0.000 A 
ATOM      5  C   UNL     1       4.826   5.805  17.646  0.00  0.00    +0.000 A 
ATOM      6  C   UNL     1       5.055   5.068  16.481  0.00  0.00    +0.000 A 
ENDROOT
BRANCH   1   7
ATOM      7  N   UNL     1       6.578   3.702  15.105  0.00  0.00    +0.000 N 
ATOM      8  H   UNL     1       6.896   2.757  15.258  0.00  0.00    +0.000 HD
BRANCH   7   9
ATOM      9  C   UNL     1       6.800   4.151  13.827  0.00  0.00    +0.000 C 
ATOM     10  S   UNL     1       6.227   3.555  12.385  0.00  0.00    +0.000 S 
BRANCH   9  11
ATOM     11  N   UNL     1       7.546   5.296  13.814  0.00  0.00    +0.000 N 
ATOM     12  H   UNL     1       7.084   6.115  14.195  0.00  0.00    +0.000 HD
ATOM     13  H   UNL     1       8.122   5.471  13.000  0.00  0.00    +0.000 HD
ENDBRANCH   9  11
ENDBRANCH   7   9
ENDBRANCH   1   7
BRANCH   5  14
ATOM     14  O   UNL     1       3.598   6.405  17.742  0.00  0.00    +0.000 OA
BRANCH  14  15
ATOM     15  C   UNL     1       3.052   6.430  19.061  0.00  0.00    +0.000 C 
BRANCH  15  16
ATOM     16  C   UNL     1       2.274   5.164  19.301  0.00  0.00    +0.000 A 
ATOM     17  C   UNL     1       1.992   4.728  20.602  0.00  0.00    +0.000 A 
ATOM     18  C   UNL     1       1.264   3.556  20.807  0.00  0.00    +0.000 A 
ATOM     19  C   UNL     1       0.817   2.812  19.717  0.00  0.00    +0.000 A 
ATOM     20  C   UNL     1       1.099   3.234  18.418  0.00  0.00    +0.000 A 
ATOM     21  C   UNL     1       1.826   4.403  18.212  0.00  0.00    +0.000 A 
ENDBRANCH  15  16
ENDBRANCH  14  15
ENDBRANCH   5  14
TORSDOF 6
ENDMDL
MODEL 6
REMARK VINA RESULT:      -6.7      1.262      1.695
REMARK  Name = 
REMARK  6 active torsions:
REMARK  status: ('A' for Active; 'I' for Inactive)
REMARK    1  A    between atoms: N_1  and  C_2
REMARK    2  A    between atoms: C_2  and  N_4
REMARK    3  A    between atoms: N_4  and  C_5
REMARK    4  A    between atoms: C_9  and  O_10
REMARK    5  A    between atoms: O_10  and  C_11
REMARK    6  A    between atoms: C_11  and  C_12
REMARK                            x       y       z     vdW  Elec       q    Type
REMARK                         _______ _______ _______ _____ _____    ______ ____
ROOT
ATOM      1  C   UNL     1       6.060   5.335  15.910  0.00  0.00    +0.000 A 
ATOM      2  C   UNL     1       5.814   6.563  16.531  0.00  0.00    +0.000 A 
ATOM      3  C   UNL     1       4.668   6.740  17.304  0.00  0.00    +0.000 A 
ATOM      4  C   UNL     1       3.773   5.690  17.479  0.00  0.00    +0.000 A 
ATOM      5  C   UNL     1       4.007   4.460  16.863  0.00  0.00    +0.000 A 
ATOM      6  C   UNL     1       5.168   4.276  16.107  0.00  0.00    +0.000 A 
ENDROOT
BRANCH   1   7
ATOM      7  N   UNL     1       7.249   5.204  15.163  0.00  0.00    +0.000 N 
ATOM      8  H   UNL     1       8.088   5.564  15.591  0.00  0.00    +0.000 HD
BRANCH   7   9
ATOM      9  C   UNL     1       7.383   4.960  13.820  0.00  0.00    +0.000 C 
ATOM     10  S   UNL     1       6.523   3.926  12.843  0.00  0.00    +0.000 S 
BRANCH   9  11
ATOM     11  N   UNL     1       8.326   5.769  13.249  0.00  0.00    +0.000 N 
ATOM     12  H   UNL     1       9.079   6.056  13.866  0.00  0.00    +0.000 HD
ATOM     13  H   UNL     1       8.005   6.484  12.608  0.00  0.00    +0.000 HD
ENDBRANCH   9  11
ENDBRANCH   7   9
ENDBRANCH   1   7
BRANCH   5  14
ATOM     14  O   UNL     1       3.172   3.376  16.948  0.00  0.00    +0.000 OA
BRANCH  14  15
ATOM     15  C   UNL     1       3.565   2.400  17.914  0.00  0.00    +0.000 C 
BRANCH  15  16
ATOM     16  C   UNL     1       2.779   2.610  19.180  0.00  0.00    +0.000 A 
ATOM     17  C   UNL     1       3.389   2.490  20.434  0.00  0.00    +0.000 A 
ATOM     18  C   UNL     1       2.648   2.695  21.599  0.00  0.00    +0.000 A 
ATOM     19  C   UNL     1       1.295   3.016  21.517  0.00  0.00    +0.000 A 
ATOM     20  C   UNL     1       0.676   3.131  20.273  0.00  0.00    +0.000 A 
ATOM     21  C   UNL     1       1.414   2.926  19.110  0.00  0.00    +0.000 A 
ENDBRANCH  15  16
ENDBRANCH  14  15
ENDBRANCH   5  14
TORSDOF 6
ENDMDL
MODEL 7
REMARK VINA RESULT:      -6.7      2.691      3.281
REMARK  Name = 
REMARK  6 active torsions:
REMARK  status: ('A' for Active; 'I' for Inactive)
REMARK    1  A    between atoms: N_1  and  C_2
REMARK    2  A    between atoms: C_2  and  N_4
REMARK    3  A    between atoms: N_4  and  C_5
REMARK    4  A    between atoms: C_9  and  O_10
REMARK    5  A    between atoms: O_10  and  C_11
REMARK    6  A    between atoms: C_11  and  C_12
REMARK                            x       y       z     vdW  Elec       q    Type
REMARK                         _______ _______ _______ _____ _____    ______ ____
ROOT
ATOM      1  C   UNL     1       6.439   6.451  16.835  0.00  0.00    +0.000 A 
ATOM      2  C   UNL     1       6.728   5.218  16.241  0.00  0.00    +0.000 A 
ATOM      3  C   UNL     1       5.751   4.225  16.180  0.00  0.00    +0.000 A 
ATOM      4  C   UNL     1       4.480   4.461  16.692  0.00  0.00    +0.000 A 
ATOM      5  C   UNL     1       4.182   5.686  17.289  0.00  0.00    +0.000 A 
ATOM      6  C   UNL     1       5.153   6.690  17.328  0.00  0.00    +0.000 A 
ENDROOT
BRANCH   1   7
ATOM      7  N   UNL     1       7.455   7.429  16.844  0.00  0.00    +0.000 N 
ATOM      8  H   UNL     1       7.951   7.566  15.976  0.00  0.00    +0.000 HD
BRANCH   7   9
ATOM      9  C   UNL     1       8.087   7.985  17.927  0.00  0.00    +0.000 C 
ATOM     10  S   UNL     1       8.475   9.574  18.221  0.00  0.00    +0.000 S 
BRANCH   9  11
ATOM     11  N   UNL     1       8.341   7.057  18.899  0.00  0.00    +0.000 N 
ATOM     12  H   UNL     1       7.627   6.345  19.012  0.00  0.00    +0.000 HD
ATOM     13  H   UNL     1       8.759   7.384  19.761  0.00  0.00    +0.000 HD
ENDBRANCH   9  11
ENDBRANCH   7   9
ENDBRANCH   1   7
BRANCH   5  14
ATOM     14  O   UNL     1       2.972   6.004  17.849  0.00  0.00    +0.000 OA
BRANCH  14  15
ATOM     15  C   UNL     1       1.982   4.979  17.742  0.00  0.00    +0.000 C 
BRANCH  15  16
ATOM     16  C   UNL     1       1.882   4.245  19.052  0.00  0.00    +0.000 A 
ATOM     17  C   UNL     1       1.392   2.935  19.107  0.00  0.00    +0.000 A 
ATOM     18  C   UNL     1       1.312   2.266  20.329  0.00  0.00    +0.000 A 
ATOM     19  C   UNL     1       1.717   2.902  21.501  0.00  0.00    +0.000 A 
ATOM     20  C   UNL     1       2.200   4.209  21.457  0.00  0.00    +0.000 A 
ATOM     21  C   UNL     1       2.279   4.878  20.239  0.00  0.00    +0.000 A 
ENDBRANCH  15  16
ENDBRANCH  14  15
ENDBRANCH   5  14
TORSDOF 6
ENDMDL
MODEL 8
REMARK VINA RESULT:      -6.5      2.604      3.349
REMARK  Name = 
REMARK  6 active torsions:
REMARK  status: ('A' for Active; 'I' for Inactive)
REMARK    1  A    between atoms: N_1  and  C_2
REMARK    2  A    between atoms: C_2  and  N_4
REMARK    3  A    between atoms: N_4  and  C_5
REMARK    4  A    between atoms: C_9  and  O_10
REMARK    5  A    between atoms: O_10  and  C_11
REMARK    6  A    between atoms: C_11  and  C_12
REMARK                            x       y       z     vdW  Elec       q    Type
REMARK                         _______ _______ _______ _____ _____    ______ ____
ROOT
ATOM      1  C   UNL     1       6.434   6.545  16.840  0.00  0.00    +0.000 A 
ATOM      2  C   UNL     1       7.100   5.470  16.242  0.00  0.00    +0.000 A 
ATOM      3  C   UNL     1       6.439   4.258  16.047  0.00  0.00    +0.000 A 
ATOM      4  C   UNL     1       5.109   4.117  16.427  0.00  0.00    +0.000 A 
ATOM      5  C   UNL     1       4.435   5.182  17.026  0.00  0.00    +0.000 A 
ATOM      6  C   UNL     1       5.089   6.404  17.200  0.00  0.00    +0.000 A 
ENDROOT
BRANCH   1   7
ATOM      7  N   UNL     1       7.141   7.755  16.988  0.00  0.00    +0.000 N 
ATOM      8  H   UNL     1       7.232   8.324  16.160  0.00  0.00    +0.000 HD
BRANCH   7   9
ATOM      9  C   UNL     1       7.998   8.119  17.996  0.00  0.00    +0.000 C 
ATOM     10  S   UNL     1       8.628   9.614  18.356  0.00  0.00    +0.000 S 
BRANCH   9  11
ATOM     11  N   UNL     1       8.275   7.072  18.829  0.00  0.00    +0.000 N 
ATOM     12  H   UNL     1       8.932   6.391  18.462  0.00  0.00    +0.000 HD
ATOM     13  H   UNL     1       7.509   6.681  19.362  0.00  0.00    +0.000 HD
ENDBRANCH   9  11
ENDBRANCH   7   9
ENDBRANCH   1   7
BRANCH   5  14
ATOM     14  O   UNL     1       3.136   5.133  17.463  0.00  0.00    +0.000 OA
BRANCH  14  15
ATOM     15  C   UNL     1       2.581   3.818  17.522  0.00  0.00    +0.000 C 
BRANCH  15  16
ATOM     16  C   UNL     1       2.406   3.416  18.962  0.00  0.00    +0.000 A 
ATOM     17  C   UNL     1       3.462   2.846  19.683  0.00  0.00    +0.000 A 
ATOM     18  C   UNL     1       3.286   2.486  21.020  0.00  0.00    +0.000 A 
ATOM     19  C   UNL     1       2.055   2.689  21.640  0.00  0.00    +0.000 A 
ATOM     20  C   UNL     1       0.995   3.250  20.929  0.00  0.00    +0.000 A 
ATOM     21  C   UNL     1       1.170   3.609  19.595  0.00  0.00    +0.000 A 
ENDBRANCH  15  16
ENDBRANCH  14  15
ENDBRANCH   5  14
TORSDOF 6
ENDMDL
MODEL 9
REMARK VINA RESULT:      -6.5      1.854      2.584
REMARK  Name = 
REMARK  6 active torsions:
REMARK  status: ('A' for Active; 'I' for Inactive)
REMARK    1  A    between atoms: N_1  and  C_2
REMARK    2  A    between atoms: C_2  and  N_4
REMARK    3  A    between atoms: N_4  and  C_5
REMARK    4  A    between atoms: C_9  and  O_10
REMARK    5  A    between atoms: O_10  and  C_11
REMARK    6  A    between atoms: C_11  and  C_12
REMARK                            x       y       z     vdW  Elec       q    Type
REMARK                         _______ _______ _______ _____ _____    ______ ____
ROOT
ATOM      1  C   UNL     1       5.870   4.634  15.717  0.00  0.00    +0.000 A 
ATOM      2  C   UNL     1       7.123   4.330  16.260  0.00  0.00    +0.000 A 
ATOM      3  C   UNL     1       7.421   4.687  17.574  0.00  0.00    +0.000 A 
ATOM      4  C   UNL     1       6.469   5.329  18.359  0.00  0.00    +0.000 A 
ATOM      5  C   UNL     1       5.217   5.639  17.827  0.00  0.00    +0.000 A 
ATOM      6  C   UNL     1       4.910   5.261  16.518  0.00  0.00    +0.000 A 
ENDROOT
BRANCH   1   7
ATOM      7  N   UNL     1       5.612   4.226  14.393  0.00  0.00    +0.000 N 
ATOM      8  H   UNL     1       4.753   3.720  14.240  0.00  0.00    +0.000 HD
BRANCH   7   9
ATOM      9  C   UNL     1       6.497   4.124  13.349  0.00  0.00    +0.000 C 
ATOM     10  S   UNL     1       7.716   5.159  12.894  0.00  0.00    +0.000 S 
BRANCH   9  11
ATOM     11  N   UNL     1       6.351   2.945  12.672  0.00  0.00    +0.000 N 
ATOM     12  H   UNL     1       6.558   2.989  11.680  0.00  0.00    +0.000 HD
ATOM     13  H   UNL     1       5.563   2.358  12.917  0.00  0.00    +0.000 HD
ENDBRANCH   9  11
ENDBRANCH   7   9
ENDBRANCH   1   7
BRANCH   5  14
ATOM     14  O   UNL     1       4.225   6.297  18.507  0.00  0.00    +0.000 OA
BRANCH  14  15
ATOM     15  C   UNL     1       2.919   6.135  17.952  0.00  0.00    +0.000 C 
BRANCH  15  16
ATOM     16  C   UNL     1       2.198   5.038  18.689  0.00  0.00    +0.000 A 
ATOM     17  C   UNL     1       2.034   5.091  20.079  0.00  0.00    +0.000 A 
ATOM     18  C   UNL     1       1.358   4.069  20.746  0.00  0.00    +0.000 A 
ATOM     19  C   UNL     1       0.846   2.989  20.031  0.00  0.00    +0.000 A 
ATOM     20  C   UNL     1       1.010   2.922  18.647  0.00  0.00    +0.000 A 
ATOM     21  C   UNL     1       1.686   3.941  17.981  0.00  0.00    +0.000 A 
ENDBRANCH  15  16
ENDBRANCH  14  15
ENDBRANCH   5  14
TORSDOF 6
ENDMDL
