MODEL 1
REMARK VINA RESULT:      -8.9      0.000      0.000
REMARK  Name = 
REMARK  4 active torsions:
REMARK  status: ('A' for Active; 'I' for Inactive)
REMARK    1  A    between atoms: C_1  and  C_2
REMARK    2  A    between atoms: C_9  and  N_10
REMARK    3  A    between atoms: N_13  and  C_14
REMARK    4  A    between atoms: C_19  and  C_20
REMARK                            x       y       z     vdW  Elec       q    Type
REMARK                         _______ _______ _______ _____ _____    ______ ____
ROOT
ATOM      1  N   UNL     1       0.985   9.816  21.954  0.00  0.00    +0.000 N 
ATOM      2  C   UNL     1       0.969   8.871  20.940  0.00  0.00    +0.000 C 
ATOM      3  O   UNL     1       0.203   8.863  19.986  0.00  0.00    +0.000 OA
ATOM      4  N   UNL     1       1.905   7.860  21.140  0.00  0.00    +0.000 N 
ATOM      5  H   UNL     1       1.813   9.853  22.530  0.00  0.00    +0.000 HD
ATOM      6  H   UNL     1       2.058   7.628  22.111  0.00  0.00    +0.000 HD
ENDROOT
BRANCH   1  15
ATOM      7  C   UNL     1      -2.757  15.364  22.015  0.00  0.00    +0.000 C 
ATOM      8  C   UNL     1      -2.878  14.010  22.644  0.00  0.00    +0.000 A 
ATOM      9  C   UNL     1      -3.924  13.717  23.432  0.00  0.00    +0.000 A 
ATOM     10  C   UNL     1      -4.108  12.414  24.092  0.00  0.00    +0.000 A 
ATOM     11  O   UNL     1      -5.087  12.205  24.796  0.00  0.00    +0.000 OA
ATOM     12  O   UNL     1      -3.122  11.474  23.880  0.00  0.00    +0.000 OA
ATOM     13  C   UNL     1      -2.016  11.751  23.053  0.00  0.00    +0.000 A 
ATOM     14  C   UNL     1      -1.102  10.711  22.921  0.00  0.00    +0.000 A 
ATOM     15  C   UNL     1       0.028  10.850  22.116  0.00  0.00    +0.000 A 
ATOM     16  C   UNL     1       0.219  12.079  21.469  0.00  0.00    +0.000 A 
ATOM     17  C   UNL     1      -0.712  13.132  21.619  0.00  0.00    +0.000 A 
ATOM     18  C   UNL     1      -1.853  12.977  22.419  0.00  0.00    +0.000 A 
ENDBRANCH   1  15
BRANCH   4  19
ATOM     19  C   UNL     1       2.003   6.789  20.216  0.00  0.00    +0.000 A 
ATOM     20  C   UNL     1       2.535   7.035  18.956  0.00  0.00    +0.000 A 
ATOM     21  C   UNL     1       2.722   5.975  18.065  0.00  0.00    +0.000 A 
ATOM     22  C   UNL     1       2.331   4.670  18.400  0.00  0.00    +0.000 A 
ATOM     23 CL   UNL     1       2.612   3.458  17.207  0.00  0.00    +0.000 Cl
ATOM     24  C   UNL     1       1.752   4.407  19.645  0.00  0.00    +0.000 A 
ATOM     25  C   UNL     1       1.609   5.485  20.550  0.00  0.00    +0.000 A 
BRANCH  24  26
ATOM     26  C   UNL     1       1.270   3.052  20.097  0.00  0.00    +0.000 C 
ATOM     27  F   UNL     1       0.836   2.962  21.382  0.00  0.00    +0.000 F 
ATOM     28  F   UNL     1       0.242   2.585  19.333  0.00  0.00    +0.000 F 
ATOM     29  F   UNL     1       2.255   2.110  19.991  0.00  0.00    +0.000 F 
ENDBRANCH  24  26
ENDBRANCH   4  19
TORSDOF 3
ENDMDL
MODEL 2
REMARK VINA RESULT:      -8.8      3.565      4.601
REMARK  Name = 
REMARK  4 active torsions:
REMARK  status: ('A' for Active; 'I' for Inactive)
REMARK    1  A    between atoms: C_1  and  C_2
REMARK    2  A    between atoms: C_9  and  N_10
REMARK    3  A    between atoms: N_13  and  C_14
REMARK    4  A    between atoms: C_19  and  C_20
REMARK                            x       y       z     vdW  Elec       q    Type
REMARK                         _______ _______ _______ _____ _____    ______ ____
ROOT
ATOM      1  N   UNL     1       1.674   7.422  21.047  0.00  0.00    +0.000 N 
ATOM      2  C   UNL     1       2.439   7.051  19.952  0.00  0.00    +0.000 C 
ATOM      3  O   UNL     1       2.641   7.737  18.960  0.00  0.00    +0.000 OA
ATOM      4  N   UNL     1       2.932   5.753  20.063  0.00  0.00    +0.000 N 
ATOM      5  H   UNL     1       1.794   6.882  21.892  0.00  0.00    +0.000 HD
ATOM      6  H   UNL     1       2.313   5.119  20.547  0.00  0.00    +0.000 HD
ENDROOT
BRANCH   1  15
ATOM      7  C   UNL     1      -2.317  12.576  22.563  0.00  0.00    +0.000 C 
ATOM      8  C   UNL     1      -1.501  12.198  21.366  0.00  0.00    +0.000 A 
ATOM      9  C   UNL     1      -1.489  12.981  20.275  0.00  0.00    +0.000 A 
ATOM     10  C   UNL     1      -0.722  12.671  19.058  0.00  0.00    +0.000 A 
ATOM     11  O   UNL     1      -0.747  13.428  18.096  0.00  0.00    +0.000 OA
ATOM     12  O   UNL     1      -0.001  11.497  19.068  0.00  0.00    +0.000 OA
ATOM     13  C   UNL     1       0.011  10.659  20.199  0.00  0.00    +0.000 A 
ATOM     14  C   UNL     1       0.786   9.510  20.076  0.00  0.00    +0.000 A 
ATOM     15  C   UNL     1       0.896   8.605  21.132  0.00  0.00    +0.000 A 
ATOM     16  C   UNL     1       0.182   8.884  22.305  0.00  0.00    +0.000 A 
ATOM     17  C   UNL     1      -0.610  10.049  22.415  0.00  0.00    +0.000 A 
ATOM     18  C   UNL     1      -0.703  10.960  21.353  0.00  0.00    +0.000 A 
ENDBRANCH   1  15
BRANCH   4  19
ATOM     19  C   UNL     1       3.707   5.197  19.015  0.00  0.00    +0.000 A 
ATOM     20  C   UNL     1       3.078   4.409  18.058  0.00  0.00    +0.000 A 
ATOM     21  C   UNL     1       3.809   3.927  16.969  0.00  0.00    +0.000 A 
ATOM     22  C   UNL     1       5.183   4.180  16.851  0.00  0.00    +0.000 A 
ATOM     23 CL   UNL     1       5.965   3.520  15.463  0.00  0.00    +0.000 Cl
ATOM     24  C   UNL     1       5.847   4.931  17.825  0.00  0.00    +0.000 A 
ATOM     25  C   UNL     1       5.082   5.446  18.898  0.00  0.00    +0.000 A 
BRANCH  24  26
ATOM     26  C   UNL     1       7.323   5.238  17.813  0.00  0.00    +0.000 C 
ATOM     27  F   UNL     1       8.158   4.186  17.604  0.00  0.00    +0.000 F 
ATOM     28  F   UNL     1       7.654   6.160  16.865  0.00  0.00    +0.000 F 
ATOM     29  F   UNL     1       7.730   5.780  19.001  0.00  0.00    +0.000 F 
ENDBRANCH  24  26
ENDBRANCH   4  19
TORSDOF 3
ENDMDL
MODEL 3
REMARK VINA RESULT:      -8.8      3.530      4.488
REMARK  Name = 
REMARK  4 active torsions:
REMARK  status: ('A' for Active; 'I' for Inactive)
REMARK    1  A    between atoms: C_1  and  C_2
REMARK    2  A    between atoms: C_9  and  N_10
REMARK    3  A    between atoms: N_13  and  C_14
REMARK    4  A    between atoms: C_19  and  C_20
REMARK                            x       y       z     vdW  Elec       q    Type
REMARK                         _______ _______ _______ _____ _____    ______ ____
ROOT
ATOM      1  N   UNL     1       1.796   7.384  21.160  0.00  0.00    +0.000 N 
ATOM      2  C   UNL     1       2.507   7.024  20.026  0.00  0.00    +0.000 C 
ATOM      3  O   UNL     1       2.605   7.692  19.006  0.00  0.00    +0.000 OA
ATOM      4  N   UNL     1       3.078   5.759  20.135  0.00  0.00    +0.000 N 
ATOM      5  H   UNL     1       2.001   6.876  22.008  0.00  0.00    +0.000 HD
ATOM      6  H   UNL     1       2.528   5.106  20.675  0.00  0.00    +0.000 HD
ENDROOT
BRANCH   1  15
ATOM      7  C   UNL     1      -1.870  12.715  22.873  0.00  0.00    +0.000 C 
ATOM      8  C   UNL     1      -1.617  11.984  21.591  0.00  0.00    +0.000 A 
ATOM      9  C   UNL     1      -2.208  12.381  20.453  0.00  0.00    +0.000 A 
ATOM     10  C   UNL     1      -2.017  11.709  19.157  0.00  0.00    +0.000 A 
ATOM     11  O   UNL     1      -2.580  12.122  18.152  0.00  0.00    +0.000 OA
ATOM     12  O   UNL     1      -1.192  10.605  19.154  0.00  0.00    +0.000 OA
ATOM     13  C   UNL     1      -0.552  10.169  20.330  0.00  0.00    +0.000 A 
ATOM     14  C   UNL     1       0.258   9.048  20.182  0.00  0.00    +0.000 A 
ATOM     15  C   UNL     1       0.961   8.526  21.267  0.00  0.00    +0.000 A 
ATOM     16  C   UNL     1       0.802   9.155  22.510  0.00  0.00    +0.000 A 
ATOM     17  C   UNL     1      -0.032  10.288  22.650  0.00  0.00    +0.000 A 
ATOM     18  C   UNL     1      -0.723  10.814  21.549  0.00  0.00    +0.000 A 
ENDBRANCH   1  15
BRANCH   4  19
ATOM     19  C   UNL     1       3.813   5.216  19.052  0.00  0.00    +0.000 A 
ATOM     20  C   UNL     1       3.153   4.418  18.123  0.00  0.00    +0.000 A 
ATOM     21  C   UNL     1       3.840   3.949  17.001  0.00  0.00    +0.000 A 
ATOM     22  C   UNL     1       5.204   4.224  16.820  0.00  0.00    +0.000 A 
ATOM     23 CL   UNL     1       5.931   3.578  15.396  0.00  0.00    +0.000 Cl
ATOM     24  C   UNL     1       5.899   4.986  17.763  0.00  0.00    +0.000 A 
ATOM     25  C   UNL     1       5.177   5.488  18.871  0.00  0.00    +0.000 A 
BRANCH  24  26
ATOM     26  C   UNL     1       7.368   5.317  17.684  0.00  0.00    +0.000 C 
ATOM     27  F   UNL     1       7.885   6.026  18.721  0.00  0.00    +0.000 F 
ATOM     28  F   UNL     1       8.146   4.203  17.581  0.00  0.00    +0.000 F 
ATOM     29  F   UNL     1       7.653   6.060  16.572  0.00  0.00    +0.000 F 
ENDBRANCH  24  26
ENDBRANCH   4  19
TORSDOF 3
ENDMDL
MODEL 4
REMARK VINA RESULT:      -8.5      8.993      9.698
REMARK  Name = 
REMARK  4 active torsions:
REMARK  status: ('A' for Active; 'I' for Inactive)
REMARK    1  A    between atoms: C_1  and  C_2
REMARK    2  A    between atoms: C_9  and  N_10
REMARK    3  A    between atoms: N_13  and  C_14
REMARK    4  A    between atoms: C_19  and  C_20
REMARK                            x       y       z     vdW  Elec       q    Type
REMARK                         _______ _______ _______ _____ _____    ______ ____
ROOT
ATOM      1  N   UNL     1       9.287   9.023  19.160  0.00  0.00    +0.000 N 
ATOM      2  C   UNL     1       8.281   8.301  18.536  0.00  0.00    +0.000 C 
ATOM      3  O   UNL     1       7.427   8.767  17.795  0.00  0.00    +0.000 OA
ATOM      4  N   UNL     1       8.298   6.954  18.887  0.00  0.00    +0.000 N 
ATOM      5  H   UNL     1      10.065   8.496  19.531  0.00  0.00    +0.000 HD
ATOM      6  H   UNL     1       8.598   6.780  19.835  0.00  0.00    +0.000 HD
ENDROOT
BRANCH   1  15
ATOM      7  C   UNL     1       9.826  15.561  17.836  0.00  0.00    +0.000 C 
ATOM      8  C   UNL     1       9.800  14.743  19.091  0.00  0.00    +0.000 A 
ATOM      9  C   UNL     1       9.912  15.335  20.291  0.00  0.00    +0.000 A 
ATOM     10  C   UNL     1       9.905  14.599  21.566  0.00  0.00    +0.000 A 
ATOM     11  O   UNL     1      10.005  15.195  22.630  0.00  0.00    +0.000 OA
ATOM     12  O   UNL     1       9.792  13.228  21.483  0.00  0.00    +0.000 OA
ATOM     13  C   UNL     1       9.666  12.580  20.239  0.00  0.00    +0.000 A 
ATOM     14  C   UNL     1       9.553  11.195  20.301  0.00  0.00    +0.000 A 
ATOM     15  C   UNL     1       9.405  10.436  19.141  0.00  0.00    +0.000 A 
ATOM     16  C   UNL     1       9.399  11.116  17.915  0.00  0.00    +0.000 A 
ATOM     17  C   UNL     1       9.525  12.523  17.863  0.00  0.00    +0.000 A 
ATOM     18  C   UNL     1       9.658  13.279  19.037  0.00  0.00    +0.000 A 
ENDBRANCH   1  15
BRANCH   4  19
ATOM     19  C   UNL     1       7.315   6.073  18.368  0.00  0.00    +0.000 A 
ATOM     20  C   UNL     1       6.370   5.534  19.233  0.00  0.00    +0.000 A 
ATOM     21  C   UNL     1       5.342   4.737  18.725  0.00  0.00    +0.000 A 
ATOM     22  C   UNL     1       5.275   4.426  17.359  0.00  0.00    +0.000 A 
ATOM     23 CL   UNL     1       3.958   3.426  16.867  0.00  0.00    +0.000 Cl
ATOM     24  C   UNL     1       6.240   4.919  16.477  0.00  0.00    +0.000 A 
ATOM     25  C   UNL     1       7.250   5.759  17.003  0.00  0.00    +0.000 A 
BRANCH  24  26
ATOM     26  C   UNL     1       6.281   4.625  14.998  0.00  0.00    +0.000 C 
ATOM     27  F   UNL     1       6.282   3.313  14.643  0.00  0.00    +0.000 F 
ATOM     28  F   UNL     1       5.233   5.183  14.329  0.00  0.00    +0.000 F 
ATOM     29  F   UNL     1       7.401   5.149  14.416  0.00  0.00    +0.000 F 
ENDBRANCH  24  26
ENDBRANCH   4  19
TORSDOF 3
ENDMDL
MODEL 5
REMARK VINA RESULT:      -8.5      3.052      3.897
REMARK  Name = 
REMARK  4 active torsions:
REMARK  status: ('A' for Active; 'I' for Inactive)
REMARK    1  A    between atoms: C_1  and  C_2
REMARK    2  A    between atoms: C_9  and  N_10
REMARK    3  A    between atoms: N_13  and  C_14
REMARK    4  A    between atoms: C_19  and  C_20
REMARK                            x       y       z     vdW  Elec       q    Type
REMARK                         _______ _______ _______ _____ _____    ______ ____
ROOT
ATOM      1  N   UNL     1       1.621   7.727  20.896  0.00  0.00    +0.000 N 
ATOM      2  C   UNL     1       2.390   7.278  19.833  0.00  0.00    +0.000 C 
ATOM      3  O   UNL     1       2.598   7.892  18.795  0.00  0.00    +0.000 OA
ATOM      4  N   UNL     1       2.879   5.991  20.038  0.00  0.00    +0.000 N 
ATOM      5  H   UNL     1       1.737   7.249  21.777  0.00  0.00    +0.000 HD
ATOM      6  H   UNL     1       2.256   5.393  20.563  0.00  0.00    +0.000 HD
ENDROOT
BRANCH   1  15
ATOM      7  C   UNL     1      -1.487  13.550  19.788  0.00  0.00    +0.000 C 
ATOM      8  C   UNL     1      -1.492  12.555  20.907  0.00  0.00    +0.000 A 
ATOM      9  C   UNL     1      -2.241  12.765  22.001  0.00  0.00    +0.000 A 
ATOM     10  C   UNL     1      -2.290  11.839  23.145  0.00  0.00    +0.000 A 
ATOM     11  O   UNL     1      -2.997  12.083  24.113  0.00  0.00    +0.000 OA
ATOM     12  O   UNL     1      -1.499  10.714  23.059  0.00  0.00    +0.000 OA
ATOM     13  C   UNL     1      -0.708  10.464  21.921  0.00  0.00    +0.000 A 
ATOM     14  C   UNL     1       0.036   9.289  21.964  0.00  0.00    +0.000 A 
ATOM     15  C   UNL     1       0.846   8.916  20.892  0.00  0.00    +0.000 A 
ATOM     16  C   UNL     1       0.902   9.777  19.788  0.00  0.00    +0.000 A 
ATOM     17  C   UNL     1       0.150  10.974  19.760  0.00  0.00    +0.000 A 
ATOM     18  C   UNL     1      -0.674  11.332  20.836  0.00  0.00    +0.000 A 
ENDBRANCH   1  15
BRANCH   4  19
ATOM     19  C   UNL     1       3.657   5.359  19.035  0.00  0.00    +0.000 A 
ATOM     20  C   UNL     1       3.028   4.515  18.127  0.00  0.00    +0.000 A 
ATOM     21  C   UNL     1       3.763   3.956  17.078  0.00  0.00    +0.000 A 
ATOM     22  C   UNL     1       5.140   4.189  16.955  0.00  0.00    +0.000 A 
ATOM     23 CL   UNL     1       5.927   3.432  15.620  0.00  0.00    +0.000 Cl
ATOM     24  C   UNL     1       5.803   4.997  17.883  0.00  0.00    +0.000 A 
ATOM     25  C   UNL     1       5.035   5.589  18.913  0.00  0.00    +0.000 A 
BRANCH  24  26
ATOM     26  C   UNL     1       7.282   5.291  17.863  0.00  0.00    +0.000 C 
ATOM     27  F   UNL     1       8.111   4.217  17.775  0.00  0.00    +0.000 F 
ATOM     28  F   UNL     1       7.635   6.108  16.831  0.00  0.00    +0.000 F 
ATOM     29  F   UNL     1       7.676   5.948  18.995  0.00  0.00    +0.000 F 
ENDBRANCH  24  26
ENDBRANCH   4  19
TORSDOF 3
ENDMDL
MODEL 6
REMARK VINA RESULT:      -8.4      8.843     10.156
REMARK  Name = 
REMARK  4 active torsions:
REMARK  status: ('A' for Active; 'I' for Inactive)
REMARK    1  A    between atoms: C_1  and  C_2
REMARK    2  A    between atoms: C_9  and  N_10
REMARK    3  A    between atoms: N_13  and  C_14
REMARK    4  A    between atoms: C_19  and  C_20
REMARK                            x       y       z     vdW  Elec       q    Type
REMARK                         _______ _______ _______ _____ _____    ______ ____
ROOT
ATOM      1  N   UNL     1       9.388   9.094  19.205  0.00  0.00    +0.000 N 
ATOM      2  C   UNL     1       8.338   8.432  18.589  0.00  0.00    +0.000 C 
ATOM      3  O   UNL     1       7.426   8.964  17.971  0.00  0.00    +0.000 OA
ATOM      4  N   UNL     1       8.385   7.056  18.791  0.00  0.00    +0.000 N 
ATOM      5  H   UNL     1      10.194   8.540  19.455  0.00  0.00    +0.000 HD
ATOM      6  H   UNL     1       8.761   6.785  19.689  0.00  0.00    +0.000 HD
ENDROOT
BRANCH   1  15
ATOM      7  C   UNL     1       9.400  15.569  20.900  0.00  0.00    +0.000 C 
ATOM      8  C   UNL     1       9.809  14.803  19.680  0.00  0.00    +0.000 A 
ATOM      9  C   UNL     1      10.296  15.445  18.605  0.00  0.00    +0.000 A 
ATOM     10  C   UNL     1      10.709  14.764  17.367  0.00  0.00    +0.000 A 
ATOM     11  O   UNL     1      11.150  15.403  16.422  0.00  0.00    +0.000 OA
ATOM     12  O   UNL     1      10.558  13.394  17.340  0.00  0.00    +0.000 OA
ATOM     13  C   UNL     1      10.057  12.693  18.454  0.00  0.00    +0.000 A 
ATOM     14  C   UNL     1       9.964  11.315  18.293  0.00  0.00    +0.000 A 
ATOM     15  C   UNL     1       9.500  10.503  19.328  0.00  0.00    +0.000 A 
ATOM     16  C   UNL     1       9.110  11.129  20.520  0.00  0.00    +0.000 A 
ATOM     17  C   UNL     1       9.199  12.531  20.669  0.00  0.00    +0.000 A 
ATOM     18  C   UNL     1       9.681  13.337  19.627  0.00  0.00    +0.000 A 
ENDBRANCH   1  15
BRANCH   4  19
ATOM     19  C   UNL     1       7.367   6.224  18.260  0.00  0.00    +0.000 A 
ATOM     20  C   UNL     1       6.362   5.768  19.104  0.00  0.00    +0.000 A 
ATOM     21  C   UNL     1       5.302   5.024  18.580  0.00  0.00    +0.000 A 
ATOM     22  C   UNL     1       5.262   4.680  17.221  0.00  0.00    +0.000 A 
ATOM     23 CL   UNL     1       3.902   3.752  16.707  0.00  0.00    +0.000 Cl
ATOM     24  C   UNL     1       6.285   5.089  16.361  0.00  0.00    +0.000 A 
ATOM     25  C   UNL     1       7.328   5.878  16.901  0.00  0.00    +0.000 A 
BRANCH  24  26
ATOM     26  C   UNL     1       6.358   4.752  14.893  0.00  0.00    +0.000 C 
ATOM     27  F   UNL     1       7.445   5.214  14.220  0.00  0.00    +0.000 F 
ATOM     28  F   UNL     1       6.334   3.408  14.667  0.00  0.00    +0.000 F 
ATOM     29  F   UNL     1       5.283   5.252  14.212  0.00  0.00    +0.000 F 
ENDBRANCH  24  26
ENDBRANCH   4  19
TORSDOF 3
ENDMDL
MODEL 7
REMARK VINA RESULT:      -8.3      1.526      2.309
REMARK  Name = 
REMARK  4 active torsions:
REMARK  status: ('A' for Active; 'I' for Inactive)
REMARK    1  A    between atoms: C_1  and  C_2
REMARK    2  A    between atoms: C_9  and  N_10
REMARK    3  A    between atoms: N_13  and  C_14
REMARK    4  A    between atoms: C_19  and  C_20
REMARK                            x       y       z     vdW  Elec       q    Type
REMARK                         _______ _______ _______ _____ _____    ______ ____
ROOT
ATOM      1  N   UNL     1       0.945   9.661  22.026  0.00  0.00    +0.000 N 
ATOM      2  C   UNL     1       0.968   8.754  20.978  0.00  0.00    +0.000 C 
ATOM      3  O   UNL     1       0.250   8.791  19.988  0.00  0.00    +0.000 OA
ATOM      4  N   UNL     1       1.881   7.723  21.188  0.00  0.00    +0.000 N 
ATOM      5  H   UNL     1       1.744   9.667  22.643  0.00  0.00    +0.000 HD
ATOM      6  H   UNL     1       1.982   7.455  22.157  0.00  0.00    +0.000 HD
ENDROOT
BRANCH   1  15
ATOM      7  C   UNL     1      -4.078  13.810  23.559  0.00  0.00    +0.000 C 
ATOM      8  C   UNL     1      -2.924  13.867  22.606  0.00  0.00    +0.000 A 
ATOM      9  C   UNL     1      -2.750  14.935  21.812  0.00  0.00    +0.000 A 
ATOM     10  C   UNL     1      -1.648  15.060  20.844  0.00  0.00    +0.000 A 
ATOM     11  O   UNL     1      -1.538  16.062  20.150  0.00  0.00    +0.000 OA
ATOM     12  O   UNL     1      -0.777  13.995  20.764  0.00  0.00    +0.000 OA
ATOM     13  C   UNL     1      -0.930  12.864  21.589  0.00  0.00    +0.000 A 
ATOM     14  C   UNL     1       0.023  11.867  21.410  0.00  0.00    +0.000 A 
ATOM     15  C   UNL     1      -0.006  10.703  22.177  0.00  0.00    +0.000 A 
ATOM     16  C   UNL     1      -1.041  10.566  23.113  0.00  0.00    +0.000 A 
ATOM     17  C   UNL     1      -2.011  11.581  23.279  0.00  0.00    +0.000 A 
ATOM     18  C   UNL     1      -1.963  12.755  22.513  0.00  0.00    +0.000 A 
ENDBRANCH   1  15
BRANCH   4  19
ATOM     19  C   UNL     1       2.011   6.685  20.232  0.00  0.00    +0.000 A 
ATOM     20  C   UNL     1       2.607   6.968  19.008  0.00  0.00    +0.000 A 
ATOM     21  C   UNL     1       2.825   5.938  18.090  0.00  0.00    +0.000 A 
ATOM     22  C   UNL     1       2.404   4.627  18.359  0.00  0.00    +0.000 A 
ATOM     23 CL   UNL     1       2.729   3.455  17.137  0.00  0.00    +0.000 Cl
ATOM     24  C   UNL     1       1.762   4.328  19.564  0.00  0.00    +0.000 A 
ATOM     25  C   UNL     1       1.588   5.375  20.499  0.00  0.00    +0.000 A 
BRANCH  24  26
ATOM     26  C   UNL     1       1.244   2.963  19.943  0.00  0.00    +0.000 C 
ATOM     27  F   UNL     1       0.231   2.468  19.184  0.00  0.00    +0.000 F 
ATOM     28  F   UNL     1       2.219   2.012  19.914  0.00  0.00    +0.000 F 
ATOM     29  F   UNL     1       0.764   2.950  21.223  0.00  0.00    +0.000 F 
ENDBRANCH  24  26
ENDBRANCH   4  19
TORSDOF 3
ENDMDL
MODEL 8
REMARK VINA RESULT:      -8.3      3.258      4.102
REMARK  Name = 
REMARK  4 active torsions:
REMARK  status: ('A' for Active; 'I' for Inactive)
REMARK    1  A    between atoms: C_1  and  C_2
REMARK    2  A    between atoms: C_9  and  N_10
REMARK    3  A    between atoms: N_13  and  C_14
REMARK    4  A    between atoms: C_19  and  C_20
REMARK                            x       y       z     vdW  Elec       q    Type
REMARK                         _______ _______ _______ _____ _____    ______ ____
ROOT
ATOM      1  N   UNL     1       1.654   7.839  20.832  0.00  0.00    +0.000 N 
ATOM      2  C   UNL     1       2.378   7.360  19.751  0.00  0.00    +0.000 C 
ATOM      3  O   UNL     1       2.445   7.887  18.649  0.00  0.00    +0.000 OA
ATOM      4  N   UNL     1       3.002   6.146  20.026  0.00  0.00    +0.000 N 
ATOM      5  H   UNL     1       1.882   7.460  21.739  0.00  0.00    +0.000 HD
ATOM      6  H   UNL     1       2.482   5.549  20.654  0.00  0.00    +0.000 HD
ENDROOT
BRANCH   1  15
ATOM      7  C   UNL     1      -2.720  12.717  19.463  0.00  0.00    +0.000 C 
ATOM      8  C   UNL     1      -1.891  12.355  20.657  0.00  0.00    +0.000 A 
ATOM      9  C   UNL     1      -1.936  13.106  21.769  0.00  0.00    +0.000 A 
ATOM     10  C   UNL     1      -1.145  12.822  22.978  0.00  0.00    +0.000 A 
ATOM     11  O   UNL     1      -1.233  13.541  23.964  0.00  0.00    +0.000 OA
ATOM     12  O   UNL     1      -0.312  11.725  22.922  0.00  0.00    +0.000 OA
ATOM     13  C   UNL     1      -0.248  10.915  21.772  0.00  0.00    +0.000 A 
ATOM     14  C   UNL     1       0.628   9.838  21.854  0.00  0.00    +0.000 A 
ATOM     15  C   UNL     1       0.771   8.949  20.790  0.00  0.00    +0.000 A 
ATOM     16  C   UNL     1       0.020   9.194  19.632  0.00  0.00    +0.000 A 
ATOM     17  C   UNL     1      -0.860  10.298  19.555  0.00  0.00    +0.000 A 
ATOM     18  C   UNL     1      -1.007  11.178  20.637  0.00  0.00    +0.000 A 
ENDBRANCH   1  15
BRANCH   4  19
ATOM     19  C   UNL     1       3.757   5.492  19.020  0.00  0.00    +0.000 A 
ATOM     20  C   UNL     1       3.110   4.618  18.154  0.00  0.00    +0.000 A 
ATOM     21  C   UNL     1       3.820   4.035  17.101  0.00  0.00    +0.000 A 
ATOM     22  C   UNL     1       5.192   4.274  16.934  0.00  0.00    +0.000 A 
ATOM     23 CL   UNL     1       5.947   3.486  15.599  0.00  0.00    +0.000 Cl
ATOM     24  C   UNL     1       5.874   5.113  17.820  0.00  0.00    +0.000 A 
ATOM     25  C   UNL     1       5.130   5.728  18.854  0.00  0.00    +0.000 A 
BRANCH  24  26
ATOM     26  C   UNL     1       7.349   5.417  17.751  0.00  0.00    +0.000 C 
ATOM     27  F   UNL     1       7.855   6.190  18.748  0.00  0.00    +0.000 F 
ATOM     28  F   UNL     1       8.111   4.286  17.745  0.00  0.00    +0.000 F 
ATOM     29  F   UNL     1       7.671   6.075  16.597  0.00  0.00    +0.000 F 
ENDBRANCH  24  26
ENDBRANCH   4  19
TORSDOF 3
ENDMDL
MODEL 9
REMARK VINA RESULT:      -8.0      3.565      4.559
REMARK  Name = 
REMARK  4 active torsions:
REMARK  status: ('A' for Active; 'I' for Inactive)
REMARK    1  A    between atoms: C_1  and  C_2
REMARK    2  A    between atoms: C_9  and  N_10
REMARK    3  A    between atoms: N_13  and  C_14
REMARK    4  A    between atoms: C_19  and  C_20
REMARK                            x       y       z     vdW  Elec       q    Type
REMARK                         _______ _______ _______ _____ _____    ______ ____
ROOT
ATOM      1  N   UNL     1       1.794   9.096  17.735  0.00  0.00    +0.000 N 
ATOM      2  C   UNL     1       2.147   7.989  18.492  0.00  0.00    +0.000 C 
ATOM      3  O   UNL     1       2.123   7.926  19.714  0.00  0.00    +0.000 OA
ATOM      4  N   UNL     1       2.601   6.932  17.708  0.00  0.00    +0.000 N 
ATOM      5  H   UNL     1       1.615   8.940  16.754  0.00  0.00    +0.000 HD
ATOM      6  H   UNL     1       3.103   7.220  16.880  0.00  0.00    +0.000 HD
ENDROOT
BRANCH   1  15
ATOM      7  C   UNL     1      -0.775  14.590  20.565  0.00  0.00    +0.000 C 
ATOM      8  C   UNL     1       0.498  14.281  19.839  0.00  0.00    +0.000 A 
ATOM      9  C   UNL     1       1.414  15.241  19.633  0.00  0.00    +0.000 A 
ATOM     10  C   UNL     1       2.683  15.018  18.921  0.00  0.00    +0.000 A 
ATOM     11  O   UNL     1       3.481  15.932  18.768  0.00  0.00    +0.000 OA
ATOM     12  O   UNL     1       2.900  13.745  18.439  0.00  0.00    +0.000 OA
ATOM     13  C   UNL     1       1.961  12.716  18.646  0.00  0.00    +0.000 A 
ATOM     14  C   UNL     1       2.311  11.479  18.113  0.00  0.00    +0.000 A 
ATOM     15  C   UNL     1       1.476  10.373  18.264  0.00  0.00    +0.000 A 
ATOM     16  C   UNL     1       0.267  10.560  18.947  0.00  0.00    +0.000 A 
ATOM     17  C   UNL     1      -0.083  11.823  19.475  0.00  0.00    +0.000 A 
ATOM     18  C   UNL     1       0.771  12.926  19.331  0.00  0.00    +0.000 A 
ENDBRANCH   1  15
BRANCH   4  19
ATOM     19  C   UNL     1       3.037   5.730  18.321  0.00  0.00    +0.000 A 
ATOM     20  C   UNL     1       4.402   5.503  18.461  0.00  0.00    +0.000 A 
ATOM     21  C   UNL     1       4.848   4.368  19.142  0.00  0.00    +0.000 A 
ATOM     22  C   UNL     1       3.942   3.422  19.644  0.00  0.00    +0.000 A 
ATOM     23 CL   UNL     1       4.628   2.065  20.457  0.00  0.00    +0.000 Cl
ATOM     24  C   UNL     1       2.567   3.606  19.475  0.00  0.00    +0.000 A 
ATOM     25  C   UNL     1       2.132   4.782  18.820  0.00  0.00    +0.000 A 
BRANCH  24  26
ATOM     26  C   UNL     1       1.508   2.641  19.947  0.00  0.00    +0.000 C 
ATOM     27  F   UNL     1       1.497   2.358  21.276  0.00  0.00    +0.000 F 
ATOM     28  F   UNL     1       0.248   3.071  19.655  0.00  0.00    +0.000 F 
ATOM     29  F   UNL     1       1.628   1.428  19.329  0.00  0.00    +0.000 F 
ENDBRANCH  24  26
ENDBRANCH   4  19
TORSDOF 3
ENDMDL
