MODEL 1
REMARK VINA RESULT:      -8.1      0.000      0.000
REMARK  Name = 
REMARK  14 active torsions:
REMARK  status: ('A' for Active; 'I' for Inactive)
REMARK    1  A    between atoms: C_1  and  N_2
REMARK    2  A    between atoms: N_2  and  C_3
REMARK    3  A    between atoms: N_2  and  C_4
REMARK    4  A    between atoms: C_7  and  C_8
REMARK    5  A    between atoms: C_8  and  C_9
REMARK    6  A    between atoms: C_11  and  C_12
REMARK    7  A    between atoms: C_12  and  C_13
REMARK    8  A    between atoms: C_12  and  C_14
REMARK    9  A    between atoms: C_12  and  C_15
REMARK   10  A    between atoms: C_17  and  C_18
REMARK   11  A    between atoms: C_18  and  C_19
REMARK   12  A    between atoms: C_18  and  C_20
REMARK   13  A    between atoms: C_18  and  C_21
REMARK   14  A    between atoms: C_22  and  O_23
REMARK                            x       y       z     vdW  Elec       q    Type
REMARK                         _______ _______ _______ _____ _____    ______ ____
ROOT
ATOM      1  C   UNL     1       3.309   6.317  18.090  0.00  0.00    +0.000 A 
ATOM      2  C   UNL     1       4.693   6.528  17.994  0.00  0.00    +0.000 A 
ATOM      3  C   UNL     1       5.612   5.551  18.408  0.00  0.00    +0.000 A 
ATOM      4  C   UNL     1       5.089   4.398  19.032  0.00  0.00    +0.000 A 
ATOM      5  C   UNL     1       3.705   4.121  19.138  0.00  0.00    +0.000 A 
ATOM      6  C   UNL     1       2.841   5.110  18.634  0.00  0.00    +0.000 A 
ENDROOT
BRANCH   3   7
ATOM      7  C   UNL     1       7.127   5.738  18.194  0.00  0.00    +0.000 C 
ATOM      8  C   UNL     1       7.671   4.592  17.322  0.00  0.00    +0.000 C 
ATOM      9  C   UNL     1       7.461   7.084  17.506  0.00  0.00    +0.000 C 
ATOM     10  C   UNL     1       7.900   5.747  19.535  0.00  0.00    +0.000 C 
ENDBRANCH   3   7
BRANCH   5  11
ATOM     11  C   UNL     1       3.234   2.813  19.819  0.00  0.00    +0.000 C 
ATOM     12  C   UNL     1       4.489   2.004  20.202  0.00  0.00    +0.000 C 
ATOM     13  C   UNL     1       2.373   3.030  21.086  0.00  0.00    +0.000 C 
ATOM     14  C   UNL     1       2.362   1.923  18.894  0.00  0.00    +0.000 C 
ENDBRANCH   5  11
BRANCH   6  15
ATOM     15  O   UNL     1       1.485   4.961  18.667  0.00  0.00    +0.000 OA
ATOM     16  H   UNL     1       1.187   5.139  17.758  0.00  0.00    +0.000 HD
ENDBRANCH   6  15
BRANCH   1  17
ATOM     17  C   UNL     1       2.353   7.405  17.641  0.00  0.00    +0.000 C 
BRANCH  17  21
ATOM     18  C   UNL     1       0.732   9.826  20.916  0.00  0.00    +0.000 A 
ATOM     19  C   UNL     1       0.660  10.234  19.573  0.00  0.00    +0.000 A 
ATOM     20  C   UNL     1       1.187   9.466  18.524  0.00  0.00    +0.000 A 
ATOM     21  C   UNL     1       1.792   8.235  18.774  0.00  0.00    +0.000 A 
ATOM     22  C   UNL     1       1.863   7.798  20.098  0.00  0.00    +0.000 A 
ATOM     23  C   UNL     1       1.343   8.580  21.142  0.00  0.00    +0.000 A 
BRANCH  18  25
ATOM     24  C   UNL     1      -0.471   9.922  23.073  0.00  0.00    +0.000 C 
ATOM     25  N   UNL     1       0.200  10.587  21.960  0.00  0.00    +0.000 N 
ATOM     26  C   UNL     1      -0.203  11.965  21.689  0.00  0.00    +0.000 C 
ENDBRANCH  18  25
ENDBRANCH  17  21
ENDBRANCH   1  17
TORSDOF 6
ENDMDL
MODEL 2
REMARK VINA RESULT:      -8.0      0.067      1.293
REMARK  Name = 
REMARK  14 active torsions:
REMARK  status: ('A' for Active; 'I' for Inactive)
REMARK    1  A    between atoms: C_1  and  N_2
REMARK    2  A    between atoms: N_2  and  C_3
REMARK    3  A    between atoms: N_2  and  C_4
REMARK    4  A    between atoms: C_7  and  C_8
REMARK    5  A    between atoms: C_8  and  C_9
REMARK    6  A    between atoms: C_11  and  C_12
REMARK    7  A    between atoms: C_12  and  C_13
REMARK    8  A    between atoms: C_12  and  C_14
REMARK    9  A    between atoms: C_12  and  C_15
REMARK   10  A    between atoms: C_17  and  C_18
REMARK   11  A    between atoms: C_18  and  C_19
REMARK   12  A    between atoms: C_18  and  C_20
REMARK   13  A    between atoms: C_18  and  C_21
REMARK   14  A    between atoms: C_22  and  O_23
REMARK                            x       y       z     vdW  Elec       q    Type
REMARK                         _______ _______ _______ _____ _____    ______ ____
ROOT
ATOM      1  C   UNL     1       3.295   6.322  18.084  0.00  0.00    +0.000 A 
ATOM      2  C   UNL     1       4.680   6.529  17.999  0.00  0.00    +0.000 A 
ATOM      3  C   UNL     1       5.593   5.543  18.406  0.00  0.00    +0.000 A 
ATOM      4  C   UNL     1       5.062   4.384  19.012  0.00  0.00    +0.000 A 
ATOM      5  C   UNL     1       3.676   4.111  19.106  0.00  0.00    +0.000 A 
ATOM      6  C   UNL     1       2.819   5.110  18.610  0.00  0.00    +0.000 A 
ENDROOT
BRANCH   3   7
ATOM      7  C   UNL     1       7.110   5.726  18.203  0.00  0.00    +0.000 C 
ATOM      8  C   UNL     1       7.815   5.746  19.571  0.00  0.00    +0.000 C 
ATOM      9  C   UNL     1       7.728   4.595  17.346  0.00  0.00    +0.000 C 
ATOM     10  C   UNL     1       7.436   7.044  17.460  0.00  0.00    +0.000 C 
ENDBRANCH   3   7
BRANCH   5  11
ATOM     11  C   UNL     1       3.196   2.796  19.768  0.00  0.00    +0.000 C 
ATOM     12  C   UNL     1       4.447   1.992  20.176  0.00  0.00    +0.000 C 
ATOM     13  C   UNL     1       2.304   3.001  21.015  0.00  0.00    +0.000 C 
ATOM     14  C   UNL     1       2.351   1.908  18.816  0.00  0.00    +0.000 C 
ENDBRANCH   5  11
BRANCH   6  15
ATOM     15  O   UNL     1       1.463   4.965  18.632  0.00  0.00    +0.000 OA
ATOM     16  H   UNL     1       1.291   4.101  18.219  0.00  0.00    +0.000 HD
ENDBRANCH   6  15
BRANCH   1  17
ATOM     17  C   UNL     1       2.346   7.419  17.643  0.00  0.00    +0.000 C 
BRANCH  17  21
ATOM     18  C   UNL     1       0.702   9.770  20.956  0.00  0.00    +0.000 A 
ATOM     19  C   UNL     1       1.354   8.542  21.158  0.00  0.00    +0.000 A 
ATOM     20  C   UNL     1       1.872   7.782  20.099  0.00  0.00    +0.000 A 
ATOM     21  C   UNL     1       1.780   8.235  18.783  0.00  0.00    +0.000 A 
ATOM     22  C   UNL     1       1.151   9.461  18.556  0.00  0.00    +0.000 A 
ATOM     23  C   UNL     1       0.625  10.209  19.623  0.00  0.00    +0.000 A 
BRANCH  18  25
ATOM     24  C   UNL     1      -0.371   9.862  23.181  0.00  0.00    +0.000 C 
ATOM     25  N   UNL     1       0.193  10.531  22.013  0.00  0.00    +0.000 N 
ATOM     26  C   UNL     1      -0.302  11.877  21.734  0.00  0.00    +0.000 C 
ENDBRANCH  18  25
ENDBRANCH  17  21
ENDBRANCH   1  17
TORSDOF 6
ENDMDL
MODEL 3
REMARK VINA RESULT:      -8.0      0.550      1.194
REMARK  Name = 
REMARK  14 active torsions:
REMARK  status: ('A' for Active; 'I' for Inactive)
REMARK    1  A    between atoms: C_1  and  N_2
REMARK    2  A    between atoms: N_2  and  C_3
REMARK    3  A    between atoms: N_2  and  C_4
REMARK    4  A    between atoms: C_7  and  C_8
REMARK    5  A    between atoms: C_8  and  C_9
REMARK    6  A    between atoms: C_11  and  C_12
REMARK    7  A    between atoms: C_12  and  C_13
REMARK    8  A    between atoms: C_12  and  C_14
REMARK    9  A    between atoms: C_12  and  C_15
REMARK   10  A    between atoms: C_17  and  C_18
REMARK   11  A    between atoms: C_18  and  C_19
REMARK   12  A    between atoms: C_18  and  C_20
REMARK   13  A    between atoms: C_18  and  C_21
REMARK   14  A    between atoms: C_22  and  O_23
REMARK                            x       y       z     vdW  Elec       q    Type
REMARK                         _______ _______ _______ _____ _____    ______ ____
ROOT
ATOM      1  C   UNL     1       3.404   6.521  17.821  0.00  0.00    +0.000 A 
ATOM      2  C   UNL     1       4.795   6.675  17.907  0.00  0.00    +0.000 A 
ATOM      3  C   UNL     1       5.630   5.599  18.249  0.00  0.00    +0.000 A 
ATOM      4  C   UNL     1       5.003   4.389  18.617  0.00  0.00    +0.000 A 
ATOM      5  C   UNL     1       3.607   4.169  18.530  0.00  0.00    +0.000 A 
ATOM      6  C   UNL     1       2.839   5.268  18.107  0.00  0.00    +0.000 A 
ENDROOT
BRANCH   3   7
ATOM      7  C   UNL     1       7.165   5.740  18.229  0.00  0.00    +0.000 C 
ATOM      8  C   UNL     1       7.781   4.576  17.432  0.00  0.00    +0.000 C 
ATOM      9  C   UNL     1       7.623   7.074  17.589  0.00  0.00    +0.000 C 
ATOM     10  C   UNL     1       7.762   5.731  19.657  0.00  0.00    +0.000 C 
ENDBRANCH   3   7
BRANCH   5  11
ATOM     11  C   UNL     1       3.021   2.794  18.933  0.00  0.00    +0.000 C 
ATOM     12  C   UNL     1       2.408   2.156  17.670  0.00  0.00    +0.000 C 
ATOM     13  C   UNL     1       4.055   1.814  19.537  0.00  0.00    +0.000 C 
ATOM     14  C   UNL     1       1.901   2.899  20.002  0.00  0.00    +0.000 C 
ENDBRANCH   5  11
BRANCH   6  15
ATOM     15  O   UNL     1       1.484   5.184  17.972  0.00  0.00    +0.000 OA
ATOM     16  H   UNL     1       1.339   4.765  17.107  0.00  0.00    +0.000 HD
ENDBRANCH   6  15
BRANCH   1  17
ATOM     17  C   UNL     1       2.540   7.714  17.459  0.00  0.00    +0.000 C 
BRANCH  17  21
ATOM     18  C   UNL     1       0.539   9.581  20.883  0.00  0.00    +0.000 A 
ATOM     19  C   UNL     1       0.451  10.108  19.583  0.00  0.00    +0.000 A 
ATOM     20  C   UNL     1       1.099   9.518  18.487  0.00  0.00    +0.000 A 
ATOM     21  C   UNL     1       1.849   8.352  18.643  0.00  0.00    +0.000 A 
ATOM     22  C   UNL     1       1.939   7.799  19.921  0.00  0.00    +0.000 A 
ATOM     23  C   UNL     1       1.296   8.404  21.014  0.00  0.00    +0.000 A 
BRANCH  18  25
ATOM     24  C   UNL     1      -0.387  11.598  21.971  0.00  0.00    +0.000 C 
ATOM     25  N   UNL     1      -0.113  10.164  21.973  0.00  0.00    +0.000 N 
ATOM     26  C   UNL     1       0.003   9.527  23.283  0.00  0.00    +0.000 C 
ENDBRANCH  18  25
ENDBRANCH  17  21
ENDBRANCH   1  17
TORSDOF 6
ENDMDL
MODEL 4
REMARK VINA RESULT:      -8.0      0.495      1.277
REMARK  Name = 
REMARK  14 active torsions:
REMARK  status: ('A' for Active; 'I' for Inactive)
REMARK    1  A    between atoms: C_1  and  N_2
REMARK    2  A    between atoms: N_2  and  C_3
REMARK    3  A    between atoms: N_2  and  C_4
REMARK    4  A    between atoms: C_7  and  C_8
REMARK    5  A    between atoms: C_8  and  C_9
REMARK    6  A    between atoms: C_11  and  C_12
REMARK    7  A    between atoms: C_12  and  C_13
REMARK    8  A    between atoms: C_12  and  C_14
REMARK    9  A    between atoms: C_12  and  C_15
REMARK   10  A    between atoms: C_17  and  C_18
REMARK   11  A    between atoms: C_18  and  C_19
REMARK   12  A    between atoms: C_18  and  C_20
REMARK   13  A    between atoms: C_18  and  C_21
REMARK   14  A    between atoms: C_22  and  O_23
REMARK                            x       y       z     vdW  Elec       q    Type
REMARK                         _______ _______ _______ _____ _____    ______ ____
ROOT
ATOM      1  C   UNL     1       3.324   6.483  17.830  0.00  0.00    +0.000 A 
ATOM      2  C   UNL     1       4.715   6.658  17.900  0.00  0.00    +0.000 A 
ATOM      3  C   UNL     1       5.569   5.597  18.238  0.00  0.00    +0.000 A 
ATOM      4  C   UNL     1       4.964   4.379  18.620  0.00  0.00    +0.000 A 
ATOM      5  C   UNL     1       3.571   4.138  18.549  0.00  0.00    +0.000 A 
ATOM      6  C   UNL     1       2.781   5.223  18.129  0.00  0.00    +0.000 A 
ENDROOT
BRANCH   3   7
ATOM      7  C   UNL     1       7.101   5.760  18.201  0.00  0.00    +0.000 C 
ATOM      8  C   UNL     1       7.463   7.091  17.517  0.00  0.00    +0.000 C 
ATOM      9  C   UNL     1       7.727   5.747  19.617  0.00  0.00    +0.000 C 
ATOM     10  C   UNL     1       7.784   4.606  17.427  0.00  0.00    +0.000 C 
ENDBRANCH   3   7
BRANCH   5  11
ATOM     11  C   UNL     1       3.009   2.757  18.966  0.00  0.00    +0.000 C 
ATOM     12  C   UNL     1       2.390   2.103  17.715  0.00  0.00    +0.000 C 
ATOM     13  C   UNL     1       4.065   1.795  19.562  0.00  0.00    +0.000 C 
ATOM     14  C   UNL     1       1.902   2.851  20.049  0.00  0.00    +0.000 C 
ENDBRANCH   5  11
BRANCH   6  15
ATOM     15  O   UNL     1       1.426   5.118  18.009  0.00  0.00    +0.000 OA
ATOM     16  H   UNL     1       1.244   4.163  17.998  0.00  0.00    +0.000 HD
ENDBRANCH   6  15
BRANCH   1  17
ATOM     17  C   UNL     1       2.439   7.660  17.471  0.00  0.00    +0.000 C 
BRANCH  17  21
ATOM     18  C   UNL     1       0.760   9.759  20.933  0.00  0.00    +0.000 A 
ATOM     19  C   UNL     1       0.677  10.276  19.629  0.00  0.00    +0.000 A 
ATOM     20  C   UNL     1       1.223   9.611  18.521  0.00  0.00    +0.000 A 
ATOM     21  C   UNL     1       1.858   8.379  18.668  0.00  0.00    +0.000 A 
ATOM     22  C   UNL     1       1.941   7.835  19.951  0.00  0.00    +0.000 A 
ATOM     23  C   UNL     1       1.402   8.515  21.056  0.00  0.00    +0.000 A 
BRANCH  18  25
ATOM     24  C   UNL     1      -0.323   9.641  23.152  0.00  0.00    +0.000 C 
ATOM     25  N   UNL     1       0.210  10.418  22.037  0.00  0.00    +0.000 N 
ATOM     26  C   UNL     1      -0.351  11.753  21.848  0.00  0.00    +0.000 C 
ENDBRANCH  18  25
ENDBRANCH  17  21
ENDBRANCH   1  17
TORSDOF 6
ENDMDL
MODEL 5
REMARK VINA RESULT:      -8.0      0.077      1.286
REMARK  Name = 
REMARK  14 active torsions:
REMARK  status: ('A' for Active; 'I' for Inactive)
REMARK    1  A    between atoms: C_1  and  N_2
REMARK    2  A    between atoms: N_2  and  C_3
REMARK    3  A    between atoms: N_2  and  C_4
REMARK    4  A    between atoms: C_7  and  C_8
REMARK    5  A    between atoms: C_8  and  C_9
REMARK    6  A    between atoms: C_11  and  C_12
REMARK    7  A    between atoms: C_12  and  C_13
REMARK    8  A    between atoms: C_12  and  C_14
REMARK    9  A    between atoms: C_12  and  C_15
REMARK   10  A    between atoms: C_17  and  C_18
REMARK   11  A    between atoms: C_18  and  C_19
REMARK   12  A    between atoms: C_18  and  C_20
REMARK   13  A    between atoms: C_18  and  C_21
REMARK   14  A    between atoms: C_22  and  O_23
REMARK                            x       y       z     vdW  Elec       q    Type
REMARK                         _______ _______ _______ _____ _____    ______ ____
ROOT
ATOM      1  C   UNL     1       3.326   6.296  18.041  0.00  0.00    +0.000 A 
ATOM      2  C   UNL     1       4.707   6.529  17.953  0.00  0.00    +0.000 A 
ATOM      3  C   UNL     1       5.639   5.563  18.365  0.00  0.00    +0.000 A 
ATOM      4  C   UNL     1       5.131   4.399  18.982  0.00  0.00    +0.000 A 
ATOM      5  C   UNL     1       3.751   4.101  19.081  0.00  0.00    +0.000 A 
ATOM      6  C   UNL     1       2.875   5.080  18.578  0.00  0.00    +0.000 A 
ENDROOT
BRANCH   3   7
ATOM      7  C   UNL     1       7.153   5.773  18.159  0.00  0.00    +0.000 C 
ATOM      8  C   UNL     1       7.717   4.641  17.283  0.00  0.00    +0.000 C 
ATOM      9  C   UNL     1       7.469   7.128  17.480  0.00  0.00    +0.000 C 
ATOM     10  C   UNL     1       7.920   5.786  19.504  0.00  0.00    +0.000 C 
ENDBRANCH   3   7
BRANCH   5  11
ATOM     11  C   UNL     1       3.297   2.783  19.754  0.00  0.00    +0.000 C 
ATOM     12  C   UNL     1       2.491   3.152  21.015  0.00  0.00    +0.000 C 
ATOM     13  C   UNL     1       2.425   1.876  18.852  0.00  0.00    +0.000 C 
ATOM     14  C   UNL     1       4.482   1.883  20.194  0.00  0.00    +0.000 C 
ENDBRANCH   5  11
BRANCH   6  15
ATOM     15  O   UNL     1       1.521   4.910  18.604  0.00  0.00    +0.000 OA
ATOM     16  H   UNL     1       1.241   5.225  19.481  0.00  0.00    +0.000 HD
ENDBRANCH   6  15
BRANCH   1  17
ATOM     17  C   UNL     1       2.356   7.372  17.593  0.00  0.00    +0.000 C 
BRANCH  17  21
ATOM     18  C   UNL     1       0.727   9.765  20.885  0.00  0.00    +0.000 A 
ATOM     19  C   UNL     1       1.360   8.528  21.097  0.00  0.00    +0.000 A 
ATOM     20  C   UNL     1       1.873   7.755  20.044  0.00  0.00    +0.000 A 
ATOM     21  C   UNL     1       1.796   8.203  18.726  0.00  0.00    +0.000 A 
ATOM     22  C   UNL     1       1.186   9.436  18.489  0.00  0.00    +0.000 A 
ATOM     23  C   UNL     1       0.665  10.197  19.548  0.00  0.00    +0.000 A 
BRANCH  18  25
ATOM     24  C   UNL     1      -0.443   9.888  23.058  0.00  0.00    +0.000 C 
ATOM     25  N   UNL     1       0.223  10.539  21.934  0.00  0.00    +0.000 N 
ATOM     26  C   UNL     1      -0.160  11.922  21.664  0.00  0.00    +0.000 C 
ENDBRANCH  18  25
ENDBRANCH  17  21
ENDBRANCH   1  17
TORSDOF 6
ENDMDL
MODEL 6
REMARK VINA RESULT:      -8.0      0.070      1.209
REMARK  Name = 
REMARK  14 active torsions:
REMARK  status: ('A' for Active; 'I' for Inactive)
REMARK    1  A    between atoms: C_1  and  N_2
REMARK    2  A    between atoms: N_2  and  C_3
REMARK    3  A    between atoms: N_2  and  C_4
REMARK    4  A    between atoms: C_7  and  C_8
REMARK    5  A    between atoms: C_8  and  C_9
REMARK    6  A    between atoms: C_11  and  C_12
REMARK    7  A    between atoms: C_12  and  C_13
REMARK    8  A    between atoms: C_12  and  C_14
REMARK    9  A    between atoms: C_12  and  C_15
REMARK   10  A    between atoms: C_17  and  C_18
REMARK   11  A    between atoms: C_18  and  C_19
REMARK   12  A    between atoms: C_18  and  C_20
REMARK   13  A    between atoms: C_18  and  C_21
REMARK   14  A    between atoms: C_22  and  O_23
REMARK                            x       y       z     vdW  Elec       q    Type
REMARK                         _______ _______ _______ _____ _____    ______ ____
ROOT
ATOM      1  C   UNL     1       3.310   6.301  18.088  0.00  0.00    +0.000 A 
ATOM      2  C   UNL     1       4.693   6.519  18.000  0.00  0.00    +0.000 A 
ATOM      3  C   UNL     1       5.615   5.541  18.405  0.00  0.00    +0.000 A 
ATOM      4  C   UNL     1       5.095   4.377  19.013  0.00  0.00    +0.000 A 
ATOM      5  C   UNL     1       3.712   4.094  19.110  0.00  0.00    +0.000 A 
ATOM      6  C   UNL     1       2.846   5.086  18.615  0.00  0.00    +0.000 A 
ENDROOT
BRANCH   3   7
ATOM      7  C   UNL     1       7.131   5.736  18.199  0.00  0.00    +0.000 C 
ATOM      8  C   UNL     1       7.386   7.066  17.468  0.00  0.00    +0.000 C 
ATOM      9  C   UNL     1       7.907   5.752  19.539  0.00  0.00    +0.000 C 
ATOM     10  C   UNL     1       7.750   4.588  17.367  0.00  0.00    +0.000 C 
ENDBRANCH   3   7
BRANCH   5  11
ATOM     11  C   UNL     1       3.244   2.775  19.773  0.00  0.00    +0.000 C 
ATOM     12  C   UNL     1       2.477   3.141  21.059  0.00  0.00    +0.000 C 
ATOM     13  C   UNL     1       2.332   1.903  18.878  0.00  0.00    +0.000 C 
ATOM     14  C   UNL     1       4.419   1.842  20.171  0.00  0.00    +0.000 C 
ENDBRANCH   5  11
BRANCH   6  15
ATOM     15  O   UNL     1       1.491   4.930  18.641  0.00  0.00    +0.000 OA
ATOM     16  H   UNL     1       1.238   4.737  17.721  0.00  0.00    +0.000 HD
ENDBRANCH   6  15
BRANCH   1  17
ATOM     17  C   UNL     1       2.352   7.390  17.649  0.00  0.00    +0.000 C 
BRANCH  17  21
ATOM     18  C   UNL     1       0.741   9.790  20.945  0.00  0.00    +0.000 A 
ATOM     19  C   UNL     1       0.676  10.213  19.606  0.00  0.00    +0.000 A 
ATOM     20  C   UNL     1       1.199   9.451  18.551  0.00  0.00    +0.000 A 
ATOM     21  C   UNL     1       1.794   8.213  18.789  0.00  0.00    +0.000 A 
ATOM     22  C   UNL     1       1.859   7.762  20.109  0.00  0.00    +0.000 A 
ATOM     23  C   UNL     1       1.342   8.537  21.160  0.00  0.00    +0.000 A 
BRANCH  18  25
ATOM     24  C   UNL     1      -0.380   9.870  23.146  0.00  0.00    +0.000 C 
ATOM     25  N   UNL     1       0.213  10.545  21.996  0.00  0.00    +0.000 N 
ATOM     26  C   UNL     1      -0.269  11.895  21.716  0.00  0.00    +0.000 C 
ENDBRANCH  18  25
ENDBRANCH  17  21
ENDBRANCH   1  17
TORSDOF 6
ENDMDL
MODEL 7
REMARK VINA RESULT:      -7.9      0.578      1.751
REMARK  Name = 
REMARK  14 active torsions:
REMARK  status: ('A' for Active; 'I' for Inactive)
REMARK    1  A    between atoms: C_1  and  N_2
REMARK    2  A    between atoms: N_2  and  C_3
REMARK    3  A    between atoms: N_2  and  C_4
REMARK    4  A    between atoms: C_7  and  C_8
REMARK    5  A    between atoms: C_8  and  C_9
REMARK    6  A    between atoms: C_11  and  C_12
REMARK    7  A    between atoms: C_12  and  C_13
REMARK    8  A    between atoms: C_12  and  C_14
REMARK    9  A    between atoms: C_12  and  C_15
REMARK   10  A    between atoms: C_17  and  C_18
REMARK   11  A    between atoms: C_18  and  C_19
REMARK   12  A    between atoms: C_18  and  C_20
REMARK   13  A    between atoms: C_18  and  C_21
REMARK   14  A    between atoms: C_22  and  O_23
REMARK                            x       y       z     vdW  Elec       q    Type
REMARK                         _______ _______ _______ _____ _____    ______ ____
ROOT
ATOM      1  C   UNL     1       3.396   6.570  17.794  0.00  0.00    +0.000 A 
ATOM      2  C   UNL     1       4.789   6.711  17.879  0.00  0.00    +0.000 A 
ATOM      3  C   UNL     1       5.614   5.628  18.220  0.00  0.00    +0.000 A 
ATOM      4  C   UNL     1       4.977   4.424  18.589  0.00  0.00    +0.000 A 
ATOM      5  C   UNL     1       3.579   4.216  18.503  0.00  0.00    +0.000 A 
ATOM      6  C   UNL     1       2.820   5.322  18.081  0.00  0.00    +0.000 A 
ENDROOT
BRANCH   3   7
ATOM      7  C   UNL     1       7.151   5.756  18.199  0.00  0.00    +0.000 C 
ATOM      8  C   UNL     1       7.551   7.072  17.509  0.00  0.00    +0.000 C 
ATOM      9  C   UNL     1       7.760   5.739  19.623  0.00  0.00    +0.000 C 
ATOM     10  C   UNL     1       7.815   4.580  17.443  0.00  0.00    +0.000 C 
ENDBRANCH   3   7
BRANCH   5  11
ATOM     11  C   UNL     1       2.981   2.847  18.908  0.00  0.00    +0.000 C 
ATOM     12  C   UNL     1       2.427   2.180  17.633  0.00  0.00    +0.000 C 
ATOM     13  C   UNL     1       3.991   1.884  19.576  0.00  0.00    +0.000 C 
ATOM     14  C   UNL     1       1.815   2.967  19.925  0.00  0.00    +0.000 C 
ENDBRANCH   5  11
BRANCH   6  15
ATOM     15  O   UNL     1       1.464   5.250  17.947  0.00  0.00    +0.000 OA
ATOM     16  H   UNL     1       1.313   4.656  17.191  0.00  0.00    +0.000 HD
ENDBRANCH   6  15
BRANCH   1  17
ATOM     17  C   UNL     1       2.543   7.770  17.431  0.00  0.00    +0.000 C 
BRANCH  17  21
ATOM     18  C   UNL     1       0.493   9.576  20.859  0.00  0.00    +0.000 A 
ATOM     19  C   UNL     1       1.310   8.440  20.986  0.00  0.00    +0.000 A 
ATOM     20  C   UNL     1       1.959   7.854  19.889  0.00  0.00    +0.000 A 
ATOM     21  C   UNL     1       1.836   8.399  18.611  0.00  0.00    +0.000 A 
ATOM     22  C   UNL     1       1.042   9.537  18.460  0.00  0.00    +0.000 A 
ATOM     23  C   UNL     1       0.387  10.109  19.563  0.00  0.00    +0.000 A 
BRANCH  18  25
ATOM     24  C   UNL     1      -0.425  11.598  21.946  0.00  0.00    +0.000 C 
ATOM     25  N   UNL     1      -0.148  10.165  21.953  0.00  0.00    +0.000 N 
ATOM     26  C   UNL     1      -0.015   9.536  23.265  0.00  0.00    +0.000 C 
ENDBRANCH  18  25
ENDBRANCH  17  21
ENDBRANCH   1  17
TORSDOF 6
ENDMDL
MODEL 8
REMARK VINA RESULT:      -7.8      0.239      1.425
REMARK  Name = 
REMARK  14 active torsions:
REMARK  status: ('A' for Active; 'I' for Inactive)
REMARK    1  A    between atoms: C_1  and  N_2
REMARK    2  A    between atoms: N_2  and  C_3
REMARK    3  A    between atoms: N_2  and  C_4
REMARK    4  A    between atoms: C_7  and  C_8
REMARK    5  A    between atoms: C_8  and  C_9
REMARK    6  A    between atoms: C_11  and  C_12
REMARK    7  A    between atoms: C_12  and  C_13
REMARK    8  A    between atoms: C_12  and  C_14
REMARK    9  A    between atoms: C_12  and  C_15
REMARK   10  A    between atoms: C_17  and  C_18
REMARK   11  A    between atoms: C_18  and  C_19
REMARK   12  A    between atoms: C_18  and  C_20
REMARK   13  A    between atoms: C_18  and  C_21
REMARK   14  A    between atoms: C_22  and  O_23
REMARK                            x       y       z     vdW  Elec       q    Type
REMARK                         _______ _______ _______ _____ _____    ______ ____
ROOT
ATOM      1  C   UNL     1       3.350   6.280  17.967  0.00  0.00    +0.000 A 
ATOM      2  C   UNL     1       4.736   6.492  17.922  0.00  0.00    +0.000 A 
ATOM      3  C   UNL     1       5.638   5.534  18.410  0.00  0.00    +0.000 A 
ATOM      4  C   UNL     1       5.091   4.403  19.055  0.00  0.00    +0.000 A 
ATOM      5  C   UNL     1       3.704   4.126  19.112  0.00  0.00    +0.000 A 
ATOM      6  C   UNL     1       2.862   5.093  18.535  0.00  0.00    +0.000 A 
ENDROOT
BRANCH   3   7
ATOM      7  C   UNL     1       7.161   5.717  18.254  0.00  0.00    +0.000 C 
ATOM      8  C   UNL     1       7.825   5.732  19.642  0.00  0.00    +0.000 C 
ATOM      9  C   UNL     1       7.804   4.588  17.412  0.00  0.00    +0.000 C 
ATOM     10  C   UNL     1       7.510   7.037  17.525  0.00  0.00    +0.000 C 
ENDBRANCH   3   7
BRANCH   5  11
ATOM     11  C   UNL     1       3.207   2.842  19.821  0.00  0.00    +0.000 C 
ATOM     12  C   UNL     1       2.435   3.272  21.084  0.00  0.00    +0.000 C 
ATOM     13  C   UNL     1       2.288   1.952  18.951  0.00  0.00    +0.000 C 
ATOM     14  C   UNL     1       4.362   1.906  20.267  0.00  0.00    +0.000 C 
ENDBRANCH   5  11
BRANCH   6  15
ATOM     15  O   UNL     1       1.506   4.941  18.516  0.00  0.00    +0.000 OA
ATOM     16  H   UNL     1       1.329   4.321  17.787  0.00  0.00    +0.000 HD
ENDBRANCH   6  15
BRANCH   1  17
ATOM     17  C   UNL     1       2.412   7.347  17.437  0.00  0.00    +0.000 C 
BRANCH  17  21
ATOM     18  C   UNL     1       0.578   9.825  20.553  0.00  0.00    +0.000 A 
ATOM     19  C   UNL     1       0.487  10.146  19.188  0.00  0.00    +0.000 A 
ATOM     20  C   UNL     1       1.082   9.360  18.190  0.00  0.00    +0.000 A 
ATOM     21  C   UNL     1       1.778   8.197  18.516  0.00  0.00    +0.000 A 
ATOM     22  C   UNL     1       1.871   7.846  19.864  0.00  0.00    +0.000 A 
ATOM     23  C   UNL     1       1.281   8.646  20.857  0.00  0.00    +0.000 A 
BRANCH  18  25
ATOM     24  C   UNL     1       0.063  12.059  21.478  0.00  0.00    +0.000 C 
ATOM     25  N   UNL     1      -0.021  10.603  21.548  0.00  0.00    +0.000 N 
ATOM     26  C   UNL     1      -0.199  10.027  22.878  0.00  0.00    +0.000 C 
ENDBRANCH  18  25
ENDBRANCH  17  21
ENDBRANCH   1  17
TORSDOF 6
ENDMDL
MODEL 9
REMARK VINA RESULT:      -7.7      0.400      1.590
REMARK  Name = 
REMARK  14 active torsions:
REMARK  status: ('A' for Active; 'I' for Inactive)
REMARK    1  A    between atoms: C_1  and  N_2
REMARK    2  A    between atoms: N_2  and  C_3
REMARK    3  A    between atoms: N_2  and  C_4
REMARK    4  A    between atoms: C_7  and  C_8
REMARK    5  A    between atoms: C_8  and  C_9
REMARK    6  A    between atoms: C_11  and  C_12
REMARK    7  A    between atoms: C_12  and  C_13
REMARK    8  A    between atoms: C_12  and  C_14
REMARK    9  A    between atoms: C_12  and  C_15
REMARK   10  A    between atoms: C_17  and  C_18
REMARK   11  A    between atoms: C_18  and  C_19
REMARK   12  A    between atoms: C_18  and  C_20
REMARK   13  A    between atoms: C_18  and  C_21
REMARK   14  A    between atoms: C_22  and  O_23
REMARK                            x       y       z     vdW  Elec       q    Type
REMARK                         _______ _______ _______ _____ _____    ______ ____
ROOT
ATOM      1  C   UNL     1       3.264   6.163  18.045  0.00  0.00    +0.000 A 
ATOM      2  C   UNL     1       4.640   6.416  17.947  0.00  0.00    +0.000 A 
ATOM      3  C   UNL     1       5.588   5.505  18.438  0.00  0.00    +0.000 A 
ATOM      4  C   UNL     1       5.099   4.380  19.138  0.00  0.00    +0.000 A 
ATOM      5  C   UNL     1       3.724   4.062  19.251  0.00  0.00    +0.000 A 
ATOM      6  C   UNL     1       2.832   4.982  18.670  0.00  0.00    +0.000 A 
ENDROOT
BRANCH   3   7
ATOM      7  C   UNL     1       7.098   5.730  18.225  0.00  0.00    +0.000 C 
ATOM      8  C   UNL     1       7.324   7.065  17.494  0.00  0.00    +0.000 C 
ATOM      9  C   UNL     1       7.881   5.759  19.561  0.00  0.00    +0.000 C 
ATOM     10  C   UNL     1       7.736   4.594  17.387  0.00  0.00    +0.000 C 
ENDBRANCH   3   7
BRANCH   5  11
ATOM     11  C   UNL     1       3.292   2.790  20.019  0.00  0.00    +0.000 C 
ATOM     12  C   UNL     1       2.442   1.930  19.063  0.00  0.00    +0.000 C 
ATOM     13  C   UNL     1       4.469   1.935  20.547  0.00  0.00    +0.000 C 
ATOM     14  C   UNL     1       2.431   3.097  21.273  0.00  0.00    +0.000 C 
ENDBRANCH   5  11
BRANCH   6  15
ATOM     15  O   UNL     1       1.482   4.787  18.701  0.00  0.00    +0.000 OA
ATOM     16  H   UNL     1       1.340   4.095  19.371  0.00  0.00    +0.000 HD
ENDBRANCH   6  15
BRANCH   1  17
ATOM     17  C   UNL     1       2.275   7.181  17.511  0.00  0.00    +0.000 C 
BRANCH  17  21
ATOM     18  C   UNL     1       0.919  10.074  20.512  0.00  0.00    +0.000 A 
ATOM     19  C   UNL     1       1.403   8.801  20.861  0.00  0.00    +0.000 A 
ATOM     20  C   UNL     1       1.828   7.870  19.902  0.00  0.00    +0.000 A 
ATOM     21  C   UNL     1       1.810   8.184  18.543  0.00  0.00    +0.000 A 
ATOM     22  C   UNL     1       1.348   9.448  18.170  0.00  0.00    +0.000 A 
ATOM     23  C   UNL     1       0.914  10.369  19.138  0.00  0.00    +0.000 A 
BRANCH  18  25
ATOM     24  C   UNL     1      -0.526  10.639  22.437  0.00  0.00    +0.000 C 
ATOM     25  N   UNL     1       0.503  11.005  21.468  0.00  0.00    +0.000 N 
ATOM     26  C   UNL     1       0.630  12.428  21.163  0.00  0.00    +0.000 C 
ENDBRANCH  18  25
ENDBRANCH  17  21
ENDBRANCH   1  17
TORSDOF 6
ENDMDL
