MODEL 1
REMARK VINA RESULT:      -8.4      0.000      0.000
REMARK  Name = 
REMARK  5 active torsions:
REMARK  status: ('A' for Active; 'I' for Inactive)
REMARK    1  A    between atoms: C_1  and  C_2
REMARK    2  A    between atoms: C_2  and  C_3
REMARK    3  A    between atoms: C_7  and  N_8
REMARK    4  A    between atoms: C_9  and  C_11
REMARK    5  A    between atoms: C_14  and  C_15
REMARK                            x       y       z     vdW  Elec       q    Type
REMARK                         _______ _______ _______ _____ _____    ______ ____
ROOT
ATOM      1  C   UNL     1       4.862   5.039  17.572  0.00  0.00    +0.000 A 
ATOM      2  C   UNL     1       5.257   4.249  16.476  0.00  0.00    +0.000 A 
ATOM      3  C   UNL     1       6.247   4.676  15.595  0.00  0.00    +0.000 A 
ATOM      4  C   UNL     1       6.876   5.898  15.795  0.00  0.00    +0.000 A 
ATOM      5  C   UNL     1       6.538   6.706  16.881  0.00  0.00    +0.000 A 
ATOM      6  C   UNL     1       5.542   6.262  17.767  0.00  0.00    +0.000 A 
ENDROOT
BRANCH   1   8
ATOM      7  C   UNL     1       3.179   5.780  19.327  0.00  0.00    +0.000 C 
ATOM      8  C   UNL     1       3.746   4.566  18.529  0.00  0.00    +0.000 C 
ATOM      9  C   UNL     1       2.576   3.965  17.723  0.00  0.00    +0.000 C 
ATOM     10  C   UNL     1       2.331   2.466  17.738  0.00  0.00    +0.000 C 
ATOM     11  S   UNL     1       3.602   1.418  18.435  0.00  0.00    +0.000 S 
ATOM     12  C   UNL     1       4.230   2.457  19.656  0.00  0.00    +0.000 C 
ATOM     13  N   UNL     1       4.796   1.800  20.697  0.00  0.00    +0.000 N 
ATOM     14  N   UNL     1       4.268   3.727  19.605  0.00  0.00    +0.000 NA
ATOM     15  H   UNL     1       5.049   0.840  20.511  0.00  0.00    +0.000 HD
ATOM     16  H   UNL     1       5.514   2.350  21.158  0.00  0.00    +0.000 HD
ENDBRANCH   1   8
BRANCH   5  17
ATOM     17  N   UNL     1       7.162   7.953  17.138  0.00  0.00    +0.000 N 
ATOM     18  C   UNL     1       8.097   8.202  18.129  0.00  0.00    +0.000 C 
ATOM     19  O   UNL     1       8.577   7.383  18.904  0.00  0.00    +0.000 OA
ATOM     20  H   UNL     1       6.849   8.723  16.562  0.00  0.00    +0.000 HD
BRANCH  18  21
ATOM     21  C   UNL     1       8.536   9.614  18.300  0.00  0.00    +0.000 A 
ATOM     22  C   UNL     1       9.414   9.878  19.365  0.00  0.00    +0.000 A 
ATOM     23  C   UNL     1       9.855  11.174  19.619  0.00  0.00    +0.000 A 
ATOM     24  C   UNL     1       9.428  12.221  18.801  0.00  0.00    +0.000 A 
ATOM     25  C   UNL     1       8.581  11.962  17.717  0.00  0.00    +0.000 A 
ATOM     26  C   UNL     1       8.136  10.659  17.461  0.00  0.00    +0.000 A 
BRANCH  24  27
ATOM     27  C   UNL     1       9.855  13.557  19.076  0.00  0.00    +0.000 C 
ATOM     28  N   UNL     1      10.213  14.641  19.306  0.00  0.00    +0.000 NA
ENDBRANCH  24  27
ENDBRANCH  18  21
ENDBRANCH   5  17
TORSDOF 4
ENDMDL
MODEL 2
REMARK VINA RESULT:      -7.8      1.168      1.211
REMARK  Name = 
REMARK  5 active torsions:
REMARK  status: ('A' for Active; 'I' for Inactive)
REMARK    1  A    between atoms: C_1  and  C_2
REMARK    2  A    between atoms: C_2  and  C_3
REMARK    3  A    between atoms: C_7  and  N_8
REMARK    4  A    between atoms: C_9  and  C_11
REMARK    5  A    between atoms: C_14  and  C_15
REMARK                            x       y       z     vdW  Elec       q    Type
REMARK                         _______ _______ _______ _____ _____    ______ ____
ROOT
ATOM      1  C   UNL     1       4.335   5.440  17.520  0.00  0.00    +0.000 A 
ATOM      2  C   UNL     1       4.976   4.349  16.902  0.00  0.00    +0.000 A 
ATOM      3  C   UNL     1       6.272   4.456  16.407  0.00  0.00    +0.000 A 
ATOM      4  C   UNL     1       6.967   5.653  16.530  0.00  0.00    +0.000 A 
ATOM      5  C   UNL     1       6.385   6.755  17.157  0.00  0.00    +0.000 A 
ATOM      6  C   UNL     1       5.078   6.633  17.658  0.00  0.00    +0.000 A 
ENDROOT
BRANCH   1   8
ATOM      7  C   UNL     1       2.085   6.609  17.700  0.00  0.00    +0.000 C 
ATOM      8  C   UNL     1       2.887   5.317  18.044  0.00  0.00    +0.000 C 
ATOM      9  C   UNL     1       2.171   4.140  17.351  0.00  0.00    +0.000 C 
ATOM     10  C   UNL     1       1.871   2.868  18.126  0.00  0.00    +0.000 C 
ATOM     11  S   UNL     1       2.645   2.661  19.726  0.00  0.00    +0.000 S 
ATOM     12  C   UNL     1       2.713   4.299  20.254  0.00  0.00    +0.000 C 
ATOM     13  N   UNL     1       2.721   4.441  21.601  0.00  0.00    +0.000 N 
ATOM     14  N   UNL     1       2.832   5.319  19.504  0.00  0.00    +0.000 NA
ATOM     15  H   UNL     1       2.983   3.612  22.117  0.00  0.00    +0.000 HD
ATOM     16  H   UNL     1       3.184   5.293  21.898  0.00  0.00    +0.000 HD
ENDBRANCH   1   8
BRANCH   5  17
ATOM     17  N   UNL     1       7.058   7.993  17.321  0.00  0.00    +0.000 N 
ATOM     18  C   UNL     1       8.089   8.243  18.212  0.00  0.00    +0.000 C 
ATOM     19  O   UNL     1       8.623   7.430  18.959  0.00  0.00    +0.000 OA
ATOM     20  H   UNL     1       6.708   8.757  16.758  0.00  0.00    +0.000 HD
BRANCH  18  21
ATOM     21  C   UNL     1       8.573   9.647  18.304  0.00  0.00    +0.000 A 
ATOM     22  C   UNL     1       9.511   9.927  19.311  0.00  0.00    +0.000 A 
ATOM     23  C   UNL     1       9.999  11.219  19.491  0.00  0.00    +0.000 A 
ATOM     24  C   UNL     1       9.557  12.246  18.655  0.00  0.00    +0.000 A 
ATOM     25  C   UNL     1       8.648  11.968  17.626  0.00  0.00    +0.000 A 
ATOM     26  C   UNL     1       8.157  10.669  17.445  0.00  0.00    +0.000 A 
BRANCH  24  27
ATOM     27  C   UNL     1      10.033  13.579  18.854  0.00  0.00    +0.000 C 
ATOM     28  N   UNL     1      10.431  14.660  19.020  0.00  0.00    +0.000 NA
ENDBRANCH  24  27
ENDBRANCH  18  21
ENDBRANCH   5  17
TORSDOF 4
ENDMDL
MODEL 3
REMARK VINA RESULT:      -7.7      4.778      7.166
REMARK  Name = 
REMARK  5 active torsions:
REMARK  status: ('A' for Active; 'I' for Inactive)
REMARK    1  A    between atoms: C_1  and  C_2
REMARK    2  A    between atoms: C_2  and  C_3
REMARK    3  A    between atoms: C_7  and  N_8
REMARK    4  A    between atoms: C_9  and  C_11
REMARK    5  A    between atoms: C_14  and  C_15
REMARK                            x       y       z     vdW  Elec       q    Type
REMARK                         _______ _______ _______ _____ _____    ______ ____
ROOT
ATOM      1  C   UNL     1       3.830   4.600  18.727  0.00  0.00    +0.000 A 
ATOM      2  C   UNL     1       3.798   3.379  19.427  0.00  0.00    +0.000 A 
ATOM      3  C   UNL     1       3.074   3.239  20.608  0.00  0.00    +0.000 A 
ATOM      4  C   UNL     1       2.353   4.314  21.112  0.00  0.00    +0.000 A 
ATOM      5  C   UNL     1       2.332   5.538  20.442  0.00  0.00    +0.000 A 
ATOM      6  C   UNL     1       3.062   5.665  19.248  0.00  0.00    +0.000 A 
ENDROOT
BRANCH   1   8
ATOM      7  C   UNL     1       4.047   3.860  16.305  0.00  0.00    +0.000 C 
ATOM      8  C   UNL     1       4.656   4.750  17.431  0.00  0.00    +0.000 C 
ATOM      9  C   UNL     1       4.603   6.210  16.934  0.00  0.00    +0.000 C 
ATOM     10  C   UNL     1       5.830   7.099  17.050  0.00  0.00    +0.000 C 
ATOM     11  S   UNL     1       7.194   6.516  18.050  0.00  0.00    +0.000 S 
ATOM     12  C   UNL     1       7.068   4.818  17.791  0.00  0.00    +0.000 C 
ATOM     13  N   UNL     1       8.239   4.153  17.938  0.00  0.00    +0.000 N 
ATOM     14  N   UNL     1       5.993   4.177  17.565  0.00  0.00    +0.000 NA
ATOM     15  H   UNL     1       8.951   4.649  18.455  0.00  0.00    +0.000 HD
ATOM     16  H   UNL     1       8.103   3.187  18.218  0.00  0.00    +0.000 HD
ENDBRANCH   1   8
BRANCH   5  17
ATOM     17  N   UNL     1       1.599   6.659  20.907  0.00  0.00    +0.000 N 
ATOM     18  C   UNL     1       1.561   7.907  20.307  0.00  0.00    +0.000 C 
ATOM     19  O   UNL     1       2.105   8.231  19.257  0.00  0.00    +0.000 OA
ATOM     20  H   UNL     1       1.102   6.524  21.777  0.00  0.00    +0.000 HD
BRANCH  18  21
ATOM     21  C   UNL     1       0.821   8.979  21.028  0.00  0.00    +0.000 A 
ATOM     22  C   UNL     1       0.598  10.175  20.327  0.00  0.00    +0.000 A 
ATOM     23  C   UNL     1      -0.061  11.243  20.932  0.00  0.00    +0.000 A 
ATOM     24  C   UNL     1      -0.514  11.119  22.246  0.00  0.00    +0.000 A 
ATOM     25  C   UNL     1      -0.326   9.917  22.941  0.00  0.00    +0.000 A 
ATOM     26  C   UNL     1       0.337   8.843  22.334  0.00  0.00    +0.000 A 
BRANCH  24  27
ATOM     27  C   UNL     1      -1.165  12.222  22.880  0.00  0.00    +0.000 C 
ATOM     28  N   UNL     1      -1.704  13.120  23.389  0.00  0.00    +0.000 NA
ENDBRANCH  24  27
ENDBRANCH  18  21
ENDBRANCH   5  17
TORSDOF 4
ENDMDL
MODEL 4
REMARK VINA RESULT:      -7.6      1.077      1.466
REMARK  Name = 
REMARK  5 active torsions:
REMARK  status: ('A' for Active; 'I' for Inactive)
REMARK    1  A    between atoms: C_1  and  C_2
REMARK    2  A    between atoms: C_2  and  C_3
REMARK    3  A    between atoms: C_7  and  N_8
REMARK    4  A    between atoms: C_9  and  C_11
REMARK    5  A    between atoms: C_14  and  C_15
REMARK                            x       y       z     vdW  Elec       q    Type
REMARK                         _______ _______ _______ _____ _____    ______ ____
ROOT
ATOM      1  C   UNL     1       4.366   5.352  17.525  0.00  0.00    +0.000 A 
ATOM      2  C   UNL     1       4.985   4.277  16.860  0.00  0.00    +0.000 A 
ATOM      3  C   UNL     1       6.267   4.394  16.330  0.00  0.00    +0.000 A 
ATOM      4  C   UNL     1       6.968   5.585  16.463  0.00  0.00    +0.000 A 
ATOM      5  C   UNL     1       6.408   6.672  17.136  0.00  0.00    +0.000 A 
ATOM      6  C   UNL     1       5.116   6.540  17.672  0.00  0.00    +0.000 A 
ENDROOT
BRANCH   1   8
ATOM      7  C   UNL     1       2.161   6.559  17.900  0.00  0.00    +0.000 C 
ATOM      8  C   UNL     1       2.934   5.219  18.088  0.00  0.00    +0.000 C 
ATOM      9  C   UNL     1       2.159   4.133  17.312  0.00  0.00    +0.000 C 
ATOM     10  C   UNL     1       1.847   2.801  17.972  0.00  0.00    +0.000 C 
ATOM     11  S   UNL     1       2.668   2.419  19.515  0.00  0.00    +0.000 S 
ATOM     12  C   UNL     1       2.804   3.995  20.195  0.00  0.00    +0.000 C 
ATOM     13  N   UNL     1       2.863   4.006  21.548  0.00  0.00    +0.000 N 
ATOM     14  N   UNL     1       2.929   5.080  19.542  0.00  0.00    +0.000 NA
ATOM     15  H   UNL     1       3.117   3.124  21.972  0.00  0.00    +0.000 HD
ATOM     16  H   UNL     1       3.362   4.812  21.908  0.00  0.00    +0.000 HD
ENDBRANCH   1   8
BRANCH   5  17
ATOM     17  N   UNL     1       7.089   7.904  17.312  0.00  0.00    +0.000 N 
ATOM     18  C   UNL     1       8.082   8.155  18.245  0.00  0.00    +0.000 C 
ATOM     19  O   UNL     1       8.570   7.347  19.028  0.00  0.00    +0.000 OA
ATOM     20  H   UNL     1       6.775   8.663  16.722  0.00  0.00    +0.000 HD
BRANCH  18  21
ATOM     21  C   UNL     1       8.579   9.554  18.340  0.00  0.00    +0.000 A 
ATOM     22  C   UNL     1       7.957  10.503  17.512  0.00  0.00    +0.000 A 
ATOM     23  C   UNL     1       8.376  11.831  17.512  0.00  0.00    +0.000 A 
ATOM     24  C   UNL     1       9.418  12.226  18.351  0.00  0.00    +0.000 A 
ATOM     25  C   UNL     1      10.021  11.294  19.205  0.00  0.00    +0.000 A 
ATOM     26  C   UNL     1       9.601   9.958  19.205  0.00  0.00    +0.000 A 
BRANCH  24  27
ATOM     27  C   UNL     1       9.870  13.582  18.333  0.00  0.00    +0.000 C 
ATOM     28  N   UNL     1      10.248  14.683  18.313  0.00  0.00    +0.000 NA
ENDBRANCH  24  27
ENDBRANCH  18  21
ENDBRANCH   5  17
TORSDOF 4
ENDMDL
MODEL 5
REMARK VINA RESULT:      -7.5      5.562      7.071
REMARK  Name = 
REMARK  5 active torsions:
REMARK  status: ('A' for Active; 'I' for Inactive)
REMARK    1  A    between atoms: C_1  and  C_2
REMARK    2  A    between atoms: C_2  and  C_3
REMARK    3  A    between atoms: C_7  and  N_8
REMARK    4  A    between atoms: C_9  and  C_11
REMARK    5  A    between atoms: C_14  and  C_15
REMARK                            x       y       z     vdW  Elec       q    Type
REMARK                         _______ _______ _______ _____ _____    ______ ____
ROOT
ATOM      1  C   UNL     1       2.329   5.148  19.637  0.00  0.00    +0.000 A 
ATOM      2  C   UNL     1       3.129   5.436  18.515  0.00  0.00    +0.000 A 
ATOM      3  C   UNL     1       3.294   6.741  18.059  0.00  0.00    +0.000 A 
ATOM      4  C   UNL     1       2.675   7.793  18.722  0.00  0.00    +0.000 A 
ATOM      5  C   UNL     1       1.893   7.562  19.854  0.00  0.00    +0.000 A 
ATOM      6  C   UNL     1       1.739   6.241  20.309  0.00  0.00    +0.000 A 
ENDROOT
BRANCH   1   8
ATOM      7  C   UNL     1       1.463   3.685  21.527  0.00  0.00    +0.000 C 
ATOM      8  C   UNL     1       2.134   3.694  20.119  0.00  0.00    +0.000 C 
ATOM      9  C   UNL     1       1.188   2.940  19.161  0.00  0.00    +0.000 C 
ATOM     10  C   UNL     1       1.738   1.873  18.231  0.00  0.00    +0.000 C 
ATOM     11  S   UNL     1       3.515   1.751  18.054  0.00  0.00    +0.000 S 
ATOM     12  C   UNL     1       4.018   2.222  19.632  0.00  0.00    +0.000 C 
ATOM     13  N   UNL     1       5.220   1.717  19.998  0.00  0.00    +0.000 N 
ATOM     14  N   UNL     1       3.407   3.034  20.398  0.00  0.00    +0.000 NA
ATOM     15  H   UNL     1       5.797   1.391  19.236  0.00  0.00    +0.000 HD
ATOM     16  H   UNL     1       5.697   2.303  20.675  0.00  0.00    +0.000 HD
ENDBRANCH   1   8
BRANCH   5  17
ATOM     17  N   UNL     1       1.254   8.602  20.576  0.00  0.00    +0.000 N 
ATOM     18  C   UNL     1       0.505   9.629  20.024  0.00  0.00    +0.000 C 
ATOM     19  O   UNL     1       0.227   9.776  18.839  0.00  0.00    +0.000 OA
ATOM     20  H   UNL     1       1.408   8.598  21.575  0.00  0.00    +0.000 HD
BRANCH  18  21
ATOM     21  C   UNL     1       0.021  10.684  20.956  0.00  0.00    +0.000 A 
ATOM     22  C   UNL     1       0.304  12.014  20.604  0.00  0.00    +0.000 A 
ATOM     23  C   UNL     1      -0.085  13.067  21.430  0.00  0.00    +0.000 A 
ATOM     24  C   UNL     1      -0.772  12.797  22.614  0.00  0.00    +0.000 A 
ATOM     25  C   UNL     1      -1.089  11.476  22.955  0.00  0.00    +0.000 A 
ATOM     26  C   UNL     1      -0.697  10.417  22.125  0.00  0.00    +0.000 A 
BRANCH  24  27
ATOM     27  C   UNL     1      -1.148  13.872  23.478  0.00  0.00    +0.000 C 
ATOM     28  N   UNL     1      -1.443  14.751  24.183  0.00  0.00    +0.000 NA
ENDBRANCH  24  27
ENDBRANCH  18  21
ENDBRANCH   5  17
TORSDOF 4
ENDMDL
MODEL 6
REMARK VINA RESULT:      -7.5      6.304      7.945
REMARK  Name = 
REMARK  5 active torsions:
REMARK  status: ('A' for Active; 'I' for Inactive)
REMARK    1  A    between atoms: C_1  and  C_2
REMARK    2  A    between atoms: C_2  and  C_3
REMARK    3  A    between atoms: C_7  and  N_8
REMARK    4  A    between atoms: C_9  and  C_11
REMARK    5  A    between atoms: C_14  and  C_15
REMARK                            x       y       z     vdW  Elec       q    Type
REMARK                         _______ _______ _______ _____ _____    ______ ____
ROOT
ATOM      1  C   UNL     1       2.486   6.648  19.011  0.00  0.00    +0.000 A 
ATOM      2  C   UNL     1       3.100   7.163  17.854  0.00  0.00    +0.000 A 
ATOM      3  C   UNL     1       2.903   8.481  17.454  0.00  0.00    +0.000 A 
ATOM      4  C   UNL     1       2.097   9.324  18.210  0.00  0.00    +0.000 A 
ATOM      5  C   UNL     1       1.487   8.868  19.379  0.00  0.00    +0.000 A 
ATOM      6  C   UNL     1       1.699   7.536  19.776  0.00  0.00    +0.000 A 
ENDROOT
BRANCH   1   8
ATOM      7  C   UNL     1       2.205   4.966  20.897  0.00  0.00    +0.000 C 
ATOM      8  C   UNL     1       2.693   5.176  19.431  0.00  0.00    +0.000 C 
ATOM      9  C   UNL     1       1.851   4.245  18.534  0.00  0.00    +0.000 C 
ATOM     10  C   UNL     1       2.531   3.368  17.496  0.00  0.00    +0.000 C 
ATOM     11  S   UNL     1       4.255   3.681  17.135  0.00  0.00    +0.000 S 
ATOM     12  C   UNL     1       4.805   4.214  18.677  0.00  0.00    +0.000 C 
ATOM     13  N   UNL     1       6.126   4.002  18.892  0.00  0.00    +0.000 N 
ATOM     14  N   UNL     1       4.109   4.834  19.543  0.00  0.00    +0.000 NA
ATOM     15  H   UNL     1       6.675   3.846  18.058  0.00  0.00    +0.000 HD
ATOM     16  H   UNL     1       6.523   4.666  19.547  0.00  0.00    +0.000 HD
ENDBRANCH   1   8
BRANCH   5  17
ATOM     17  N   UNL     1       0.669   9.692  20.194  0.00  0.00    +0.000 N 
ATOM     18  C   UNL     1      -0.490  10.335  19.791  0.00  0.00    +0.000 C 
ATOM     19  O   UNL     1      -1.025  10.256  18.691  0.00  0.00    +0.000 OA
ATOM     20  H   UNL     1       1.004   9.843  21.136  0.00  0.00    +0.000 HD
BRANCH  18  21
ATOM     21  C   UNL     1      -1.131  11.248  20.776  0.00  0.00    +0.000 A 
ATOM     22  C   UNL     1      -0.785  11.065  22.125  0.00  0.00    +0.000 A 
ATOM     23  C   UNL     1      -1.357  11.855  23.120  0.00  0.00    +0.000 A 
ATOM     24  C   UNL     1      -2.276  12.846  22.771  0.00  0.00    +0.000 A 
ATOM     25  C   UNL     1      -2.599  13.058  21.425  0.00  0.00    +0.000 A 
ATOM     26  C   UNL     1      -2.025  12.264  20.425  0.00  0.00    +0.000 A 
BRANCH  24  27
ATOM     27  C   UNL     1      -2.886  13.639  23.791  0.00  0.00    +0.000 C 
ATOM     28  N   UNL     1      -3.378  14.295  24.618  0.00  0.00    +0.000 NA
ENDBRANCH  24  27
ENDBRANCH  18  21
ENDBRANCH   5  17
TORSDOF 4
ENDMDL
MODEL 7
REMARK VINA RESULT:      -7.5      6.180      8.058
REMARK  Name = 
REMARK  5 active torsions:
REMARK  status: ('A' for Active; 'I' for Inactive)
REMARK    1  A    between atoms: C_1  and  C_2
REMARK    2  A    between atoms: C_2  and  C_3
REMARK    3  A    between atoms: C_7  and  N_8
REMARK    4  A    between atoms: C_9  and  C_11
REMARK    5  A    between atoms: C_14  and  C_15
REMARK                            x       y       z     vdW  Elec       q    Type
REMARK                         _______ _______ _______ _____ _____    ______ ____
ROOT
ATOM      1  C   UNL     1       2.440   6.721  18.987  0.00  0.00    +0.000 A 
ATOM      2  C   UNL     1       3.225   7.232  17.935  0.00  0.00    +0.000 A 
ATOM      3  C   UNL     1       3.079   8.544  17.494  0.00  0.00    +0.000 A 
ATOM      4  C   UNL     1       2.155   9.384  18.103  0.00  0.00    +0.000 A 
ATOM      5  C   UNL     1       1.372   8.933  19.166  0.00  0.00    +0.000 A 
ATOM      6  C   UNL     1       1.532   7.608  19.606  0.00  0.00    +0.000 A 
ENDROOT
BRANCH   1   8
ATOM      7  C   UNL     1       2.076   5.105  20.915  0.00  0.00    +0.000 C 
ATOM      8  C   UNL     1       2.594   5.257  19.452  0.00  0.00    +0.000 C 
ATOM      9  C   UNL     1       1.736   4.327  18.569  0.00  0.00    +0.000 C 
ATOM     10  C   UNL     1       2.403   3.399  17.568  0.00  0.00    +0.000 C 
ATOM     11  S   UNL     1       4.142   3.647  17.226  0.00  0.00    +0.000 S 
ATOM     12  C   UNL     1       4.685   4.207  18.761  0.00  0.00    +0.000 C 
ATOM     13  N   UNL     1       5.995   3.959  19.003  0.00  0.00    +0.000 N 
ATOM     14  N   UNL     1       3.996   4.873  19.597  0.00  0.00    +0.000 NA
ATOM     15  H   UNL     1       6.551   3.762  18.183  0.00  0.00    +0.000 HD
ATOM     16  H   UNL     1       6.403   4.630  19.645  0.00  0.00    +0.000 HD
ENDBRANCH   1   8
BRANCH   5  17
ATOM     17  N   UNL     1       0.426   9.754  19.830  0.00  0.00    +0.000 N 
ATOM     18  C   UNL     1       0.532  10.223  21.130  0.00  0.00    +0.000 C 
ATOM     19  O   UNL     1       1.475  10.052  21.895  0.00  0.00    +0.000 OA
ATOM     20  H   UNL     1      -0.410   9.970  19.304  0.00  0.00    +0.000 HD
BRANCH  18  21
ATOM     21  C   UNL     1      -0.634  10.974  21.671  0.00  0.00    +0.000 A 
ATOM     22  C   UNL     1      -1.319  11.809  20.774  0.00  0.00    +0.000 A 
ATOM     23  C   UNL     1      -2.405  12.572  21.198  0.00  0.00    +0.000 A 
ATOM     24  C   UNL     1      -2.821  12.499  22.528  0.00  0.00    +0.000 A 
ATOM     25  C   UNL     1      -2.164  11.643  23.422  0.00  0.00    +0.000 A 
ATOM     26  C   UNL     1      -1.073  10.876  22.996  0.00  0.00    +0.000 A 
BRANCH  24  27
ATOM     27  C   UNL     1      -3.916  13.302  22.975  0.00  0.00    +0.000 C 
ATOM     28  N   UNL     1      -4.801  13.963  23.345  0.00  0.00    +0.000 NA
ENDBRANCH  24  27
ENDBRANCH  18  21
ENDBRANCH   5  17
TORSDOF 4
ENDMDL
MODEL 8
REMARK VINA RESULT:      -7.5      4.360      6.846
REMARK  Name = 
REMARK  5 active torsions:
REMARK  status: ('A' for Active; 'I' for Inactive)
REMARK    1  A    between atoms: C_1  and  C_2
REMARK    2  A    between atoms: C_2  and  C_3
REMARK    3  A    between atoms: C_7  and  N_8
REMARK    4  A    between atoms: C_9  and  C_11
REMARK    5  A    between atoms: C_14  and  C_15
REMARK                            x       y       z     vdW  Elec       q    Type
REMARK                         _______ _______ _______ _____ _____    ______ ____
ROOT
ATOM      1  C   UNL     1       4.198   4.712  17.117  0.00  0.00    +0.000 A 
ATOM      2  C   UNL     1       3.661   3.411  17.106  0.00  0.00    +0.000 A 
ATOM      3  C   UNL     1       2.513   3.096  17.828  0.00  0.00    +0.000 A 
ATOM      4  C   UNL     1       1.865   4.077  18.568  0.00  0.00    +0.000 A 
ATOM      5  C   UNL     1       2.344   5.388  18.590  0.00  0.00    +0.000 A 
ATOM      6  C   UNL     1       3.501   5.695  17.852  0.00  0.00    +0.000 A 
ENDROOT
BRANCH   1   8
ATOM      7  C   UNL     1       5.407   4.438  14.897  0.00  0.00    +0.000 C 
ATOM      8  C   UNL     1       5.486   5.045  16.331  0.00  0.00    +0.000 C 
ATOM      9  C   UNL     1       5.630   6.572  16.171  0.00  0.00    +0.000 C 
ATOM     10  C   UNL     1       6.689   7.325  16.958  0.00  0.00    +0.000 C 
ATOM     11  S   UNL     1       7.522   6.456  18.282  0.00  0.00    +0.000 S 
ATOM     12  C   UNL     1       7.531   4.855  17.648  0.00  0.00    +0.000 C 
ATOM     13  N   UNL     1       8.541   4.085  18.118  0.00  0.00    +0.000 N 
ATOM     14  N   UNL     1       6.652   4.355  16.877  0.00  0.00    +0.000 NA
ATOM     15  H   UNL     1       8.971   4.416  18.971  0.00  0.00    +0.000 HD
ATOM     16  H   UNL     1       8.311   3.097  18.112  0.00  0.00    +0.000 HD
ENDBRANCH   1   8
BRANCH   5  17
ATOM     17  N   UNL     1       1.711   6.428  19.316  0.00  0.00    +0.000 N 
ATOM     18  C   UNL     1       1.934   7.785  19.148  0.00  0.00    +0.000 C 
ATOM     19  O   UNL     1       2.667   8.308  18.316  0.00  0.00    +0.000 OA
ATOM     20  H   UNL     1       1.076   6.128  20.044  0.00  0.00    +0.000 HD
BRANCH  18  21
ATOM     21  C   UNL     1       1.249   8.703  20.099  0.00  0.00    +0.000 A 
ATOM     22  C   UNL     1       0.627   9.835  19.547  0.00  0.00    +0.000 A 
ATOM     23  C   UNL     1      -0.013  10.764  20.364  0.00  0.00    +0.000 A 
ATOM     24  C   UNL     1      -0.047  10.562  21.744  0.00  0.00    +0.000 A 
ATOM     25  C   UNL     1       0.541   9.418  22.299  0.00  0.00    +0.000 A 
ATOM     26  C   UNL     1       1.186   8.484  21.479  0.00  0.00    +0.000 A 
BRANCH  24  27
ATOM     27  C   UNL     1      -0.678  11.527  22.588  0.00  0.00    +0.000 C 
ATOM     28  N   UNL     1      -1.199  12.305  23.282  0.00  0.00    +0.000 NA
ENDBRANCH  24  27
ENDBRANCH  18  21
ENDBRANCH   5  17
TORSDOF 4
ENDMDL
MODEL 9
REMARK VINA RESULT:      -7.4      6.250      7.595
REMARK  Name = 
REMARK  5 active torsions:
REMARK  status: ('A' for Active; 'I' for Inactive)
REMARK    1  A    between atoms: C_1  and  C_2
REMARK    2  A    between atoms: C_2  and  C_3
REMARK    3  A    between atoms: C_7  and  N_8
REMARK    4  A    between atoms: C_9  and  C_11
REMARK    5  A    between atoms: C_14  and  C_15
REMARK                            x       y       z     vdW  Elec       q    Type
REMARK                         _______ _______ _______ _____ _____    ______ ____
ROOT
ATOM      1  C   UNL     1       2.378   6.637  19.125  0.00  0.00    +0.000 A 
ATOM      2  C   UNL     1       2.777   7.056  17.842  0.00  0.00    +0.000 A 
ATOM      3  C   UNL     1       2.590   8.368  17.418  0.00  0.00    +0.000 A 
ATOM      4  C   UNL     1       2.010   9.299  18.271  0.00  0.00    +0.000 A 
ATOM      5  C   UNL     1       1.620   8.938  19.562  0.00  0.00    +0.000 A 
ATOM      6  C   UNL     1       1.820   7.612  19.981  0.00  0.00    +0.000 A 
ENDROOT
BRANCH   1   8
ATOM      7  C   UNL     1       2.103   5.004  21.055  0.00  0.00    +0.000 C 
ATOM      8  C   UNL     1       2.569   5.172  19.576  0.00  0.00    +0.000 C 
ATOM      9  C   UNL     1       1.696   4.234  18.716  0.00  0.00    +0.000 C 
ATOM     10  C   UNL     1       2.343   3.322  17.687  0.00  0.00    +0.000 C 
ATOM     11  S   UNL     1       4.065   3.599  17.289  0.00  0.00    +0.000 S 
ATOM     12  C   UNL     1       4.651   4.158  18.808  0.00  0.00    +0.000 C 
ATOM     13  N   UNL     1       5.972   3.930  19.004  0.00  0.00    +0.000 N 
ATOM     14  N   UNL     1       3.980   4.809  19.671  0.00  0.00    +0.000 NA
ATOM     15  H   UNL     1       6.504   3.745  18.165  0.00  0.00    +0.000 HD
ATOM     16  H   UNL     1       6.392   4.603  19.637  0.00  0.00    +0.000 HD
ENDBRANCH   1   8
BRANCH   5  17
ATOM     17  N   UNL     1       1.038   9.854  20.476  0.00  0.00    +0.000 N 
ATOM     18  C   UNL     1      -0.220  10.423  20.362  0.00  0.00    +0.000 C 
ATOM     19  O   UNL     1      -1.051  10.192  19.492  0.00  0.00    +0.000 OA
ATOM     20  H   UNL     1       1.629  10.133  21.248  0.00  0.00    +0.000 HD
BRANCH  18  21
ATOM     21  C   UNL     1      -0.586  11.452  21.374  0.00  0.00    +0.000 A 
ATOM     22  C   UNL     1      -0.002  12.721  21.224  0.00  0.00    +0.000 A 
ATOM     23  C   UNL     1      -0.265  13.737  22.140  0.00  0.00    +0.000 A 
ATOM     24  C   UNL     1      -1.126  13.496  23.211  0.00  0.00    +0.000 A 
ATOM     25  C   UNL     1      -1.739  12.244  23.348  0.00  0.00    +0.000 A 
ATOM     26  C   UNL     1      -1.475  11.221  22.428  0.00  0.00    +0.000 A 
BRANCH  24  27
ATOM     27  C   UNL     1      -1.375  14.527  24.168  0.00  0.00    +0.000 C 
ATOM     28  N   UNL     1      -1.577  15.376  24.940  0.00  0.00    +0.000 NA
ENDBRANCH  24  27
ENDBRANCH  18  21
ENDBRANCH   5  17
TORSDOF 4
ENDMDL
