MODEL 1
REMARK VINA RESULT:      -8.3      0.000      0.000
REMARK  Name = 
REMARK  5 active torsions:
REMARK  status: ('A' for Active; 'I' for Inactive)
REMARK    1  A    between atoms: C_2  and  C_3
REMARK    2  A    between atoms: C_3  and  N_4
REMARK    3  A    between atoms: C_7  and  N_8
REMARK    4  A    between atoms: N_19  and  C_20
REMARK    5  A    between atoms: N_19  and  C_26
REMARK                            x       y       z     vdW  Elec       q    Type
REMARK                         _______ _______ _______ _____ _____    ______ ____
ROOT
ATOM      1  C   UNL     1       2.195   6.802  18.685  0.00  0.00    +0.000 C 
ENDROOT
BRANCH   1   2
ATOM      2  N   UNL     1       2.289   8.252  19.063  0.00  0.00    +0.000 NA
ATOM      3  C   UNL     1       2.201   9.100  17.863  0.00  0.00    +0.000 C 
ATOM      4  C   UNL     1       1.930  10.577  18.168  0.00  0.00    +0.000 C 
ATOM      5  C   UNL     1       0.734  10.784  19.103  0.00  0.00    +0.000 C 
ATOM      6  C   UNL     1       0.958   9.958  20.370  0.00  0.00    +0.000 C 
ATOM      7  C   UNL     1       1.221   8.490  20.054  0.00  0.00    +0.000 C 
BRANCH   5   8
ATOM      8  N   UNL     1      -0.558  10.541  18.470  0.00  0.00    +0.000 N 
ATOM      9  N   UNL     1      -0.669   9.654  17.458  0.00  0.00    +0.000 NA
ATOM     10  N   UNL     1      -1.929   9.634  17.056  0.00  0.00    +0.000 NA
ATOM     11  C   UNL     1      -2.629  10.511  17.831  0.00  0.00    +0.000 A 
ATOM     12  C   UNL     1      -3.989  10.849  17.804  0.00  0.00    +0.000 A 
ATOM     13  C   UNL     1      -4.459  11.788  18.729  0.00  0.00    +0.000 A 
ATOM     14  C   UNL     1      -3.593  12.374  19.653  0.00  0.00    +0.000 A 
ATOM     15  C   UNL     1      -2.230  12.048  19.690  0.00  0.00    +0.000 A 
ATOM     16  C   UNL     1      -1.777  11.108  18.758  0.00  0.00    +0.000 A 
ENDBRANCH   5   8
ENDBRANCH   1   2
BRANCH   1  18
ATOM     17  O   UNL     1       4.358   6.243  19.518  0.00  0.00    +0.000 OA
ATOM     18  C   UNL     1       3.488   5.985  18.689  0.00  0.00    +0.000 C 
ATOM     19  N   UNL     1       3.614   4.928  17.696  0.00  0.00    +0.000 N 
BRANCH  19  20
ATOM     20  C   UNL     1       4.995   4.247  17.700  0.00  0.00    +0.000 C 
ATOM     21  C   UNL     1       5.366   3.449  16.426  0.00  0.00    +0.000 C 
ATOM     22  C   UNL     1       5.401   4.357  15.201  0.00  0.00    +0.000 C 
ATOM     23  C   UNL     1       6.507   5.397  15.334  0.00  0.00    +0.000 C 
ATOM     24  C   UNL     1       6.422   6.135  16.670  0.00  0.00    +0.000 C 
ATOM     25  C   UNL     1       6.259   5.164  17.845  0.00  0.00    +0.000 C 
ENDBRANCH  19  20
BRANCH  19  26
ATOM     26  C   UNL     1       2.350   4.078  17.466  0.00  0.00    +0.000 C 
ATOM     27  C   UNL     1       2.503   2.532  17.358  0.00  0.00    +0.000 C 
ATOM     28  C   UNL     1       2.945   1.918  18.673  0.00  0.00    +0.000 C 
ATOM     29  C   UNL     1       1.814   2.046  19.684  0.00  0.00    +0.000 C 
ATOM     30  C   UNL     1       1.288   3.475  19.784  0.00  0.00    +0.000 C 
ATOM     31  C   UNL     1       1.148   4.224  18.440  0.00  0.00    +0.000 C 
ENDBRANCH  19  26
ENDBRANCH   1  18
TORSDOF 5
ENDMDL
MODEL 2
REMARK VINA RESULT:      -7.9      1.205      1.788
REMARK  Name = 
REMARK  5 active torsions:
REMARK  status: ('A' for Active; 'I' for Inactive)
REMARK    1  A    between atoms: C_2  and  C_3
REMARK    2  A    between atoms: C_3  and  N_4
REMARK    3  A    between atoms: C_7  and  N_8
REMARK    4  A    between atoms: N_19  and  C_20
REMARK    5  A    between atoms: N_19  and  C_26
REMARK                            x       y       z     vdW  Elec       q    Type
REMARK                         _______ _______ _______ _____ _____    ______ ____
ROOT
ATOM      1  C   UNL     1       1.917   7.607  18.413  0.00  0.00    +0.000 C 
ENDROOT
BRANCH   1   2
ATOM      2  N   UNL     1       1.891   8.962  19.057  0.00  0.00    +0.000 NA
ATOM      3  C   UNL     1       1.766  10.012  18.033  0.00  0.00    +0.000 C 
ATOM      4  C   UNL     1       1.375  11.383  18.597  0.00  0.00    +0.000 C 
ATOM      5  C   UNL     1       0.146  11.325  19.508  0.00  0.00    +0.000 C 
ATOM      6  C   UNL     1       0.403  10.294  20.608  0.00  0.00    +0.000 C 
ATOM      7  C   UNL     1       0.785   8.933  20.034  0.00  0.00    +0.000 C 
BRANCH   5   8
ATOM      8  N   UNL     1      -1.109  11.114  18.794  0.00  0.00    +0.000 N 
ATOM      9  N   UNL     1      -1.149  10.327  17.697  0.00  0.00    +0.000 NA
ATOM     10  N   UNL     1      -2.387  10.317  17.234  0.00  0.00    +0.000 NA
ATOM     11  C   UNL     1      -3.147  11.097  18.055  0.00  0.00    +0.000 A 
ATOM     12  C   UNL     1      -4.513  11.404  17.996  0.00  0.00    +0.000 A 
ATOM     13  C   UNL     1      -5.052  12.237  18.983  0.00  0.00    +0.000 A 
ATOM     14  C   UNL     1      -4.246  12.750  20.000  0.00  0.00    +0.000 A 
ATOM     15  C   UNL     1      -2.877  12.454  20.071  0.00  0.00    +0.000 A 
ATOM     16  C   UNL     1      -2.356  11.622  19.075  0.00  0.00    +0.000 A 
ENDBRANCH   5   8
ENDBRANCH   1   2
BRANCH   1  18
ATOM     17  O   UNL     1       4.269   7.305  18.156  0.00  0.00    +0.000 OA
ATOM     18  C   UNL     1       3.211   6.797  18.522  0.00  0.00    +0.000 C 
ATOM     19  N   UNL     1       3.113   5.451  19.067  0.00  0.00    +0.000 N 
BRANCH  19  20
ATOM     20  C   UNL     1       4.442   4.676  19.022  0.00  0.00    +0.000 C 
ATOM     21  C   UNL     1       4.337   3.155  18.751  0.00  0.00    +0.000 C 
ATOM     22  C   UNL     1       3.698   2.883  17.393  0.00  0.00    +0.000 C 
ATOM     23  C   UNL     1       4.584   3.408  16.270  0.00  0.00    +0.000 C 
ATOM     24  C   UNL     1       4.979   4.866  16.505  0.00  0.00    +0.000 C 
ATOM     25  C   UNL     1       5.491   5.091  17.931  0.00  0.00    +0.000 C 
ENDBRANCH  19  20
BRANCH  19  26
ATOM     26  C   UNL     1       2.184   5.293  20.286  0.00  0.00    +0.000 C 
ATOM     27  C   UNL     1       0.764   4.691  20.065  0.00  0.00    +0.000 C 
ATOM     28  C   UNL     1       0.832   3.233  19.649  0.00  0.00    +0.000 C 
ATOM     29  C   UNL     1       1.339   2.407  20.822  0.00  0.00    +0.000 C 
ATOM     30  C   UNL     1       2.629   2.970  21.410  0.00  0.00    +0.000 C 
ATOM     31  C   UNL     1       2.686   4.509  21.529  0.00  0.00    +0.000 C 
ENDBRANCH  19  26
ENDBRANCH   1  18
TORSDOF 5
ENDMDL
MODEL 3
REMARK VINA RESULT:      -7.8      1.006      1.417
REMARK  Name = 
REMARK  5 active torsions:
REMARK  status: ('A' for Active; 'I' for Inactive)
REMARK    1  A    between atoms: C_2  and  C_3
REMARK    2  A    between atoms: C_3  and  N_4
REMARK    3  A    between atoms: C_7  and  N_8
REMARK    4  A    between atoms: N_19  and  C_20
REMARK    5  A    between atoms: N_19  and  C_26
REMARK                            x       y       z     vdW  Elec       q    Type
REMARK                         _______ _______ _______ _____ _____    ______ ____
ROOT
ATOM      1  C   UNL     1       2.233   7.684  18.139  0.00  0.00    +0.000 C 
ENDROOT
BRANCH   1   2
ATOM      2  N   UNL     1       2.051   8.978  18.877  0.00  0.00    +0.000 NA
ATOM      3  C   UNL     1       1.873  10.088  17.926  0.00  0.00    +0.000 C 
ATOM      4  C   UNL     1       1.331  11.371  18.566  0.00  0.00    +0.000 C 
ATOM      5  C   UNL     1       0.073  11.132  19.406  0.00  0.00    +0.000 C 
ATOM      6  C   UNL     1       0.376  10.047  20.440  0.00  0.00    +0.000 C 
ATOM      7  C   UNL     1       0.910   8.775  19.790  0.00  0.00    +0.000 C 
BRANCH   5   8
ATOM      8  N   UNL     1      -1.123  10.865  18.614  0.00  0.00    +0.000 N 
ATOM      9  N   UNL     1      -1.072  10.024  17.559  0.00  0.00    +0.000 NA
ATOM     10  N   UNL     1      -2.273   9.968  17.009  0.00  0.00    +0.000 NA
ATOM     11  C   UNL     1      -3.102  10.775  17.733  0.00  0.00    +0.000 A 
ATOM     12  C   UNL     1      -4.464  11.054  17.559  0.00  0.00    +0.000 A 
ATOM     13  C   UNL     1      -5.085  11.925  18.462  0.00  0.00    +0.000 A 
ATOM     14  C   UNL     1      -4.362  12.502  19.507  0.00  0.00    +0.000 A 
ATOM     15  C   UNL     1      -2.998  12.234  19.691  0.00  0.00    +0.000 A 
ATOM     16  C   UNL     1      -2.394  11.363  18.779  0.00  0.00    +0.000 A 
ENDBRANCH   5   8
ENDBRANCH   1   2
BRANCH   1  18
ATOM     17  O   UNL     1       4.568   7.964  17.742  0.00  0.00    +0.000 OA
ATOM     18  C   UNL     1       3.662   7.164  17.966  0.00  0.00    +0.000 C 
ATOM     19  N   UNL     1       3.869   5.728  18.085  0.00  0.00    +0.000 N 
BRANCH  19  20
ATOM     20  C   UNL     1       5.312   5.291  17.775  0.00  0.00    +0.000 C 
ATOM     21  C   UNL     1       5.488   3.852  17.231  0.00  0.00    +0.000 C 
ATOM     22  C   UNL     1       4.750   3.672  15.908  0.00  0.00    +0.000 C 
ATOM     23  C   UNL     1       5.356   4.563  14.830  0.00  0.00    +0.000 C 
ATOM     24  C   UNL     1       5.470   6.012  15.301  0.00  0.00    +0.000 C 
ATOM     25  C   UNL     1       6.104   6.107  16.693  0.00  0.00    +0.000 C 
ENDBRANCH  19  20
BRANCH  19  26
ATOM     26  C   UNL     1       3.096   5.037  19.224  0.00  0.00    +0.000 C 
ATOM     27  C   UNL     1       1.654   4.522  18.938  0.00  0.00    +0.000 C 
ATOM     28  C   UNL     1       1.655   3.375  17.944  0.00  0.00    +0.000 C 
ATOM     29  C   UNL     1       2.294   2.157  18.595  0.00  0.00    +0.000 C 
ATOM     30  C   UNL     1       3.653   2.477  19.210  0.00  0.00    +0.000 C 
ATOM     31  C   UNL     1       3.740   3.827  19.956  0.00  0.00    +0.000 C 
ENDBRANCH  19  26
ENDBRANCH   1  18
TORSDOF 5
ENDMDL
MODEL 4
REMARK VINA RESULT:      -7.7      2.439      4.656
REMARK  Name = 
REMARK  5 active torsions:
REMARK  status: ('A' for Active; 'I' for Inactive)
REMARK    1  A    between atoms: C_2  and  C_3
REMARK    2  A    between atoms: C_3  and  N_4
REMARK    3  A    between atoms: C_7  and  N_8
REMARK    4  A    between atoms: N_19  and  C_20
REMARK    5  A    between atoms: N_19  and  C_26
REMARK                            x       y       z     vdW  Elec       q    Type
REMARK                         _______ _______ _______ _____ _____    ______ ____
ROOT
ATOM      1  C   UNL     1       2.615   7.639  18.489  0.00  0.00    +0.000 C 
ENDROOT
BRANCH   1   2
ATOM      2  N   UNL     1       1.384   8.347  18.976  0.00  0.00    +0.000 NA
ATOM      3  C   UNL     1       1.656   9.021  20.257  0.00  0.00    +0.000 C 
ATOM      4  C   UNL     1       0.593  10.051  20.652  0.00  0.00    +0.000 C 
ATOM      5  C   UNL     1       0.286  11.052  19.534  0.00  0.00    +0.000 C 
ATOM      6  C   UNL     1      -0.095  10.273  18.274  0.00  0.00    +0.000 C 
ATOM      7  C   UNL     1       0.974   9.256  17.888  0.00  0.00    +0.000 C 
BRANCH   5   8
ATOM      8  N   UNL     1       1.344  12.033  19.315  0.00  0.00    +0.000 N 
ATOM      9  N   UNL     1       2.155  11.937  18.240  0.00  0.00    +0.000 NA
ATOM     10  N   UNL     1       3.029  12.928  18.284  0.00  0.00    +0.000 NA
ATOM     11  C   UNL     1       2.760  13.672  19.396  0.00  0.00    +0.000 A 
ATOM     12  C   UNL     1       3.395  14.821  19.885  0.00  0.00    +0.000 A 
ATOM     13  C   UNL     1       2.908  15.400  21.063  0.00  0.00    +0.000 A 
ATOM     14  C   UNL     1       1.818  14.843  21.733  0.00  0.00    +0.000 A 
ATOM     15  C   UNL     1       1.175  13.691  21.257  0.00  0.00    +0.000 A 
ATOM     16  C   UNL     1       1.676  13.126  20.080  0.00  0.00    +0.000 A 
ENDBRANCH   5   8
ENDBRANCH   1   2
BRANCH   1  18
ATOM     17  O   UNL     1       1.328   5.738  17.841  0.00  0.00    +0.000 OA
ATOM     18  C   UNL     1       2.457   6.192  18.016  0.00  0.00    +0.000 C 
ATOM     19  N   UNL     1       3.674   5.425  17.791  0.00  0.00    +0.000 N 
BRANCH  19  20
ATOM     20  C   UNL     1       3.411   3.951  17.437  0.00  0.00    +0.000 C 
ATOM     21  C   UNL     1       4.395   2.918  18.040  0.00  0.00    +0.000 C 
ATOM     22  C   UNL     1       4.357   2.949  19.564  0.00  0.00    +0.000 C 
ATOM     23  C   UNL     1       2.990   2.514  20.076  0.00  0.00    +0.000 C 
ATOM     24  C   UNL     1       1.865   3.295  19.398  0.00  0.00    +0.000 C 
ATOM     25  C   UNL     1       2.038   3.330  17.876  0.00  0.00    +0.000 C 
ENDBRANCH  19  20
BRANCH  19  26
ATOM     26  C   UNL     1       4.816   6.183  17.087  0.00  0.00    +0.000 C 
ATOM     27  C   UNL     1       6.115   6.484  17.891  0.00  0.00    +0.000 C 
ATOM     28  C   UNL     1       6.871   5.214  18.233  0.00  0.00    +0.000 C 
ATOM     29  C   UNL     1       7.433   4.613  16.953  0.00  0.00    +0.000 C 
ATOM     30  C   UNL     1       6.368   4.457  15.871  0.00  0.00    +0.000 C 
ATOM     31  C   UNL     1       5.377   5.635  15.745  0.00  0.00    +0.000 C 
ENDBRANCH  19  26
ENDBRANCH   1  18
TORSDOF 5
ENDMDL
MODEL 5
REMARK VINA RESULT:      -7.6      2.399      4.750
REMARK  Name = 
REMARK  5 active torsions:
REMARK  status: ('A' for Active; 'I' for Inactive)
REMARK    1  A    between atoms: C_2  and  C_3
REMARK    2  A    between atoms: C_3  and  N_4
REMARK    3  A    between atoms: C_7  and  N_8
REMARK    4  A    between atoms: N_19  and  C_20
REMARK    5  A    between atoms: N_19  and  C_26
REMARK                            x       y       z     vdW  Elec       q    Type
REMARK                         _______ _______ _______ _____ _____    ______ ____
ROOT
ATOM      1  C   UNL     1       2.503   7.487  18.488  0.00  0.00    +0.000 C 
ENDROOT
BRANCH   1   2
ATOM      2  N   UNL     1       1.300   8.238  18.980  0.00  0.00    +0.000 NA
ATOM      3  C   UNL     1       1.610   8.925  20.245  0.00  0.00    +0.000 C 
ATOM      4  C   UNL     1       0.581   9.991  20.638  0.00  0.00    +0.000 C 
ATOM      5  C   UNL     1       0.288  10.982  19.508  0.00  0.00    +0.000 C 
ATOM      6  C   UNL     1      -0.133  10.194  18.267  0.00  0.00    +0.000 C 
ATOM      7  C   UNL     1       0.900   9.141  17.883  0.00  0.00    +0.000 C 
BRANCH   5   8
ATOM      8  N   UNL     1       1.370  11.929  19.258  0.00  0.00    +0.000 N 
ATOM      9  N   UNL     1       2.162  11.792  18.172  0.00  0.00    +0.000 NA
ATOM     10  N   UNL     1       3.064  12.759  18.188  0.00  0.00    +0.000 NA
ATOM     11  C   UNL     1       2.833  13.528  19.291  0.00  0.00    +0.000 A 
ATOM     12  C   UNL     1       3.507  14.666  19.752  0.00  0.00    +0.000 A 
ATOM     13  C   UNL     1       3.054  15.278  20.927  0.00  0.00    +0.000 A 
ATOM     14  C   UNL     1       1.959  14.763  21.622  0.00  0.00    +0.000 A 
ATOM     15  C   UNL     1       1.276  13.623  21.174  0.00  0.00    +0.000 A 
ATOM     16  C   UNL     1       1.743  13.024  19.999  0.00  0.00    +0.000 A 
ENDBRANCH   5   8
ENDBRANCH   1   2
BRANCH   1  18
ATOM     17  O   UNL     1       1.332   5.628  17.559  0.00  0.00    +0.000 OA
ATOM     18  C   UNL     1       2.328   5.999  18.177  0.00  0.00    +0.000 C 
ATOM     19  N   UNL     1       3.373   5.093  18.634  0.00  0.00    +0.000 N 
BRANCH  19  20
ATOM     20  C   UNL     1       3.048   3.610  18.383  0.00  0.00    +0.000 C 
ATOM     21  C   UNL     1       3.719   2.593  19.338  0.00  0.00    +0.000 C 
ATOM     22  C   UNL     1       3.288   2.831  20.782  0.00  0.00    +0.000 C 
ATOM     23  C   UNL     1       1.795   2.577  20.945  0.00  0.00    +0.000 C 
ATOM     24  C   UNL     1       0.980   3.346  19.905  0.00  0.00    +0.000 C 
ATOM     25  C   UNL     1       1.548   3.164  18.493  0.00  0.00    +0.000 C 
ENDBRANCH  19  20
BRANCH  19  26
ATOM     26  C   UNL     1       4.817   5.596  18.448  0.00  0.00    +0.000 C 
ATOM     27  C   UNL     1       5.906   4.578  17.996  0.00  0.00    +0.000 C 
ATOM     28  C   UNL     1       5.660   4.084  16.582  0.00  0.00    +0.000 C 
ATOM     29  C   UNL     1       5.889   5.233  15.610  0.00  0.00    +0.000 C 
ATOM     30  C   UNL     1       5.107   6.484  16.000  0.00  0.00    +0.000 C 
ATOM     31  C   UNL     1       5.086   6.806  17.511  0.00  0.00    +0.000 C 
ENDBRANCH  19  26
ENDBRANCH   1  18
TORSDOF 5
ENDMDL
MODEL 6
REMARK VINA RESULT:      -7.5      2.386      4.442
REMARK  Name = 
REMARK  5 active torsions:
REMARK  status: ('A' for Active; 'I' for Inactive)
REMARK    1  A    between atoms: C_2  and  C_3
REMARK    2  A    between atoms: C_3  and  N_4
REMARK    3  A    between atoms: C_7  and  N_8
REMARK    4  A    between atoms: N_19  and  C_20
REMARK    5  A    between atoms: N_19  and  C_26
REMARK                            x       y       z     vdW  Elec       q    Type
REMARK                         _______ _______ _______ _____ _____    ______ ____
ROOT
ATOM      1  C   UNL     1       2.579   7.671  18.499  0.00  0.00    +0.000 C 
ENDROOT
BRANCH   1   2
ATOM      2  N   UNL     1       1.333   8.385  18.935  0.00  0.00    +0.000 NA
ATOM      3  C   UNL     1       1.615   9.238  20.102  0.00  0.00    +0.000 C 
ATOM      4  C   UNL     1       0.518  10.266  20.397  0.00  0.00    +0.000 C 
ATOM      5  C   UNL     1       0.127  11.092  19.168  0.00  0.00    +0.000 C 
ATOM      6  C   UNL     1      -0.258  10.134  18.040  0.00  0.00    +0.000 C 
ATOM      7  C   UNL     1       0.844   9.121  17.752  0.00  0.00    +0.000 C 
BRANCH   5   8
ATOM      8  N   UNL     1       1.130  12.078  18.778  0.00  0.00    +0.000 N 
ATOM      9  N   UNL     1       2.333  11.683  18.309  0.00  0.00    +0.000 NA
ATOM     10  N   UNL     1       3.054  12.760  18.046  0.00  0.00    +0.000 NA
ATOM     11  C   UNL     1       2.293  13.854  18.340  0.00  0.00    +0.000 A 
ATOM     12  C   UNL     1       2.598  15.218  18.234  0.00  0.00    +0.000 A 
ATOM     13  C   UNL     1       1.620  16.149  18.601  0.00  0.00    +0.000 A 
ATOM     14  C   UNL     1       0.372  15.727  19.063  0.00  0.00    +0.000 A 
ATOM     15  C   UNL     1       0.054  14.366  19.178  0.00  0.00    +0.000 A 
ATOM     16  C   UNL     1       1.044  13.450  18.808  0.00  0.00    +0.000 A 
ENDBRANCH   5   8
ENDBRANCH   1   2
BRANCH   1  18
ATOM     17  O   UNL     1       1.308   5.762  17.841  0.00  0.00    +0.000 OA
ATOM     18  C   UNL     1       2.433   6.224  18.023  0.00  0.00    +0.000 C 
ATOM     19  N   UNL     1       3.657   5.465  17.805  0.00  0.00    +0.000 N 
BRANCH  19  20
ATOM     20  C   UNL     1       3.406   3.990  17.447  0.00  0.00    +0.000 C 
ATOM     21  C   UNL     1       4.404   2.964  18.039  0.00  0.00    +0.000 C 
ATOM     22  C   UNL     1       4.377   2.990  19.564  0.00  0.00    +0.000 C 
ATOM     23  C   UNL     1       3.017   2.540  20.084  0.00  0.00    +0.000 C 
ATOM     24  C   UNL     1       1.880   3.312  19.416  0.00  0.00    +0.000 C 
ATOM     25  C   UNL     1       2.042   3.354  17.893  0.00  0.00    +0.000 C 
ENDBRANCH  19  20
BRANCH  19  26
ATOM     26  C   UNL     1       4.798   6.231  17.108  0.00  0.00    +0.000 C 
ATOM     27  C   UNL     1       6.114   6.488  17.901  0.00  0.00    +0.000 C 
ATOM     28  C   UNL     1       6.858   5.196  18.187  0.00  0.00    +0.000 C 
ATOM     29  C   UNL     1       7.391   4.632  16.878  0.00  0.00    +0.000 C 
ATOM     30  C   UNL     1       6.307   4.528  15.809  0.00  0.00    +0.000 C 
ATOM     31  C   UNL     1       5.330   5.723  15.739  0.00  0.00    +0.000 C 
ENDBRANCH  19  26
ENDBRANCH   1  18
TORSDOF 5
ENDMDL
MODEL 7
REMARK VINA RESULT:      -7.3      1.887      3.990
REMARK  Name = 
REMARK  5 active torsions:
REMARK  status: ('A' for Active; 'I' for Inactive)
REMARK    1  A    between atoms: C_2  and  C_3
REMARK    2  A    between atoms: C_3  and  N_4
REMARK    3  A    between atoms: C_7  and  N_8
REMARK    4  A    between atoms: N_19  and  C_20
REMARK    5  A    between atoms: N_19  and  C_26
REMARK                            x       y       z     vdW  Elec       q    Type
REMARK                         _______ _______ _______ _____ _____    ______ ____
ROOT
ATOM      1  C   UNL     1       2.861   8.059  18.227  0.00  0.00    +0.000 C 
ENDROOT
BRANCH   1   2
ATOM      2  N   UNL     1       1.969   9.144  17.699  0.00  0.00    +0.000 NA
ATOM      3  C   UNL     1       0.562   8.847  18.014  0.00  0.00    +0.000 C 
ATOM      4  C   UNL     1      -0.378  10.044  17.840  0.00  0.00    +0.000 C 
ATOM      5  C   UNL     1       0.115  11.301  18.563  0.00  0.00    +0.000 C 
ATOM      6  C   UNL     1       1.540  11.604  18.097  0.00  0.00    +0.000 C 
ATOM      7  C   UNL     1       2.466  10.406  18.281  0.00  0.00    +0.000 C 
BRANCH   5   8
ATOM      8  N   UNL     1      -0.021  11.237  20.015  0.00  0.00    +0.000 N 
ATOM      9  N   UNL     1       0.948  10.677  20.770  0.00  0.00    +0.000 NA
ATOM     10  N   UNL     1       0.575  10.732  22.037  0.00  0.00    +0.000 NA
ATOM     11  C   UNL     1      -0.642  11.346  22.089  0.00  0.00    +0.000 A 
ATOM     12  C   UNL     1      -1.454  11.644  23.191  0.00  0.00    +0.000 A 
ATOM     13  C   UNL     1      -2.672  12.296  22.963  0.00  0.00    +0.000 A 
ATOM     14  C   UNL     1      -3.066  12.638  21.669  0.00  0.00    +0.000 A 
ATOM     15  C   UNL     1      -2.265  12.344  20.557  0.00  0.00    +0.000 A 
ATOM     16  C   UNL     1      -1.053  11.691  20.803  0.00  0.00    +0.000 A 
ENDBRANCH   5   8
ENDBRANCH   1   2
BRANCH   1  18
ATOM     17  O   UNL     1       1.354   6.283  17.716  0.00  0.00    +0.000 OA
ATOM     18  C   UNL     1       2.531   6.618  17.834  0.00  0.00    +0.000 C 
ATOM     19  N   UNL     1       3.649   5.712  17.612  0.00  0.00    +0.000 N 
BRANCH  19  20
ATOM     20  C   UNL     1       3.215   4.260  17.341  0.00  0.00    +0.000 C 
ATOM     21  C   UNL     1       4.157   3.155  17.878  0.00  0.00    +0.000 C 
ATOM     22  C   UNL     1       4.284   3.231  19.396  0.00  0.00    +0.000 C 
ATOM     23  C   UNL     1       2.943   2.943  20.061  0.00  0.00    +0.000 C 
ATOM     24  C   UNL     1       1.830   3.810  19.473  0.00  0.00    +0.000 C 
ATOM     25  C   UNL     1       1.844   3.786  17.940  0.00  0.00    +0.000 C 
ENDBRANCH  19  20
BRANCH  19  26
ATOM     26  C   UNL     1       4.840   6.305  16.835  0.00  0.00    +0.000 C 
ATOM     27  C   UNL     1       6.138   6.659  17.622  0.00  0.00    +0.000 C 
ATOM     28  C   UNL     1       6.823   5.418  18.162  0.00  0.00    +0.000 C 
ATOM     29  C   UNL     1       7.378   4.612  16.998  0.00  0.00    +0.000 C 
ATOM     30  C   UNL     1       6.328   4.351  15.923  0.00  0.00    +0.000 C 
ATOM     31  C   UNL     1       5.399   5.543  15.602  0.00  0.00    +0.000 C 
ENDBRANCH  19  26
ENDBRANCH   1  18
TORSDOF 5
ENDMDL
MODEL 8
REMARK VINA RESULT:      -7.3      2.393      4.869
REMARK  Name = 
REMARK  5 active torsions:
REMARK  status: ('A' for Active; 'I' for Inactive)
REMARK    1  A    between atoms: C_2  and  C_3
REMARK    2  A    between atoms: C_3  and  N_4
REMARK    3  A    between atoms: C_7  and  N_8
REMARK    4  A    between atoms: N_19  and  C_20
REMARK    5  A    between atoms: N_19  and  C_26
REMARK                            x       y       z     vdW  Elec       q    Type
REMARK                         _______ _______ _______ _____ _____    ______ ____
ROOT
ATOM      1  C   UNL     1       2.501   7.870  18.729  0.00  0.00    +0.000 C 
ENDROOT
BRANCH   1   2
ATOM      2  N   UNL     1       1.212   8.625  18.869  0.00  0.00    +0.000 NA
ATOM      3  C   UNL     1       0.984   8.990  20.277  0.00  0.00    +0.000 C 
ATOM      4  C   UNL     1      -0.101  10.054  20.473  0.00  0.00    +0.000 C 
ATOM      5  C   UNL     1       0.107  11.288  19.591  0.00  0.00    +0.000 C 
ATOM      6  C   UNL     1       0.222  10.833  18.136  0.00  0.00    +0.000 C 
ATOM      7  C   UNL     1       1.309   9.779  17.953  0.00  0.00    +0.000 C 
BRANCH   5   8
ATOM      8  N   UNL     1       1.209  12.143  20.023  0.00  0.00    +0.000 N 
ATOM      9  N   UNL     1       1.645  12.104  21.301  0.00  0.00    +0.000 NA
ATOM     10  N   UNL     1       2.629  12.976  21.434  0.00  0.00    +0.000 NA
ATOM     11  C   UNL     1       2.829  13.569  20.221  0.00  0.00    +0.000 A 
ATOM     12  C   UNL     1       3.751  14.553  19.841  0.00  0.00    +0.000 A 
ATOM     13  C   UNL     1       3.750  14.988  18.511  0.00  0.00    +0.000 A 
ATOM     14  C   UNL     1       2.850  14.454  17.587  0.00  0.00    +0.000 A 
ATOM     15  C   UNL     1       1.920  13.471  17.954  0.00  0.00    +0.000 A 
ATOM     16  C   UNL     1       1.934  13.049  19.288  0.00  0.00    +0.000 A 
ENDBRANCH   5   8
ENDBRANCH   1   2
BRANCH   1  18
ATOM     17  O   UNL     1       1.333   5.968  17.888  0.00  0.00    +0.000 OA
ATOM     18  C   UNL     1       2.429   6.448  18.169  0.00  0.00    +0.000 C 
ATOM     19  N   UNL     1       3.686   5.734  17.992  0.00  0.00    +0.000 N 
BRANCH  19  20
ATOM     20  C   UNL     1       3.502   4.274  17.541  0.00  0.00    +0.000 C 
ATOM     21  C   UNL     1       4.482   3.242  18.151  0.00  0.00    +0.000 C 
ATOM     22  C   UNL     1       4.345   3.186  19.669  0.00  0.00    +0.000 C 
ATOM     23  C   UNL     1       2.964   2.677  20.064  0.00  0.00    +0.000 C 
ATOM     24  C   UNL     1       1.857   3.457  19.355  0.00  0.00    +0.000 C 
ATOM     25  C   UNL     1       2.127   3.584  17.852  0.00  0.00    +0.000 C 
ENDBRANCH  19  20
BRANCH  19  26
ATOM     26  C   UNL     1       4.847   6.566  17.413  0.00  0.00    +0.000 C 
ATOM     27  C   UNL     1       6.280   6.335  17.977  0.00  0.00    +0.000 C 
ATOM     28  C   UNL     1       6.804   4.954  17.629  0.00  0.00    +0.000 C 
ATOM     29  C   UNL     1       7.047   4.880  16.129  0.00  0.00    +0.000 C 
ATOM     30  C   UNL     1       5.831   5.329  15.324  0.00  0.00    +0.000 C 
ATOM     31  C   UNL     1       5.091   6.567  15.879  0.00  0.00    +0.000 C 
ENDBRANCH  19  26
ENDBRANCH   1  18
TORSDOF 5
ENDMDL
MODEL 9
REMARK VINA RESULT:      -7.2      1.946      2.767
REMARK  Name = 
REMARK  5 active torsions:
REMARK  status: ('A' for Active; 'I' for Inactive)
REMARK    1  A    between atoms: C_2  and  C_3
REMARK    2  A    between atoms: C_3  and  N_4
REMARK    3  A    between atoms: C_7  and  N_8
REMARK    4  A    between atoms: N_19  and  C_20
REMARK    5  A    between atoms: N_19  and  C_26
REMARK                            x       y       z     vdW  Elec       q    Type
REMARK                         _______ _______ _______ _____ _____    ______ ____
ROOT
ATOM      1  C   UNL     1       1.490   7.826  17.924  0.00  0.00    +0.000 C 
ENDROOT
BRANCH   1   2
ATOM      2  N   UNL     1       1.138   9.254  17.623  0.00  0.00    +0.000 NA
ATOM      3  C   UNL     1      -0.297   9.487  17.859  0.00  0.00    +0.000 C 
ATOM      4  C   UNL     1      -0.681  10.969  17.926  0.00  0.00    +0.000 C 
ATOM      5  C   UNL     1       0.194  11.768  18.896  0.00  0.00    +0.000 C 
ATOM      6  C   UNL     1       1.660  11.561  18.514  0.00  0.00    +0.000 C 
ATOM      7  C   UNL     1       2.031  10.083  18.456  0.00  0.00    +0.000 C 
BRANCH   5   8
ATOM      8  N   UNL     1      -0.085  11.496  20.303  0.00  0.00    +0.000 N 
ATOM      9  N   UNL     1       0.793  10.795  21.052  0.00  0.00    +0.000 NA
ATOM     10  N   UNL     1       0.299  10.675  22.273  0.00  0.00    +0.000 NA
ATOM     11  C   UNL     1      -0.903  11.321  22.303  0.00  0.00    +0.000 A 
ATOM     12  C   UNL     1      -1.811  11.483  23.357  0.00  0.00    +0.000 A 
ATOM     13  C   UNL     1      -2.985  12.207  23.118  0.00  0.00    +0.000 A 
ATOM     14  C   UNL     1      -3.243  12.751  21.859  0.00  0.00    +0.000 A 
ATOM     15  C   UNL     1      -2.344  12.594  20.794  0.00  0.00    +0.000 A 
ATOM     16  C   UNL     1      -1.177  11.867  21.051  0.00  0.00    +0.000 A 
ENDBRANCH   5   8
ENDBRANCH   1   2
BRANCH   1  18
ATOM     17  O   UNL     1       3.816   8.345  17.826  0.00  0.00    +0.000 OA
ATOM     18  C   UNL     1       2.975   7.461  17.978  0.00  0.00    +0.000 C 
ATOM     19  N   UNL     1       3.311   6.065  18.215  0.00  0.00    +0.000 N 
BRANCH  19  20
ATOM     20  C   UNL     1       4.821   5.777  18.129  0.00  0.00    +0.000 C 
ATOM     21  C   UNL     1       5.220   4.340  17.713  0.00  0.00    +0.000 C 
ATOM     22  C   UNL     1       4.696   4.007  16.320  0.00  0.00    +0.000 C 
ATOM     23  C   UNL     1       5.350   4.901  15.273  0.00  0.00    +0.000 C 
ATOM     24  C   UNL     1       5.245   6.377  15.655  0.00  0.00    +0.000 C 
ATOM     25  C   UNL     1       5.666   6.618  17.108  0.00  0.00    +0.000 C 
ENDBRANCH  19  20
BRANCH  19  26
ATOM     26  C   UNL     1       2.462   5.348  19.282  0.00  0.00    +0.000 C 
ATOM     27  C   UNL     1       1.309   4.413  18.810  0.00  0.00    +0.000 C 
ATOM     28  C   UNL     1       1.841   3.187  18.092  0.00  0.00    +0.000 C 
ATOM     29  C   UNL     1       2.566   2.301  19.094  0.00  0.00    +0.000 C 
ATOM     30  C   UNL     1       3.604   3.073  19.903  0.00  0.00    +0.000 C 
ATOM     31  C   UNL     1       3.169   4.483  20.362  0.00  0.00    +0.000 C 
ENDBRANCH  19  26
ENDBRANCH   1  18
TORSDOF 5
ENDMDL
