MODEL 1
REMARK VINA RESULT:      -7.5      0.000      0.000
REMARK  Name = 
REMARK  12 active torsions:
REMARK  status: ('A' for Active; 'I' for Inactive)
REMARK    1  A    between atoms: C_1  and  O_2
REMARK    2  A    between atoms: O_2  and  C_3
REMARK    3  A    between atoms: C_8  and  N_9
REMARK    4  A    between atoms: C_13  and  C_15
REMARK    5  A    between atoms: C_15  and  O_16
REMARK    6  A    between atoms: O_16  and  C_17
REMARK    7  A    between atoms: C_20  and  S_21
REMARK    8  A    between atoms: S_21  and  N_24
REMARK    9  A    between atoms: N_24  and  C_25
REMARK   10  A    between atoms: C_25  and  C_26
REMARK   11  A    between atoms: C_25  and  C_27
REMARK   12  A    between atoms: C_25  and  C_28
REMARK                            x       y       z     vdW  Elec       q    Type
REMARK                         _______ _______ _______ _____ _____    ______ ____
ROOT
ATOM      1  C   UNL     1       0.561  11.323  21.064  0.00  0.00    +0.000 C 
ENDROOT
BRANCH   1   6
ATOM      2  N   UNL     1      -3.986  13.458  22.293  0.00  0.00    +0.000 N 
ATOM      3  C   UNL     1      -3.343  13.023  23.544  0.00  0.00    +0.000 C 
ATOM      4  C   UNL     1      -2.550  11.729  23.290  0.00  0.00    +0.000 C 
ATOM      5  N   UNL     1      -1.615  11.865  22.167  0.00  0.00    +0.000 N 
ATOM      6  C   UNL     1      -0.409  11.177  22.233  0.00  0.00    +0.000 C 
ATOM      7  O   UNL     1      -0.085  10.519  23.225  0.00  0.00    +0.000 OA
ATOM      8  C   UNL     1      -2.224  12.394  20.929  0.00  0.00    +0.000 C 
ATOM      9  C   UNL     1      -3.040  13.681  21.187  0.00  0.00    +0.000 C 
BRANCH   2  15
ATOM     10  C   UNL     1      -6.409  13.190  21.890  0.00  0.00    +0.000 A 
ATOM     11  C   UNL     1      -7.705  13.733  21.969  0.00  0.00    +0.000 A 
ATOM     12  C   UNL     1      -7.912  15.025  22.448  0.00  0.00    +0.000 A 
ATOM     13  C   UNL     1      -6.826  15.796  22.828  0.00  0.00    +0.000 A 
ATOM     14  C   UNL     1      -5.535  15.273  22.732  0.00  0.00    +0.000 A 
ATOM     15  C   UNL     1      -5.280  13.962  22.275  0.00  0.00    +0.000 A 
BRANCH  10  17
ATOM     16  C   UNL     1      -7.242  11.249  20.771  0.00  0.00    +0.000 C 
ATOM     17  O   UNL     1      -6.181  11.903  21.455  0.00  0.00    +0.000 OA
ENDBRANCH  10  17
ENDBRANCH   2  15
ENDBRANCH   1   6
BRANCH   1  18
ATOM     18  O   UNL     1       0.082  10.588  19.943  0.00  0.00    +0.000 OA
BRANCH  18  19
ATOM     19  C   UNL     1       0.889   9.553  19.548  0.00  0.00    +0.000 A 
ATOM     20  C   UNL     1       1.153   8.583  20.517  0.00  0.00    +0.000 A 
ATOM     21  C   UNL     1       1.939   7.471  20.201  0.00  0.00    +0.000 A 
ATOM     22  C   UNL     1       2.429   7.312  18.901  0.00  0.00    +0.000 A 
ATOM     23  C   UNL     1       2.165   8.278  17.928  0.00  0.00    +0.000 A 
ATOM     24  C   UNL     1       1.390   9.397  18.253  0.00  0.00    +0.000 A 
BRANCH  22  25
ATOM     25  S   UNL     1       3.506   5.955  18.515  0.00  0.00    +0.000 S 
ATOM     26  O   UNL     1       4.040   5.476  19.773  0.00  0.00    +0.000 OA
ATOM     27  O   UNL     1       2.816   5.055  17.617  0.00  0.00    +0.000 OA
BRANCH  25  28
ATOM     28  N   UNL     1       4.821   6.643  17.721  0.00  0.00    +0.000 NA
ATOM     29  H   UNL     1       5.100   7.507  18.190  0.00  0.00    +0.000 HD
BRANCH  28  30
ATOM     30  C   UNL     1       5.890   5.897  17.014  0.00  0.00    +0.000 C 
ATOM     31  C   UNL     1       5.566   5.754  15.528  0.00  0.00    +0.000 C 
ATOM     32  C   UNL     1       7.182   6.730  17.146  0.00  0.00    +0.000 C 
ATOM     33  C   UNL     1       6.150   4.537  17.666  0.00  0.00    +0.000 C 
ENDBRANCH  28  30
ENDBRANCH  25  28
ENDBRANCH  22  25
ENDBRANCH  18  19
ENDBRANCH   1  18
TORSDOF 8
ENDMDL
MODEL 2
REMARK VINA RESULT:      -7.3      2.966     11.273
REMARK  Name = 
REMARK  12 active torsions:
REMARK  status: ('A' for Active; 'I' for Inactive)
REMARK    1  A    between atoms: C_1  and  O_2
REMARK    2  A    between atoms: O_2  and  C_3
REMARK    3  A    between atoms: C_8  and  N_9
REMARK    4  A    between atoms: C_13  and  C_15
REMARK    5  A    between atoms: C_15  and  O_16
REMARK    6  A    between atoms: O_16  and  C_17
REMARK    7  A    between atoms: C_20  and  S_21
REMARK    8  A    between atoms: S_21  and  N_24
REMARK    9  A    between atoms: N_24  and  C_25
REMARK   10  A    between atoms: C_25  and  C_26
REMARK   11  A    between atoms: C_25  and  C_27
REMARK   12  A    between atoms: C_25  and  C_28
REMARK                            x       y       z     vdW  Elec       q    Type
REMARK                         _______ _______ _______ _____ _____    ______ ____
ROOT
ATOM      1  C   UNL     1       0.598  10.729  21.407  0.00  0.00    +0.000 C 
ENDROOT
BRANCH   1   6
ATOM      2  N   UNL     1       2.553   6.790  18.687  0.00  0.00    +0.000 N 
ATOM      3  C   UNL     1       2.715   8.013  17.883  0.00  0.00    +0.000 C 
ATOM      4  C   UNL     1       1.518   8.948  18.124  0.00  0.00    +0.000 C 
ATOM      5  N   UNL     1       1.298   9.209  19.551  0.00  0.00    +0.000 N 
ATOM      6  C   UNL     1       0.823  10.461  19.922  0.00  0.00    +0.000 C 
ATOM      7  O   UNL     1       0.646  11.363  19.099  0.00  0.00    +0.000 OA
ATOM      8  C   UNL     1       1.229   7.993  20.389  0.00  0.00    +0.000 C 
ATOM      9  C   UNL     1       2.421   7.043  20.131  0.00  0.00    +0.000 C 
BRANCH   2  15
ATOM     10  C   UNL     1       4.201   5.047  18.093  0.00  0.00    +0.000 A 
ATOM     11  C   UNL     1       4.452   3.738  17.645  0.00  0.00    +0.000 A 
ATOM     12  C   UNL     1       3.406   2.885  17.299  0.00  0.00    +0.000 A 
ATOM     13  C   UNL     1       2.100   3.341  17.374  0.00  0.00    +0.000 A 
ATOM     14  C   UNL     1       1.843   4.647  17.797  0.00  0.00    +0.000 A 
ATOM     15  C   UNL     1       2.870   5.536  18.179  0.00  0.00    +0.000 A 
BRANCH  10  17
ATOM     16  C   UNL     1       6.498   5.322  18.697  0.00  0.00    +0.000 C 
ATOM     17  O   UNL     1       5.216   5.896  18.475  0.00  0.00    +0.000 OA
ENDBRANCH  10  17
ENDBRANCH   2  15
ENDBRANCH   1   6
BRANCH   1  18
ATOM     18  O   UNL     1       0.367  12.118  21.618  0.00  0.00    +0.000 OA
BRANCH  18  19
ATOM     19  C   UNL     1      -0.948  12.460  21.800  0.00  0.00    +0.000 A 
ATOM     20  C   UNL     1      -1.571  11.913  22.924  0.00  0.00    +0.000 A 
ATOM     21  C   UNL     1      -2.901  12.228  23.214  0.00  0.00    +0.000 A 
ATOM     22  C   UNL     1      -3.598  13.122  22.396  0.00  0.00    +0.000 A 
ATOM     23  C   UNL     1      -2.979  13.674  21.272  0.00  0.00    +0.000 A 
ATOM     24  C   UNL     1      -1.651  13.344  20.977  0.00  0.00    +0.000 A 
BRANCH  22  25
ATOM     25  S   UNL     1      -5.315  13.454  22.700  0.00  0.00    +0.000 S 
ATOM     26  O   UNL     1      -5.513  13.347  24.130  0.00  0.00    +0.000 OA
ATOM     27  O   UNL     1      -5.687  14.660  21.992  0.00  0.00    +0.000 OA
BRANCH  25  28
ATOM     28  N   UNL     1      -6.143  12.141  22.049  0.00  0.00    +0.000 NA
ATOM     29  H   UNL     1      -6.561  11.585  22.797  0.00  0.00    +0.000 HD
BRANCH  28  30
ATOM     30  C   UNL     1      -6.841  12.123  20.741  0.00  0.00    +0.000 C 
ATOM     31  C   UNL     1      -7.544  10.786  20.514  0.00  0.00    +0.000 C 
ATOM     32  C   UNL     1      -7.916  13.229  20.789  0.00  0.00    +0.000 C 
ATOM     33  C   UNL     1      -5.887  12.459  19.592  0.00  0.00    +0.000 C 
ENDBRANCH  28  30
ENDBRANCH  25  28
ENDBRANCH  22  25
ENDBRANCH  18  19
ENDBRANCH   1  18
TORSDOF 8
ENDMDL
MODEL 3
REMARK VINA RESULT:      -7.2      4.154      5.380
REMARK  Name = 
REMARK  12 active torsions:
REMARK  status: ('A' for Active; 'I' for Inactive)
REMARK    1  A    between atoms: C_1  and  O_2
REMARK    2  A    between atoms: O_2  and  C_3
REMARK    3  A    between atoms: C_8  and  N_9
REMARK    4  A    between atoms: C_13  and  C_15
REMARK    5  A    between atoms: C_15  and  O_16
REMARK    6  A    between atoms: O_16  and  C_17
REMARK    7  A    between atoms: C_20  and  S_21
REMARK    8  A    between atoms: S_21  and  N_24
REMARK    9  A    between atoms: N_24  and  C_25
REMARK   10  A    between atoms: C_25  and  C_26
REMARK   11  A    between atoms: C_25  and  C_27
REMARK   12  A    between atoms: C_25  and  C_28
REMARK                            x       y       z     vdW  Elec       q    Type
REMARK                         _______ _______ _______ _____ _____    ______ ____
ROOT
ATOM      1  C   UNL     1       0.224   9.562  20.332  0.00  0.00    +0.000 C 
ENDROOT
BRANCH   1   6
ATOM      2  N   UNL     1       0.824  14.579  19.233  0.00  0.00    +0.000 N 
ATOM      3  C   UNL     1       1.456  14.329  20.539  0.00  0.00    +0.000 C 
ATOM      4  C   UNL     1       0.653  13.260  21.300  0.00  0.00    +0.000 C 
ATOM      5  N   UNL     1       0.454  12.045  20.503  0.00  0.00    +0.000 N 
ATOM      6  C   UNL     1       0.429  10.824  21.166  0.00  0.00    +0.000 C 
ATOM      7  O   UNL     1       0.633  10.735  22.380  0.00  0.00    +0.000 OA
ATOM      8  C   UNL     1      -0.090  12.287  19.150  0.00  0.00    +0.000 C 
ATOM      9  C   UNL     1       0.703  13.376  18.392  0.00  0.00    +0.000 C 
BRANCH   2  15
ATOM     10  C   UNL     1       1.797  16.564  18.128  0.00  0.00    +0.000 A 
ATOM     11  C   UNL     1       1.599  17.829  17.545  0.00  0.00    +0.000 A 
ATOM     12  C   UNL     1       0.333  18.410  17.506  0.00  0.00    +0.000 A 
ATOM     13  C   UNL     1      -0.742  17.744  18.070  0.00  0.00    +0.000 A 
ATOM     14  C   UNL     1      -0.551  16.497  18.670  0.00  0.00    +0.000 A 
ATOM     15  C   UNL     1       0.708  15.862  18.712  0.00  0.00    +0.000 A 
BRANCH  10  17
ATOM     16  C   UNL     1       4.083  16.630  18.823  0.00  0.00    +0.000 C 
ATOM     17  O   UNL     1       3.031  15.953  18.147  0.00  0.00    +0.000 OA
ENDBRANCH  10  17
ENDBRANCH   2  15
ENDBRANCH   1   6
BRANCH   1  18
ATOM     18  O   UNL     1       1.026   9.623  19.157  0.00  0.00    +0.000 OA
BRANCH  18  19
ATOM     19  C   UNL     1       1.835   8.535  18.956  0.00  0.00    +0.000 A 
ATOM     20  C   UNL     1       1.829   7.576  19.972  0.00  0.00    +0.000 A 
ATOM     21  C   UNL     1       2.596   6.415  19.846  0.00  0.00    +0.000 A 
ATOM     22  C   UNL     1       3.340   6.196  18.683  0.00  0.00    +0.000 A 
ATOM     23  C   UNL     1       3.347   7.150  17.663  0.00  0.00    +0.000 A 
ATOM     24  C   UNL     1       2.589   8.319  17.800  0.00  0.00    +0.000 A 
BRANCH  22  25
ATOM     25  S   UNL     1       4.391   4.771  18.553  0.00  0.00    +0.000 S 
ATOM     26  O   UNL     1       3.917   3.813  19.529  0.00  0.00    +0.000 OA
ATOM     27  O   UNL     1       4.508   4.406  17.158  0.00  0.00    +0.000 OA
BRANCH  25  28
ATOM     28  N   UNL     1       5.891   5.271  19.131  0.00  0.00    +0.000 NA
ATOM     29  H   UNL     1       6.093   4.813  20.021  0.00  0.00    +0.000 HD
BRANCH  28  30
ATOM     30  C   UNL     1       7.058   5.643  18.296  0.00  0.00    +0.000 C 
ATOM     31  C   UNL     1       6.769   6.902  17.481  0.00  0.00    +0.000 C 
ATOM     32  C   UNL     1       8.221   5.954  19.262  0.00  0.00    +0.000 C 
ATOM     33  C   UNL     1       7.499   4.483  17.401  0.00  0.00    +0.000 C 
ENDBRANCH  28  30
ENDBRANCH  25  28
ENDBRANCH  22  25
ENDBRANCH  18  19
ENDBRANCH   1  18
TORSDOF 8
ENDMDL
MODEL 4
REMARK VINA RESULT:      -7.2      1.629      2.675
REMARK  Name = 
REMARK  12 active torsions:
REMARK  status: ('A' for Active; 'I' for Inactive)
REMARK    1  A    between atoms: C_1  and  O_2
REMARK    2  A    between atoms: O_2  and  C_3
REMARK    3  A    between atoms: C_8  and  N_9
REMARK    4  A    between atoms: C_13  and  C_15
REMARK    5  A    between atoms: C_15  and  O_16
REMARK    6  A    between atoms: O_16  and  C_17
REMARK    7  A    between atoms: C_20  and  S_21
REMARK    8  A    between atoms: S_21  and  N_24
REMARK    9  A    between atoms: N_24  and  C_25
REMARK   10  A    between atoms: C_25  and  C_26
REMARK   11  A    between atoms: C_25  and  C_27
REMARK   12  A    between atoms: C_25  and  C_28
REMARK                            x       y       z     vdW  Elec       q    Type
REMARK                         _______ _______ _______ _____ _____    ______ ____
ROOT
ATOM      1  C   UNL     1       1.113   8.969  21.320  0.00  0.00    +0.000 C 
ENDROOT
BRANCH   1   6
ATOM      2  N   UNL     1      -2.463  12.578  22.286  0.00  0.00    +0.000 N 
ATOM      3  C   UNL     1      -2.507  12.279  20.845  0.00  0.00    +0.000 C 
ATOM      4  C   UNL     1      -1.087  11.970  20.341  0.00  0.00    +0.000 C 
ATOM      5  N   UNL     1      -0.433  10.925  21.137  0.00  0.00    +0.000 N 
ATOM      6  C   UNL     1       0.436  10.056  20.488  0.00  0.00    +0.000 C 
ATOM      7  O   UNL     1       0.617  10.101  19.269  0.00  0.00    +0.000 OA
ATOM      8  C   UNL     1      -0.465  11.161  22.596  0.00  0.00    +0.000 C 
ATOM      9  C   UNL     1      -1.888  11.493  23.099  0.00  0.00    +0.000 C 
BRANCH   2  15
ATOM     10  C   UNL     1      -4.633  13.524  22.994  0.00  0.00    +0.000 A 
ATOM     11  C   UNL     1      -5.337  14.557  23.638  0.00  0.00    +0.000 A 
ATOM     12  C   UNL     1      -4.669  15.662  24.162  0.00  0.00    +0.000 A 
ATOM     13  C   UNL     1      -3.293  15.757  24.024  0.00  0.00    +0.000 A 
ATOM     14  C   UNL     1      -2.589  14.746  23.367  0.00  0.00    +0.000 A 
ATOM     15  C   UNL     1      -3.222  13.599  22.842  0.00  0.00    +0.000 A 
BRANCH  10  17
ATOM     16  C   UNL     1      -6.243  12.603  21.486  0.00  0.00    +0.000 C 
ATOM     17  O   UNL     1      -5.267  12.405  22.500  0.00  0.00    +0.000 OA
ENDBRANCH  10  17
ENDBRANCH   2  15
ENDBRANCH   1   6
BRANCH   1  18
ATOM     18  O   UNL     1       0.579   7.695  20.975  0.00  0.00    +0.000 OA
BRANCH  18  19
ATOM     19  C   UNL     1       1.493   6.809  20.465  0.00  0.00    +0.000 A 
ATOM     20  C   UNL     1       2.407   7.336  19.549  0.00  0.00    +0.000 A 
ATOM     21  C   UNL     1       3.398   6.521  18.998  0.00  0.00    +0.000 A 
ATOM     22  C   UNL     1       3.497   5.183  19.392  0.00  0.00    +0.000 A 
ATOM     23  C   UNL     1       2.587   4.652  20.309  0.00  0.00    +0.000 A 
ATOM     24  C   UNL     1       1.587   5.469  20.848  0.00  0.00    +0.000 A 
BRANCH  22  25
ATOM     25  S   UNL     1       4.691   4.115  18.626  0.00  0.00    +0.000 S 
ATOM     26  O   UNL     1       5.146   3.197  19.650  0.00  0.00    +0.000 OA
ATOM     27  O   UNL     1       4.140   3.619  17.384  0.00  0.00    +0.000 OA
BRANCH  25  28
ATOM     28  N   UNL     1       6.021   5.094  18.301  0.00  0.00    +0.000 NA
ATOM     29  H   UNL     1       6.778   4.884  18.954  0.00  0.00    +0.000 HD
BRANCH  28  30
ATOM     30  C   UNL     1       6.418   5.595  16.964  0.00  0.00    +0.000 C 
ATOM     31  C   UNL     1       5.215   6.159  16.211  0.00  0.00    +0.000 C 
ATOM     32  C   UNL     1       7.421   6.745  17.194  0.00  0.00    +0.000 C 
ATOM     33  C   UNL     1       7.134   4.515  16.151  0.00  0.00    +0.000 C 
ENDBRANCH  28  30
ENDBRANCH  25  28
ENDBRANCH  22  25
ENDBRANCH  18  19
ENDBRANCH   1  18
TORSDOF 8
ENDMDL
MODEL 5
REMARK VINA RESULT:      -7.2      3.053     11.548
REMARK  Name = 
REMARK  12 active torsions:
REMARK  status: ('A' for Active; 'I' for Inactive)
REMARK    1  A    between atoms: C_1  and  O_2
REMARK    2  A    between atoms: O_2  and  C_3
REMARK    3  A    between atoms: C_8  and  N_9
REMARK    4  A    between atoms: C_13  and  C_15
REMARK    5  A    between atoms: C_15  and  O_16
REMARK    6  A    between atoms: O_16  and  C_17
REMARK    7  A    between atoms: C_20  and  S_21
REMARK    8  A    between atoms: S_21  and  N_24
REMARK    9  A    between atoms: N_24  and  C_25
REMARK   10  A    between atoms: C_25  and  C_26
REMARK   11  A    between atoms: C_25  and  C_27
REMARK   12  A    between atoms: C_25  and  C_28
REMARK                            x       y       z     vdW  Elec       q    Type
REMARK                         _______ _______ _______ _____ _____    ______ ____
ROOT
ATOM      1  C   UNL     1       0.598  11.010  20.932  0.00  0.00    +0.000 C 
ENDROOT
BRANCH   1   6
ATOM      2  N   UNL     1       2.570   6.767  18.729  0.00  0.00    +0.000 N 
ATOM      3  C   UNL     1       2.888   7.912  17.859  0.00  0.00    +0.000 C 
ATOM      4  C   UNL     1       1.732   8.926  17.903  0.00  0.00    +0.000 C 
ATOM      5  N   UNL     1       1.386   9.311  19.276  0.00  0.00    +0.000 N 
ATOM      6  C   UNL     1       0.954  10.613  19.501  0.00  0.00    +0.000 C 
ATOM      7  O   UNL     1       0.918  11.455  18.600  0.00  0.00    +0.000 OA
ATOM      8  C   UNL     1       1.159   8.171  20.189  0.00  0.00    +0.000 C 
ATOM      9  C   UNL     1       2.309   7.141  20.129  0.00  0.00    +0.000 C 
BRANCH   2  15
ATOM     10  C   UNL     1       4.139   4.868  18.523  0.00  0.00    +0.000 A 
ATOM     11  C   UNL     1       4.348   3.517  18.195  0.00  0.00    +0.000 A 
ATOM     12  C   UNL     1       3.305   2.725  17.719  0.00  0.00    +0.000 A 
ATOM     13  C   UNL     1       2.049   3.283  17.542  0.00  0.00    +0.000 A 
ATOM     14  C   UNL     1       1.838   4.630  17.845  0.00  0.00    +0.000 A 
ATOM     15  C   UNL     1       2.859   5.462  18.351  0.00  0.00    +0.000 A 
BRANCH  10  17
ATOM     16  C   UNL     1       6.481   5.208  18.859  0.00  0.00    +0.000 C 
ATOM     17  O   UNL     1       5.145   5.662  19.029  0.00  0.00    +0.000 OA
ENDBRANCH  10  17
ENDBRANCH   2  15
ENDBRANCH   1   6
BRANCH   1  18
ATOM     18  O   UNL     1       0.107  12.345  20.954  0.00  0.00    +0.000 OA
BRANCH  18  19
ATOM     19  C   UNL     1      -1.090  12.506  21.603  0.00  0.00    +0.000 A 
ATOM     20  C   UNL     1      -2.148  12.977  20.822  0.00  0.00    +0.000 A 
ATOM     21  C   UNL     1      -3.416  13.143  21.384  0.00  0.00    +0.000 A 
ATOM     22  C   UNL     1      -3.635  12.801  22.722  0.00  0.00    +0.000 A 
ATOM     23  C   UNL     1      -2.581  12.328  23.506  0.00  0.00    +0.000 A 
ATOM     24  C   UNL     1      -1.308  12.177  22.943  0.00  0.00    +0.000 A 
BRANCH  22  25
ATOM     25  S   UNL     1      -5.216  13.098  23.471  0.00  0.00    +0.000 S 
ATOM     26  O   UNL     1      -6.131  13.423  22.397  0.00  0.00    +0.000 OA
ATOM     27  O   UNL     1      -5.507  12.016  24.386  0.00  0.00    +0.000 OA
BRANCH  25  28
ATOM     28  N   UNL     1      -5.037  14.532  24.335  0.00  0.00    +0.000 NA
ATOM     29  H   UNL     1      -4.700  14.333  25.279  0.00  0.00    +0.000 HD
BRANCH  28  30
ATOM     30  C   UNL     1      -4.658  15.845  23.759  0.00  0.00    +0.000 C 
ATOM     31  C   UNL     1      -5.349  16.075  22.417  0.00  0.00    +0.000 C 
ATOM     32  C   UNL     1      -5.151  16.926  24.744  0.00  0.00    +0.000 C 
ATOM     33  C   UNL     1      -3.139  15.988  23.641  0.00  0.00    +0.000 C 
ENDBRANCH  28  30
ENDBRANCH  25  28
ENDBRANCH  22  25
ENDBRANCH  18  19
ENDBRANCH   1  18
TORSDOF 8
ENDMDL
MODEL 6
REMARK VINA RESULT:      -7.2      1.984      3.012
REMARK  Name = 
REMARK  12 active torsions:
REMARK  status: ('A' for Active; 'I' for Inactive)
REMARK    1  A    between atoms: C_1  and  O_2
REMARK    2  A    between atoms: O_2  and  C_3
REMARK    3  A    between atoms: C_8  and  N_9
REMARK    4  A    between atoms: C_13  and  C_15
REMARK    5  A    between atoms: C_15  and  O_16
REMARK    6  A    between atoms: O_16  and  C_17
REMARK    7  A    between atoms: C_20  and  S_21
REMARK    8  A    between atoms: S_21  and  N_24
REMARK    9  A    between atoms: N_24  and  C_25
REMARK   10  A    between atoms: C_25  and  C_26
REMARK   11  A    between atoms: C_25  and  C_27
REMARK   12  A    between atoms: C_25  and  C_28
REMARK                            x       y       z     vdW  Elec       q    Type
REMARK                         _______ _______ _______ _____ _____    ______ ____
ROOT
ATOM      1  C   UNL     1       0.656  11.426  20.891  0.00  0.00    +0.000 C 
ENDROOT
BRANCH   1   6
ATOM      2  N   UNL     1      -3.793  13.571  22.422  0.00  0.00    +0.000 N 
ATOM      3  C   UNL     1      -3.106  13.063  23.621  0.00  0.00    +0.000 C 
ATOM      4  C   UNL     1      -2.348  11.771  23.269  0.00  0.00    +0.000 C 
ATOM      5  N   UNL     1      -1.460  11.948  22.114  0.00  0.00    +0.000 N 
ATOM      6  C   UNL     1      -0.266  11.238  22.093  0.00  0.00    +0.000 C 
ATOM      7  O   UNL     1       0.088  10.525  23.036  0.00  0.00    +0.000 OA
ATOM      8  C   UNL     1      -2.112  12.548  20.931  0.00  0.00    +0.000 C 
ATOM      9  C   UNL     1      -2.891  13.834  21.288  0.00  0.00    +0.000 C 
BRANCH   2  15
ATOM     10  C   UNL     1      -5.356  15.413  22.944  0.00  0.00    +0.000 A 
ATOM     11  C   UNL     1      -6.669  15.917  22.910  0.00  0.00    +0.000 A 
ATOM     12  C   UNL     1      -7.718  15.151  22.405  0.00  0.00    +0.000 A 
ATOM     13  C   UNL     1      -7.469  13.865  21.953  0.00  0.00    +0.000 A 
ATOM     14  C   UNL     1      -6.173  13.349  22.004  0.00  0.00    +0.000 A 
ATOM     15  C   UNL     1      -5.077  14.097  22.486  0.00  0.00    +0.000 A 
BRANCH  10  17
ATOM     16  C   UNL     1      -4.258  16.450  24.797  0.00  0.00    +0.000 C 
ATOM     17  O   UNL     1      -4.297  16.163  23.406  0.00  0.00    +0.000 OA
ENDBRANCH  10  17
ENDBRANCH   2  15
ENDBRANCH   1   6
BRANCH   1  18
ATOM     18  O   UNL     1       0.206  10.623  19.806  0.00  0.00    +0.000 OA
BRANCH  18  19
ATOM     19  C   UNL     1       0.909   9.461  19.622  0.00  0.00    +0.000 A 
ATOM     20  C   UNL     1       1.493   9.295  18.364  0.00  0.00    +0.000 A 
ATOM     21  C   UNL     1       2.257   8.158  18.088  0.00  0.00    +0.000 A 
ATOM     22  C   UNL     1       2.468   7.203  19.087  0.00  0.00    +0.000 A 
ATOM     23  C   UNL     1       1.888   7.365  20.347  0.00  0.00    +0.000 A 
ATOM     24  C   UNL     1       1.112   8.499  20.614  0.00  0.00    +0.000 A 
BRANCH  22  25
ATOM     25  S   UNL     1       3.356   5.711  18.720  0.00  0.00    +0.000 S 
ATOM     26  O   UNL     1       3.681   5.756  17.309  0.00  0.00    +0.000 OA
ATOM     27  O   UNL     1       4.396   5.533  19.710  0.00  0.00    +0.000 OA
BRANCH  25  28
ATOM     28  N   UNL     1       2.224   4.473  18.864  0.00  0.00    +0.000 NA
ATOM     29  H   UNL     1       1.527   4.548  18.120  0.00  0.00    +0.000 HD
BRANCH  28  30
ATOM     30  C   UNL     1       2.495   3.111  19.384  0.00  0.00    +0.000 C 
ATOM     31  C   UNL     1       2.442   3.087  20.910  0.00  0.00    +0.000 C 
ATOM     32  C   UNL     1       1.373   2.195  18.850  0.00  0.00    +0.000 C 
ATOM     33  C   UNL     1       3.824   2.565  18.858  0.00  0.00    +0.000 C 
ENDBRANCH  28  30
ENDBRANCH  25  28
ENDBRANCH  22  25
ENDBRANCH  18  19
ENDBRANCH   1  18
TORSDOF 8
ENDMDL
MODEL 7
REMARK VINA RESULT:      -7.1      3.731      5.328
REMARK  Name = 
REMARK  12 active torsions:
REMARK  status: ('A' for Active; 'I' for Inactive)
REMARK    1  A    between atoms: C_1  and  O_2
REMARK    2  A    between atoms: O_2  and  C_3
REMARK    3  A    between atoms: C_8  and  N_9
REMARK    4  A    between atoms: C_13  and  C_15
REMARK    5  A    between atoms: C_15  and  O_16
REMARK    6  A    between atoms: O_16  and  C_17
REMARK    7  A    between atoms: C_20  and  S_21
REMARK    8  A    between atoms: S_21  and  N_24
REMARK    9  A    between atoms: N_24  and  C_25
REMARK   10  A    between atoms: C_25  and  C_26
REMARK   11  A    between atoms: C_25  and  C_27
REMARK   12  A    between atoms: C_25  and  C_28
REMARK                            x       y       z     vdW  Elec       q    Type
REMARK                         _______ _______ _______ _____ _____    ______ ____
ROOT
ATOM      1  C   UNL     1       0.955   9.749  21.471  0.00  0.00    +0.000 C 
ENDROOT
BRANCH   1   6
ATOM      2  N   UNL     1       0.790  14.652  19.833  0.00  0.00    +0.000 N 
ATOM      3  C   UNL     1       0.465  14.649  21.269  0.00  0.00    +0.000 C 
ATOM      4  C   UNL     1      -0.325  13.375  21.614  0.00  0.00    +0.000 C 
ATOM      5  N   UNL     1       0.363  12.159  21.166  0.00  0.00    +0.000 N 
ATOM      6  C   UNL     1       0.235  11.012  21.940  0.00  0.00    +0.000 C 
ATOM      7  O   UNL     1      -0.380  11.010  23.009  0.00  0.00    +0.000 OA
ATOM      8  C   UNL     1       0.784  12.184  19.749  0.00  0.00    +0.000 C 
ATOM      9  C   UNL     1       1.559  13.474  19.397  0.00  0.00    +0.000 C 
BRANCH   2  15
ATOM     10  C   UNL     1       1.848  16.458  18.519  0.00  0.00    +0.000 A 
ATOM     11  C   UNL     1       1.696  17.582  17.687  0.00  0.00    +0.000 A 
ATOM     12  C   UNL     1       0.431  18.069  17.365  0.00  0.00    +0.000 A 
ATOM     13  C   UNL     1      -0.693  17.453  17.891  0.00  0.00    +0.000 A 
ATOM     14  C   UNL     1      -0.550  16.350  18.736  0.00  0.00    +0.000 A 
ATOM     15  C   UNL     1       0.710  15.809  19.070  0.00  0.00    +0.000 A 
BRANCH  10  17
ATOM     16  C   UNL     1       3.993  15.740  17.746  0.00  0.00    +0.000 C 
ATOM     17  O   UNL     1       3.086  15.935  18.822  0.00  0.00    +0.000 OA
ENDBRANCH  10  17
ENDBRANCH   2  15
ENDBRANCH   1   6
BRANCH   1  18
ATOM     18  O   UNL     1       0.583   9.451  20.130  0.00  0.00    +0.000 OA
BRANCH  18  19
ATOM     19  C   UNL     1       1.467   8.651  19.453  0.00  0.00    +0.000 A 
ATOM     20  C   UNL     1       1.860   7.484  20.113  0.00  0.00    +0.000 A 
ATOM     21  C   UNL     1       2.733   6.586  19.492  0.00  0.00    +0.000 A 
ATOM     22  C   UNL     1       3.184   6.840  18.194  0.00  0.00    +0.000 A 
ATOM     23  C   UNL     1       2.793   8.005  17.530  0.00  0.00    +0.000 A 
ATOM     24  C   UNL     1       1.930   8.908  18.161  0.00  0.00    +0.000 A 
BRANCH  22  25
ATOM     25  S   UNL     1       4.368   5.757  17.434  0.00  0.00    +0.000 S 
ATOM     26  O   UNL     1       3.769   4.439  17.407  0.00  0.00    +0.000 OA
ATOM     27  O   UNL     1       4.848   6.374  16.217  0.00  0.00    +0.000 OA
BRANCH  25  28
ATOM     28  N   UNL     1       5.632   5.634  18.540  0.00  0.00    +0.000 NA
ATOM     29  H   UNL     1       5.393   4.962  19.271  0.00  0.00    +0.000 HD
BRANCH  28  30
ATOM     30  C   UNL     1       7.072   5.788  18.225  0.00  0.00    +0.000 C 
ATOM     31  C   UNL     1       7.925   5.670  19.486  0.00  0.00    +0.000 C 
ATOM     32  C   UNL     1       7.452   4.628  17.279  0.00  0.00    +0.000 C 
ATOM     33  C   UNL     1       7.346   7.097  17.481  0.00  0.00    +0.000 C 
ENDBRANCH  28  30
ENDBRANCH  25  28
ENDBRANCH  22  25
ENDBRANCH  18  19
ENDBRANCH   1  18
TORSDOF 8
ENDMDL
MODEL 8
REMARK VINA RESULT:      -7.1      4.183      5.420
REMARK  Name = 
REMARK  12 active torsions:
REMARK  status: ('A' for Active; 'I' for Inactive)
REMARK    1  A    between atoms: C_1  and  O_2
REMARK    2  A    between atoms: O_2  and  C_3
REMARK    3  A    between atoms: C_8  and  N_9
REMARK    4  A    between atoms: C_13  and  C_15
REMARK    5  A    between atoms: C_15  and  O_16
REMARK    6  A    between atoms: O_16  and  C_17
REMARK    7  A    between atoms: C_20  and  S_21
REMARK    8  A    between atoms: S_21  and  N_24
REMARK    9  A    between atoms: N_24  and  C_25
REMARK   10  A    between atoms: C_25  and  C_26
REMARK   11  A    between atoms: C_25  and  C_27
REMARK   12  A    between atoms: C_25  and  C_28
REMARK                            x       y       z     vdW  Elec       q    Type
REMARK                         _______ _______ _______ _____ _____    ______ ____
ROOT
ATOM      1  C   UNL     1       0.274   9.374  20.338  0.00  0.00    +0.000 C 
ENDROOT
BRANCH   1   6
ATOM      2  N   UNL     1       0.861  14.398  19.260  0.00  0.00    +0.000 N 
ATOM      3  C   UNL     1       1.607  14.116  20.498  0.00  0.00    +0.000 C 
ATOM      4  C   UNL     1       0.859  13.049  21.316  0.00  0.00    +0.000 C 
ATOM      5  N   UNL     1       0.564  11.850  20.523  0.00  0.00    +0.000 N 
ATOM      6  C   UNL     1       0.579  10.619  21.167  0.00  0.00    +0.000 C 
ATOM      7  O   UNL     1       0.893  10.507  22.355  0.00  0.00    +0.000 OA
ATOM      8  C   UNL     1      -0.099  12.123  19.230  0.00  0.00    +0.000 C 
ATOM      9  C   UNL     1       0.640  13.211  18.418  0.00  0.00    +0.000 C 
BRANCH   2  15
ATOM     10  C   UNL     1       1.789  16.417  18.179  0.00  0.00    +0.000 A 
ATOM     11  C   UNL     1       1.566  17.693  17.630  0.00  0.00    +0.000 A 
ATOM     12  C   UNL     1       0.294  18.261  17.632  0.00  0.00    +0.000 A 
ATOM     13  C   UNL     1      -0.762  17.571  18.205  0.00  0.00    +0.000 A 
ATOM     14  C   UNL     1      -0.545  16.314  18.772  0.00  0.00    +0.000 A 
ATOM     15  C   UNL     1       0.721  15.691  18.772  0.00  0.00    +0.000 A 
BRANCH  10  17
ATOM     16  C   UNL     1       4.154  16.639  18.445  0.00  0.00    +0.000 C 
ATOM     17  O   UNL     1       3.030  15.819  18.157  0.00  0.00    +0.000 OA
ENDBRANCH  10  17
ENDBRANCH   2  15
ENDBRANCH   1   6
BRANCH   1  18
ATOM     18  O   UNL     1       1.116   9.340  19.191  0.00  0.00    +0.000 OA
BRANCH  18  19
ATOM     19  C   UNL     1       1.908   8.225  19.094  0.00  0.00    +0.000 A 
ATOM     20  C   UNL     1       2.703   8.141  17.948  0.00  0.00    +0.000 A 
ATOM     21  C   UNL     1       3.569   7.058  17.772  0.00  0.00    +0.000 A 
ATOM     22  C   UNL     1       3.668   6.078  18.764  0.00  0.00    +0.000 A 
ATOM     23  C   UNL     1       2.877   6.159  19.912  0.00  0.00    +0.000 A 
ATOM     24  C   UNL     1       2.000   7.238  20.078  0.00  0.00    +0.000 A 
BRANCH  22  25
ATOM     25  S   UNL     1       4.692   4.651  18.508  0.00  0.00    +0.000 S 
ATOM     26  O   UNL     1       5.811   4.773  19.419  0.00  0.00    +0.000 OA
ATOM     27  O   UNL     1       3.856   3.471  18.521  0.00  0.00    +0.000 OA
BRANCH  25  28
ATOM     28  N   UNL     1       5.359   4.852  16.975  0.00  0.00    +0.000 NA
ATOM     29  H   UNL     1       4.660   5.238  16.337  0.00  0.00    +0.000 HD
BRANCH  28  30
ATOM     30  C   UNL     1       6.775   5.181  16.685  0.00  0.00    +0.000 C 
ATOM     31  C   UNL     1       7.094   4.973  15.206  0.00  0.00    +0.000 C 
ATOM     32  C   UNL     1       6.964   6.678  17.011  0.00  0.00    +0.000 C 
ATOM     33  C   UNL     1       7.729   4.390  17.583  0.00  0.00    +0.000 C 
ENDBRANCH  28  30
ENDBRANCH  25  28
ENDBRANCH  22  25
ENDBRANCH  18  19
ENDBRANCH   1  18
TORSDOF 8
ENDMDL
MODEL 9
REMARK VINA RESULT:      -7.0      2.516      3.733
REMARK  Name = 
REMARK  12 active torsions:
REMARK  status: ('A' for Active; 'I' for Inactive)
REMARK    1  A    between atoms: C_1  and  O_2
REMARK    2  A    between atoms: O_2  and  C_3
REMARK    3  A    between atoms: C_8  and  N_9
REMARK    4  A    between atoms: C_13  and  C_15
REMARK    5  A    between atoms: C_15  and  O_16
REMARK    6  A    between atoms: O_16  and  C_17
REMARK    7  A    between atoms: C_20  and  S_21
REMARK    8  A    between atoms: S_21  and  N_24
REMARK    9  A    between atoms: N_24  and  C_25
REMARK   10  A    between atoms: C_25  and  C_26
REMARK   11  A    between atoms: C_25  and  C_27
REMARK   12  A    between atoms: C_25  and  C_28
REMARK                            x       y       z     vdW  Elec       q    Type
REMARK                         _______ _______ _______ _____ _____    ______ ____
ROOT
ATOM      1  C   UNL     1      -0.737  10.299  20.000  0.00  0.00    +0.000 C 
ENDROOT
BRANCH   1   6
ATOM      2  N   UNL     1      -3.503  13.967  22.374  0.00  0.00    +0.000 N 
ATOM      3  C   UNL     1      -3.776  14.065  20.931  0.00  0.00    +0.000 C 
ATOM      4  C   UNL     1      -2.501  13.715  20.143  0.00  0.00    +0.000 C 
ATOM      5  N   UNL     1      -1.940  12.421  20.547  0.00  0.00    +0.000 N 
ATOM      6  C   UNL     1      -1.317  11.645  19.576  0.00  0.00    +0.000 C 
ATOM      7  O   UNL     1      -1.284  11.985  18.390  0.00  0.00    +0.000 OA
ATOM      8  C   UNL     1      -1.750  12.268  22.005  0.00  0.00    +0.000 C 
ATOM      9  C   UNL     1      -3.023  12.641  22.798  0.00  0.00    +0.000 C 
BRANCH   2  15
ATOM     10  C   UNL     1      -3.186  15.603  24.199  0.00  0.00    +0.000 A 
ATOM     11  C   UNL     1      -3.740  16.592  25.032  0.00  0.00    +0.000 A 
ATOM     12  C   UNL     1      -5.093  16.918  24.955  0.00  0.00    +0.000 A 
ATOM     13  C   UNL     1      -5.909  16.243  24.063  0.00  0.00    +0.000 A 
ATOM     14  C   UNL     1      -5.372  15.244  23.247  0.00  0.00    +0.000 A 
ATOM     15  C   UNL     1      -4.004  14.897  23.276  0.00  0.00    +0.000 A 
BRANCH  10  17
ATOM     16  C   UNL     1      -1.135  15.584  25.425  0.00  0.00    +0.000 C 
ATOM     17  O   UNL     1      -1.846  15.288  24.231  0.00  0.00    +0.000 OA
ENDBRANCH  10  17
ENDBRANCH   2  15
ENDBRANCH   1   6
BRANCH   1  18
ATOM     18  O   UNL     1       0.683  10.379  20.051  0.00  0.00    +0.000 OA
BRANCH  18  19
ATOM     19  C   UNL     1       1.338   9.253  19.623  0.00  0.00    +0.000 A 
ATOM     20  C   UNL     1       1.443   8.219  20.556  0.00  0.00    +0.000 A 
ATOM     21  C   UNL     1       2.064   7.017  20.205  0.00  0.00    +0.000 A 
ATOM     22  C   UNL     1       2.547   6.837  18.905  0.00  0.00    +0.000 A 
ATOM     23  C   UNL     1       2.442   7.868  17.969  0.00  0.00    +0.000 A 
ATOM     24  C   UNL     1       1.833   9.075  18.329  0.00  0.00    +0.000 A 
BRANCH  22  25
ATOM     25  S   UNL     1       3.422   5.353  18.477  0.00  0.00    +0.000 S 
ATOM     26  O   UNL     1       3.941   5.547  17.139  0.00  0.00    +0.000 OA
ATOM     27  O   UNL     1       4.307   5.005  19.568  0.00  0.00    +0.000 OA
BRANCH  25  28
ATOM     28  N   UNL     1       2.237   4.169  18.314  0.00  0.00    +0.000 NA
ATOM     29  H   UNL     1       1.999   4.045  17.328  0.00  0.00    +0.000 HD
BRANCH  28  30
ATOM     30  C   UNL     1       2.073   2.985  19.190  0.00  0.00    +0.000 C 
ATOM     31  C   UNL     1       1.923   3.401  20.652  0.00  0.00    +0.000 C 
ATOM     32  C   UNL     1       0.770   2.281  18.756  0.00  0.00    +0.000 C 
ATOM     33  C   UNL     1       3.219   1.988  19.004  0.00  0.00    +0.000 C 
ENDBRANCH  28  30
ENDBRANCH  25  28
ENDBRANCH  22  25
ENDBRANCH  18  19
ENDBRANCH   1  18
TORSDOF 8
ENDMDL
