MODEL 1
REMARK VINA RESULT:      -7.4      0.000      0.000
REMARK  Name = 
REMARK  5 active torsions:
REMARK  status: ('A' for Active; 'I' for Inactive)
REMARK    1  A    between atoms: C_1  and  C_2
REMARK    2  A    between atoms: N_4  and  C_5
REMARK    3  A    between atoms: C_5  and  C_6
REMARK    4  A    between atoms: C_15  and  C_16
REMARK    5  A    between atoms: C_16  and  O_18
REMARK                            x       y       z     vdW  Elec       q    Type
REMARK                         _______ _______ _______ _____ _____    ______ ____
ROOT
ATOM      1  C   UNL     1       2.125   8.184  17.900  0.00  0.00    +0.000 C 
ATOM      2  C   UNL     1       3.072   7.075  18.185  0.00  0.00    +0.000 A 
ATOM      3  N   UNL     1       4.298   7.068  17.599  0.00  0.00    +0.000 NA
ATOM      4  N   UNL     1       4.899   5.939  18.087  0.00  0.00    +0.000 N 
ATOM      5  C   UNL     1       4.082   5.267  18.918  0.00  0.00    +0.000 A 
ATOM      6  S   UNL     1       4.152   3.877  19.804  0.00  0.00    +0.000 S 
ATOM      7  C   UNL     1       2.524   4.168  20.363  0.00  0.00    +0.000 A 
ATOM      8  C   UNL     1       1.988   5.353  19.828  0.00  0.00    +0.000 A 
ATOM      9  C   UNL     1       2.940   5.949  18.998  0.00  0.00    +0.000 A 
ENDROOT
BRANCH   7  10
ATOM     10  C   UNL     1       1.907   3.222  21.271  0.00  0.00    +0.000 C 
ATOM     11  O   UNL     1       2.451   2.735  22.254  0.00  0.00    +0.000 OA
BRANCH  10  12
ATOM     12  O   UNL     1       0.628   2.907  20.937  0.00  0.00    +0.000 OA
ATOM     13  H   UNL     1       0.573   2.014  20.543  0.00  0.00    +0.000 HD
ENDBRANCH  10  12
ENDBRANCH   7  10
BRANCH   4  14
ATOM     14  C   UNL     1       6.222   5.511  17.661  0.00  0.00    +0.000 C 
BRANCH  14  15
ATOM     15  C   UNL     1       6.221   4.991  16.242  0.00  0.00    +0.000 A 
ATOM     16  C   UNL     1       7.264   5.307  15.355  0.00  0.00    +0.000 A 
ATOM     17  C   UNL     1       7.267   4.797  14.055  0.00  0.00    +0.000 A 
ATOM     18  C   UNL     1       6.223   3.976  13.631  0.00  0.00    +0.000 A 
ATOM     19 CL   UNL     1       6.231   3.339  12.033  0.00  0.00    +0.000 Cl
ATOM     20  C   UNL     1       5.177   3.663  14.495  0.00  0.00    +0.000 A 
ATOM     21  C   UNL     1       5.174   4.172  15.793  0.00  0.00    +0.000 A 
ENDBRANCH  14  15
ENDBRANCH   4  14
TORSDOF 4
ENDMDL
MODEL 2
REMARK VINA RESULT:      -7.4      0.133      1.089
REMARK  Name = 
REMARK  5 active torsions:
REMARK  status: ('A' for Active; 'I' for Inactive)
REMARK    1  A    between atoms: C_1  and  C_2
REMARK    2  A    between atoms: N_4  and  C_5
REMARK    3  A    between atoms: C_5  and  C_6
REMARK    4  A    between atoms: C_15  and  C_16
REMARK    5  A    between atoms: C_16  and  O_18
REMARK                            x       y       z     vdW  Elec       q    Type
REMARK                         _______ _______ _______ _____ _____    ______ ____
ROOT
ATOM      1  C   UNL     1       2.274   8.313  17.833  0.00  0.00    +0.000 C 
ATOM      2  C   UNL     1       3.179   7.175  18.134  0.00  0.00    +0.000 A 
ATOM      3  N   UNL     1       4.407   7.118  17.556  0.00  0.00    +0.000 NA
ATOM      4  N   UNL     1       4.965   5.973  18.059  0.00  0.00    +0.000 N 
ATOM      5  C   UNL     1       4.120   5.340  18.892  0.00  0.00    +0.000 A 
ATOM      6  S   UNL     1       4.135   3.957  19.792  0.00  0.00    +0.000 S 
ATOM      7  C   UNL     1       2.516   4.312  20.339  0.00  0.00    +0.000 A 
ATOM      8  C   UNL     1       2.025   5.510  19.788  0.00  0.00    +0.000 A 
ATOM      9  C   UNL     1       3.003   6.062  18.958  0.00  0.00    +0.000 A 
ENDROOT
BRANCH   7  10
ATOM     10  C   UNL     1       1.860   3.397  21.252  0.00  0.00    +0.000 C 
ATOM     11  O   UNL     1       2.333   3.004  22.311  0.00  0.00    +0.000 OA
BRANCH  10  12
ATOM     12  O   UNL     1       0.632   2.998  20.830  0.00  0.00    +0.000 OA
ATOM     13  H   UNL     1       0.286   2.269  21.382  0.00  0.00    +0.000 HD
ENDBRANCH  10  12
ENDBRANCH   7  10
BRANCH   4  14
ATOM     14  C   UNL     1       6.275   5.495  17.645  0.00  0.00    +0.000 C 
BRANCH  14  15
ATOM     15  C   UNL     1       6.258   4.941  16.239  0.00  0.00    +0.000 A 
ATOM     16  C   UNL     1       5.244   4.064  15.820  0.00  0.00    +0.000 A 
ATOM     17  C   UNL     1       5.223   3.581  14.509  0.00  0.00    +0.000 A 
ATOM     18  C   UNL     1       6.220   3.965  13.614  0.00  0.00    +0.000 A 
ATOM     19 CL   UNL     1       6.189   3.379  11.996  0.00  0.00    +0.000 Cl
ATOM     20  C   UNL     1       7.238   4.825  14.018  0.00  0.00    +0.000 A 
ATOM     21  C   UNL     1       7.259   5.307  15.327  0.00  0.00    +0.000 A 
ENDBRANCH  14  15
ENDBRANCH   4  14
TORSDOF 4
ENDMDL
MODEL 3
REMARK VINA RESULT:      -7.1      4.432      6.854
REMARK  Name = 
REMARK  5 active torsions:
REMARK  status: ('A' for Active; 'I' for Inactive)
REMARK    1  A    between atoms: C_1  and  C_2
REMARK    2  A    between atoms: N_4  and  C_5
REMARK    3  A    between atoms: C_5  and  C_6
REMARK    4  A    between atoms: C_15  and  C_16
REMARK    5  A    between atoms: C_16  and  O_18
REMARK                            x       y       z     vdW  Elec       q    Type
REMARK                         _______ _______ _______ _____ _____    ______ ____
ROOT
ATOM      1  C   UNL     1       7.954   5.577  19.843  0.00  0.00    +0.000 C 
ATOM      2  C   UNL     1       6.732   5.386  19.022  0.00  0.00    +0.000 A 
ATOM      3  N   UNL     1       5.509   5.418  19.614  0.00  0.00    +0.000 NA
ATOM      4  N   UNL     1       4.628   5.229  18.583  0.00  0.00    +0.000 N 
ATOM      5  C   UNL     1       5.271   5.069  17.411  0.00  0.00    +0.000 A 
ATOM      6  S   UNL     1       4.849   4.795  15.841  0.00  0.00    +0.000 S 
ATOM      7  C   UNL     1       6.539   4.787  15.402  0.00  0.00    +0.000 A 
ATOM      8  C   UNL     1       7.371   5.003  16.515  0.00  0.00    +0.000 A 
ATOM      9  C   UNL     1       6.578   5.162  17.653  0.00  0.00    +0.000 A 
ENDROOT
BRANCH   7  10
ATOM     10  C   UNL     1       6.911   4.572  14.018  0.00  0.00    +0.000 C 
ATOM     11  O   UNL     1       7.581   5.343  13.344  0.00  0.00    +0.000 OA
BRANCH  10  12
ATOM     12  O   UNL     1       6.445   3.402  13.508  0.00  0.00    +0.000 OA
ATOM     13  H   UNL     1       5.603   3.140  13.932  0.00  0.00    +0.000 HD
ENDBRANCH  10  12
ENDBRANCH   7  10
BRANCH   4  14
ATOM     14  C   UNL     1       3.192   5.131  18.789  0.00  0.00    +0.000 C 
BRANCH  14  15
ATOM     15  C   UNL     1       2.561   6.482  19.033  0.00  0.00    +0.000 A 
ATOM     16  C   UNL     1       2.056   6.826  20.298  0.00  0.00    +0.000 A 
ATOM     17  C   UNL     1       1.500   8.089  20.519  0.00  0.00    +0.000 A 
ATOM     18  C   UNL     1       1.438   9.010  19.475  0.00  0.00    +0.000 A 
ATOM     19 CL   UNL     1       0.762  10.569  19.749  0.00  0.00    +0.000 Cl
ATOM     20  C   UNL     1       1.922   8.679  18.213  0.00  0.00    +0.000 A 
ATOM     21  C   UNL     1       2.478   7.418  17.992  0.00  0.00    +0.000 A 
ENDBRANCH  14  15
ENDBRANCH   4  14
TORSDOF 4
ENDMDL
MODEL 4
REMARK VINA RESULT:      -7.1      4.665      7.142
REMARK  Name = 
REMARK  5 active torsions:
REMARK  status: ('A' for Active; 'I' for Inactive)
REMARK    1  A    between atoms: C_1  and  C_2
REMARK    2  A    between atoms: N_4  and  C_5
REMARK    3  A    between atoms: C_5  and  C_6
REMARK    4  A    between atoms: C_15  and  C_16
REMARK    5  A    between atoms: C_16  and  O_18
REMARK                            x       y       z     vdW  Elec       q    Type
REMARK                         _______ _______ _______ _____ _____    ______ ____
ROOT
ATOM      1  C   UNL     1       1.622   3.336  18.585  0.00  0.00    +0.000 C 
ATOM      2  C   UNL     1       2.361   4.587  18.276  0.00  0.00    +0.000 A 
ATOM      3  N   UNL     1       1.727   5.786  18.367  0.00  0.00    +0.000 NA
ATOM      4  N   UNL     1       2.688   6.703  18.038  0.00  0.00    +0.000 N 
ATOM      5  C   UNL     1       3.856   6.105  17.739  0.00  0.00    +0.000 A 
ATOM      6  S   UNL     1       5.360   6.585  17.261  0.00  0.00    +0.000 S 
ATOM      7  C   UNL     1       5.865   4.914  17.220  0.00  0.00    +0.000 A 
ATOM      8  C   UNL     1       4.824   4.041  17.586  0.00  0.00    +0.000 A 
ATOM      9  C   UNL     1       3.683   4.792  17.878  0.00  0.00    +0.000 A 
ENDROOT
BRANCH   7  10
ATOM     10  C   UNL     1       7.225   4.594  16.836  0.00  0.00    +0.000 C 
ATOM     11  O   UNL     1       7.697   4.764  15.719  0.00  0.00    +0.000 OA
BRANCH  10  12
ATOM     12  O   UNL     1       7.966   4.075  17.850  0.00  0.00    +0.000 OA
ATOM     13  H   UNL     1       7.417   3.532  18.450  0.00  0.00    +0.000 HD
ENDBRANCH  10  12
ENDBRANCH   7  10
BRANCH   4  14
ATOM     14  C   UNL     1       2.411   8.128  17.948  0.00  0.00    +0.000 C 
BRANCH  14  15
ATOM     15  C   UNL     1       1.649   8.634  19.150  0.00  0.00    +0.000 A 
ATOM     16  C   UNL     1       0.730   9.691  19.030  0.00  0.00    +0.000 A 
ATOM     17  C   UNL     1       0.010  10.132  20.143  0.00  0.00    +0.000 A 
ATOM     18  C   UNL     1       0.210   9.526  21.382  0.00  0.00    +0.000 A 
ATOM     19 CL   UNL     1      -0.683  10.062  22.751  0.00  0.00    +0.000 Cl
ATOM     20  C   UNL     1       1.126   8.486  21.519  0.00  0.00    +0.000 A 
ATOM     21  C   UNL     1       1.845   8.045  20.408  0.00  0.00    +0.000 A 
ENDBRANCH  14  15
ENDBRANCH   4  14
TORSDOF 4
ENDMDL
MODEL 5
REMARK VINA RESULT:      -7.0      4.404      6.794
REMARK  Name = 
REMARK  5 active torsions:
REMARK  status: ('A' for Active; 'I' for Inactive)
REMARK    1  A    between atoms: C_1  and  C_2
REMARK    2  A    between atoms: N_4  and  C_5
REMARK    3  A    between atoms: C_5  and  C_6
REMARK    4  A    between atoms: C_15  and  C_16
REMARK    5  A    between atoms: C_16  and  O_18
REMARK                            x       y       z     vdW  Elec       q    Type
REMARK                         _______ _______ _______ _____ _____    ______ ____
ROOT
ATOM      1  C   UNL     1       8.148   5.563  19.731  0.00  0.00    +0.000 C 
ATOM      2  C   UNL     1       6.884   5.376  18.975  0.00  0.00    +0.000 A 
ATOM      3  N   UNL     1       5.693   5.419  19.629  0.00  0.00    +0.000 NA
ATOM      4  N   UNL     1       4.759   5.230  18.646  0.00  0.00    +0.000 N 
ATOM      5  C   UNL     1       5.339   5.060  17.444  0.00  0.00    +0.000 A 
ATOM      6  S   UNL     1       4.834   4.779  15.899  0.00  0.00    +0.000 S 
ATOM      7  C   UNL     1       6.499   4.758  15.374  0.00  0.00    +0.000 A 
ATOM      8  C   UNL     1       7.390   4.974  16.441  0.00  0.00    +0.000 A 
ATOM      9  C   UNL     1       6.657   5.145  17.617  0.00  0.00    +0.000 A 
ENDROOT
BRANCH   7  10
ATOM     10  C   UNL     1       6.797   4.532  13.973  0.00  0.00    +0.000 C 
ATOM     11  O   UNL     1       6.293   3.658  13.281  0.00  0.00    +0.000 OA
BRANCH  10  12
ATOM     12  O   UNL     1       7.711   5.402  13.468  0.00  0.00    +0.000 OA
ATOM     13  H   UNL     1       7.950   5.171  12.548  0.00  0.00    +0.000 HD
ENDBRANCH  10  12
ENDBRANCH   7  10
BRANCH   4  14
ATOM     14  C   UNL     1       3.335   5.143  18.927  0.00  0.00    +0.000 C 
BRANCH  14  15
ATOM     15  C   UNL     1       2.694   6.506  19.037  0.00  0.00    +0.000 A 
ATOM     16  C   UNL     1       2.689   7.393  17.947  0.00  0.00    +0.000 A 
ATOM     17  C   UNL     1       2.068   8.640  18.051  0.00  0.00    +0.000 A 
ATOM     18  C   UNL     1       1.457   9.011  19.247  0.00  0.00    +0.000 A 
ATOM     19 CL   UNL     1       0.683  10.543  19.374  0.00  0.00    +0.000 Cl
ATOM     20  C   UNL     1       1.464   8.148  20.340  0.00  0.00    +0.000 A 
ATOM     21  C   UNL     1       2.084   6.903  20.236  0.00  0.00    +0.000 A 
ENDBRANCH  14  15
ENDBRANCH   4  14
TORSDOF 4
ENDMDL
MODEL 6
REMARK VINA RESULT:      -6.7      5.479      7.082
REMARK  Name = 
REMARK  5 active torsions:
REMARK  status: ('A' for Active; 'I' for Inactive)
REMARK    1  A    between atoms: C_1  and  C_2
REMARK    2  A    between atoms: N_4  and  C_5
REMARK    3  A    between atoms: C_5  and  C_6
REMARK    4  A    between atoms: C_15  and  C_16
REMARK    5  A    between atoms: C_16  and  O_18
REMARK                            x       y       z     vdW  Elec       q    Type
REMARK                         _______ _______ _______ _____ _____    ______ ____
ROOT
ATOM      1  C   UNL     1      -0.099   9.601  23.289  0.00  0.00    +0.000 C 
ATOM      2  C   UNL     1       0.384   9.345  21.907  0.00  0.00    +0.000 A 
ATOM      3  N   UNL     1       1.361   8.426  21.693  0.00  0.00    +0.000 NA
ATOM      4  N   UNL     1       1.543   8.435  20.336  0.00  0.00    +0.000 N 
ATOM      5  C   UNL     1       0.734   9.329  19.738  0.00  0.00    +0.000 A 
ATOM      6  S   UNL     1       0.455   9.851  18.199  0.00  0.00    +0.000 S 
ATOM      7  C   UNL     1      -0.747  10.961  18.807  0.00  0.00    +0.000 A 
ATOM      8  C   UNL     1      -0.881  10.876  20.205  0.00  0.00    +0.000 A 
ATOM      9  C   UNL     1       0.003   9.909  20.688  0.00  0.00    +0.000 A 
ENDROOT
BRANCH   7  10
ATOM     10  C   UNL     1      -1.454  11.819  17.878  0.00  0.00    +0.000 C 
ATOM     11  O   UNL     1      -2.246  11.432  17.029  0.00  0.00    +0.000 OA
BRANCH  10  12
ATOM     12  O   UNL     1      -1.163  13.138  18.030  0.00  0.00    +0.000 OA
ATOM     13  H   UNL     1      -1.977  13.679  18.067  0.00  0.00    +0.000 HD
ENDBRANCH  10  12
ENDBRANCH   7  10
BRANCH   4  14
ATOM     14  C   UNL     1       2.558   7.629  19.678  0.00  0.00    +0.000 C 
BRANCH  14  15
ATOM     15  C   UNL     1       2.086   6.215  19.428  0.00  0.00    +0.000 A 
ATOM     16  C   UNL     1       2.155   5.646  18.145  0.00  0.00    +0.000 A 
ATOM     17  C   UNL     1       1.741   4.329  17.932  0.00  0.00    +0.000 A 
ATOM     18  C   UNL     1       1.249   3.577  18.997  0.00  0.00    +0.000 A 
ATOM     19 CL   UNL     1       0.749   1.951  18.737  0.00  0.00    +0.000 Cl
ATOM     20  C   UNL     1       1.164   4.131  20.271  0.00  0.00    +0.000 A 
ATOM     21  C   UNL     1       1.577   5.446  20.485  0.00  0.00    +0.000 A 
ENDBRANCH  14  15
ENDBRANCH   4  14
TORSDOF 4
ENDMDL
MODEL 7
REMARK VINA RESULT:      -6.6      4.786      7.296
REMARK  Name = 
REMARK  5 active torsions:
REMARK  status: ('A' for Active; 'I' for Inactive)
REMARK    1  A    between atoms: C_1  and  C_2
REMARK    2  A    between atoms: N_4  and  C_5
REMARK    3  A    between atoms: C_5  and  C_6
REMARK    4  A    between atoms: C_15  and  C_16
REMARK    5  A    between atoms: C_16  and  O_18
REMARK                            x       y       z     vdW  Elec       q    Type
REMARK                         _______ _______ _______ _____ _____    ______ ____
ROOT
ATOM      1  C   UNL     1       2.478   3.506  20.089  0.00  0.00    +0.000 C 
ATOM      2  C   UNL     1       2.902   4.709  19.330  0.00  0.00    +0.000 A 
ATOM      3  N   UNL     1       2.104   5.809  19.307  0.00  0.00    +0.000 NA
ATOM      4  N   UNL     1       2.795   6.714  18.547  0.00  0.00    +0.000 N 
ATOM      5  C   UNL     1       3.956   6.197  18.103  0.00  0.00    +0.000 A 
ATOM      6  S   UNL     1       5.212   6.706  17.164  0.00  0.00    +0.000 S 
ATOM      7  C   UNL     1       5.980   5.152  17.372  0.00  0.00    +0.000 A 
ATOM      8  C   UNL     1       5.212   4.291  18.177  0.00  0.00    +0.000 A 
ATOM      9  C   UNL     1       4.049   4.955  18.573  0.00  0.00    +0.000 A 
ENDROOT
BRANCH   7  10
ATOM     10  C   UNL     1       7.258   4.902  16.737  0.00  0.00    +0.000 C 
ATOM     11  O   UNL     1       8.140   4.187  17.193  0.00  0.00    +0.000 OA
BRANCH  10  12
ATOM     12  O   UNL     1       7.406   5.543  15.548  0.00  0.00    +0.000 OA
ATOM     13  H   UNL     1       8.055   6.272  15.615  0.00  0.00    +0.000 HD
ENDBRANCH  10  12
ENDBRANCH   7  10
BRANCH   4  14
ATOM     14  C   UNL     1       2.260   8.024  18.212  0.00  0.00    +0.000 C 
BRANCH  14  15
ATOM     15  C   UNL     1       1.508   8.641  19.368  0.00  0.00    +0.000 A 
ATOM     16  C   UNL     1       1.671   8.157  20.677  0.00  0.00    +0.000 A 
ATOM     17  C   UNL     1       0.991   8.754  21.742  0.00  0.00    +0.000 A 
ATOM     18  C   UNL     1       0.139   9.831  21.503  0.00  0.00    +0.000 A 
ATOM     19 CL   UNL     1      -0.690  10.573  22.815  0.00  0.00    +0.000 Cl
ATOM     20  C   UNL     1      -0.041  10.314  20.210  0.00  0.00    +0.000 A 
ATOM     21  C   UNL     1       0.637   9.719  19.146  0.00  0.00    +0.000 A 
ENDBRANCH  14  15
ENDBRANCH   4  14
TORSDOF 4
ENDMDL
MODEL 8
REMARK VINA RESULT:      -6.6      3.848      6.205
REMARK  Name = 
REMARK  5 active torsions:
REMARK  status: ('A' for Active; 'I' for Inactive)
REMARK    1  A    between atoms: C_1  and  C_2
REMARK    2  A    between atoms: N_4  and  C_5
REMARK    3  A    between atoms: C_5  and  C_6
REMARK    4  A    between atoms: C_15  and  C_16
REMARK    5  A    between atoms: C_16  and  O_18
REMARK                            x       y       z     vdW  Elec       q    Type
REMARK                         _______ _______ _______ _____ _____    ______ ____
ROOT
ATOM      1  C   UNL     1       6.225   4.021  14.061  0.00  0.00    +0.000 C 
ATOM      2  C   UNL     1       5.603   4.165  15.402  0.00  0.00    +0.000 A 
ATOM      3  N   UNL     1       4.287   3.873  15.571  0.00  0.00    +0.000 NA
ATOM      4  N   UNL     1       4.058   4.096  16.902  0.00  0.00    +0.000 N 
ATOM      5  C   UNL     1       5.171   4.524  17.526  0.00  0.00    +0.000 A 
ATOM      6  S   UNL     1       5.587   4.979  19.056  0.00  0.00    +0.000 S 
ATOM      7  C   UNL     1       7.215   5.289  18.507  0.00  0.00    +0.000 A 
ATOM      8  C   UNL     1       7.366   5.020  17.134  0.00  0.00    +0.000 A 
ATOM      9  C   UNL     1       6.146   4.577  16.620  0.00  0.00    +0.000 A 
ENDROOT
BRANCH   7  10
ATOM     10  C   UNL     1       8.203   5.766  19.453  0.00  0.00    +0.000 C 
ATOM     11  O   UNL     1       8.660   5.111  20.380  0.00  0.00    +0.000 OA
BRANCH  10  12
ATOM     12  O   UNL     1       8.602   7.044  19.220  0.00  0.00    +0.000 OA
ATOM     13  H   UNL     1       9.408   7.263  19.729  0.00  0.00    +0.000 HD
ENDBRANCH  10  12
ENDBRANCH   7  10
BRANCH   4  14
ATOM     14  C   UNL     1       2.741   3.960  17.503  0.00  0.00    +0.000 C 
BRANCH  14  15
ATOM     15  C   UNL     1       2.428   5.099  18.446  0.00  0.00    +0.000 A 
ATOM     16  C   UNL     1       2.527   6.435  18.023  0.00  0.00    +0.000 A 
ATOM     17  C   UNL     1       2.207   7.479  18.895  0.00  0.00    +0.000 A 
ATOM     18  C   UNL     1       1.796   7.193  20.195  0.00  0.00    +0.000 A 
ATOM     19 CL   UNL     1       1.393   8.477  21.267  0.00  0.00    +0.000 Cl
ATOM     20  C   UNL     1       1.705   5.874  20.632  0.00  0.00    +0.000 A 
ATOM     21  C   UNL     1       2.023   4.832  19.762  0.00  0.00    +0.000 A 
ENDBRANCH  14  15
ENDBRANCH   4  14
TORSDOF 4
ENDMDL
MODEL 9
REMARK VINA RESULT:      -6.6      1.006      1.035
REMARK  Name = 
REMARK  5 active torsions:
REMARK  status: ('A' for Active; 'I' for Inactive)
REMARK    1  A    between atoms: C_1  and  C_2
REMARK    2  A    between atoms: N_4  and  C_5
REMARK    3  A    between atoms: C_5  and  C_6
REMARK    4  A    between atoms: C_15  and  C_16
REMARK    5  A    between atoms: C_16  and  O_18
REMARK                            x       y       z     vdW  Elec       q    Type
REMARK                         _______ _______ _______ _____ _____    ______ ____
ROOT
ATOM      1  C   UNL     1       2.532   8.385  17.755  0.00  0.00    +0.000 C 
ATOM      2  C   UNL     1       3.323   7.131  17.855  0.00  0.00    +0.000 A 
ATOM      3  N   UNL     1       4.619   7.117  17.447  0.00  0.00    +0.000 NA
ATOM      4  N   UNL     1       5.037   5.836  17.691  0.00  0.00    +0.000 N 
ATOM      5  C   UNL     1       4.045   5.086  18.207  0.00  0.00    +0.000 A 
ATOM      6  S   UNL     1       3.856   3.522  18.696  0.00  0.00    +0.000 S 
ATOM      7  C   UNL     1       2.193   3.866  19.103  0.00  0.00    +0.000 A 
ATOM      8  C   UNL     1       1.853   5.204  18.836  0.00  0.00    +0.000 A 
ATOM      9  C   UNL     1       2.969   5.863  18.320  0.00  0.00    +0.000 A 
ENDROOT
BRANCH   7  10
ATOM     10  C   UNL     1       1.364   2.808  19.644  0.00  0.00    +0.000 C 
ATOM     11  O   UNL     1       1.567   1.610  19.494  0.00  0.00    +0.000 OA
BRANCH  10  12
ATOM     12  O   UNL     1       0.304   3.265  20.362  0.00  0.00    +0.000 OA
ATOM     13  H   UNL     1      -0.031   4.110  20.002  0.00  0.00    +0.000 HD
ENDBRANCH  10  12
ENDBRANCH   7  10
BRANCH   4  14
ATOM     14  C   UNL     1       6.367   5.366  17.338  0.00  0.00    +0.000 C 
BRANCH  14  15
ATOM     15  C   UNL     1       6.449   4.931  15.893  0.00  0.00    +0.000 A 
ATOM     16  C   UNL     1       7.487   5.384  15.060  0.00  0.00    +0.000 A 
ATOM     17  C   UNL     1       7.568   4.953  13.734  0.00  0.00    +0.000 A 
ATOM     18  C   UNL     1       6.611   4.074  13.231  0.00  0.00    +0.000 A 
ATOM     19 CL   UNL     1       6.717   3.534  11.601  0.00  0.00    +0.000 Cl
ATOM     20  C   UNL     1       5.571   3.626  14.041  0.00  0.00    +0.000 A 
ATOM     21  C   UNL     1       5.488   4.056  15.365  0.00  0.00    +0.000 A 
ENDBRANCH  14  15
ENDBRANCH   4  14
TORSDOF 4
ENDMDL
