MODEL 1
REMARK VINA RESULT:      -8.6      0.000      0.000
REMARK  Name = 
REMARK  9 active torsions:
REMARK  status: ('A' for Active; 'I' for Inactive)
REMARK    1  A    between atoms: C_1  and  C_2
REMARK    2  A    between atoms: C_5  and  C_7
REMARK    3  A    between atoms: C_7  and  O_8
REMARK    4  A    between atoms: O_8  and  C_9
REMARK    5  A    between atoms: C_9  and  C_11
REMARK    6  A    between atoms: C_13  and  O_14
REMARK    7  A    between atoms: N_16  and  S_17
REMARK    8  A    between atoms: S_17  and  C_20
REMARK    9  A    between atoms: C_31  and  C_32
REMARK                            x       y       z     vdW  Elec       q    Type
REMARK                         _______ _______ _______ _____ _____    ______ ____
ROOT
ATOM      1  C   UNL     1       2.056   5.320  19.006  0.00  0.00    +0.000 C 
ATOM      2  C   UNL     1       1.286   4.631  20.146  0.00  0.00    +0.000 C 
ATOM      3  C   UNL     1       1.406   3.138  19.886  0.00  0.00    +0.000 C 
ATOM      4  C   UNL     1       2.223   3.007  18.602  0.00  0.00    +0.000 C 
ATOM      5  N   UNL     1       3.007   4.276  18.478  0.00  0.00    +0.000 NA
ENDROOT
BRANCH   5   6
ATOM      6  S   UNL     1       4.589   4.208  19.109  0.00  0.00    +0.000 S 
ATOM      7  O   UNL     1       4.831   5.365  19.939  0.00  0.00    +0.000 OA
ATOM      8  O   UNL     1       4.789   2.866  19.610  0.00  0.00    +0.000 OA
BRANCH   6   9
ATOM      9  C   UNL     1       5.643   4.437  17.682  0.00  0.00    +0.000 A 
ATOM     10  C   UNL     1       6.788   5.242  17.750  0.00  0.00    +0.000 A 
ATOM     11  C   UNL     1       7.523   5.497  16.584  0.00  0.00    +0.000 A 
ATOM     12  C   UNL     1       7.101   4.966  15.361  0.00  0.00    +0.000 A 
ATOM     13  C   UNL     1       5.975   4.139  15.308  0.00  0.00    +0.000 A 
ATOM     14  C   UNL     1       5.242   3.877  16.465  0.00  0.00    +0.000 A 
ATOM     15  O   UNL     1       5.504   3.576  14.151  0.00  0.00    +0.000 OA
ATOM     16  C   UNL     1       6.419   3.721  13.059  0.00  0.00    +0.000 C 
ATOM     17  C   UNL     1       7.061   5.099  13.052  0.00  0.00    +0.000 C 
ATOM     18  O   UNL     1       7.825   5.309  14.247  0.00  0.00    +0.000 OA
ENDBRANCH   6   9
ENDBRANCH   5   6
BRANCH   1  19
ATOM     19  C   UNL     1       2.304   6.751  19.406  0.00  0.00    +0.000 C 
ATOM     20  O   UNL     1       2.701   7.583  18.591  0.00  0.00    +0.000 OA
BRANCH  19  21
ATOM     21  O   UNL     1       2.059   7.031  20.699  0.00  0.00    +0.000 OA
BRANCH  21  22
ATOM     22  C   UNL     1       0.878   7.790  20.953  0.00  0.00    +0.000 C 
BRANCH  22  27
ATOM     23  C   UNL     1      -0.974  11.834  22.234  0.00  0.00    +0.000 C 
ATOM     24  C   UNL     1      -0.238  12.310  20.983  0.00  0.00    +0.000 C 
ATOM     25  C   UNL     1       1.128  11.629  20.787  0.00  0.00    +0.000 C 
ATOM     26  N   UNL     1       0.951  10.231  20.400  0.00  0.00    +0.000 N 
ATOM     27  C   UNL     1       1.145   9.243  21.357  0.00  0.00    +0.000 C 
ATOM     28  O   UNL     1       1.494   9.513  22.508  0.00  0.00    +0.000 OA
ATOM     29  C   UNL     1       0.135  10.081  19.191  0.00  0.00    +0.000 C 
ATOM     30  C   UNL     1      -1.225  10.790  19.382  0.00  0.00    +0.000 C 
ATOM     31  C   UNL     1      -2.016  10.811  18.081  0.00  0.00    +0.000 C 
ATOM     32  O   UNL     1      -1.056  12.159  19.803  0.00  0.00    +0.000 OA
ENDBRANCH  22  27
ENDBRANCH  21  22
ENDBRANCH  19  21
ENDBRANCH   1  19
BRANCH   3  33
ATOM     33  O   UNL     1       0.127   2.528  19.761  0.00  0.00    +0.000 OA
ATOM     34  H   UNL     1      -0.558   3.156  20.049  0.00  0.00    +0.000 HD
ENDBRANCH   3  33
TORSDOF 7
ENDMDL
MODEL 2
REMARK VINA RESULT:      -8.4      1.097      1.826
REMARK  Name = 
REMARK  9 active torsions:
REMARK  status: ('A' for Active; 'I' for Inactive)
REMARK    1  A    between atoms: C_1  and  C_2
REMARK    2  A    between atoms: C_5  and  C_7
REMARK    3  A    between atoms: C_7  and  O_8
REMARK    4  A    between atoms: O_8  and  C_9
REMARK    5  A    between atoms: C_9  and  C_11
REMARK    6  A    between atoms: C_13  and  O_14
REMARK    7  A    between atoms: N_16  and  S_17
REMARK    8  A    between atoms: S_17  and  C_20
REMARK    9  A    between atoms: C_31  and  C_32
REMARK                            x       y       z     vdW  Elec       q    Type
REMARK                         _______ _______ _______ _____ _____    ______ ____
ROOT
ATOM      1  C   UNL     1       1.907   4.890  18.988  0.00  0.00    +0.000 C 
ATOM      2  C   UNL     1       1.192   3.738  19.716  0.00  0.00    +0.000 C 
ATOM      3  C   UNL     1       1.499   2.484  18.912  0.00  0.00    +0.000 C 
ATOM      4  C   UNL     1       2.363   2.946  17.740  0.00  0.00    +0.000 C 
ATOM      5  N   UNL     1       2.991   4.234  18.171  0.00  0.00    +0.000 NA
ENDROOT
BRANCH   5   6
ATOM      6  S   UNL     1       4.551   4.084  18.843  0.00  0.00    +0.000 S 
ATOM      7  O   UNL     1       4.790   5.171  19.764  0.00  0.00    +0.000 OA
ATOM      8  O   UNL     1       4.708   2.704  19.249  0.00  0.00    +0.000 OA
BRANCH   6   9
ATOM      9  C   UNL     1       5.655   4.393  17.470  0.00  0.00    +0.000 A 
ATOM     10  C   UNL     1       6.734   5.278  17.595  0.00  0.00    +0.000 A 
ATOM     11  C   UNL     1       7.505   5.590  16.466  0.00  0.00    +0.000 A 
ATOM     12  C   UNL     1       7.183   5.035  15.224  0.00  0.00    +0.000 A 
ATOM     13  C   UNL     1       6.123   4.129  15.116  0.00  0.00    +0.000 A 
ATOM     14  C   UNL     1       5.355   3.811  16.234  0.00  0.00    +0.000 A 
ATOM     15  O   UNL     1       5.751   3.539  13.936  0.00  0.00    +0.000 OA
ATOM     16  C   UNL     1       6.706   3.753  12.891  0.00  0.00    +0.000 C 
ATOM     17  C   UNL     1       7.246   5.174  12.916  0.00  0.00    +0.000 C 
ATOM     18  O   UNL     1       7.935   5.434  14.147  0.00  0.00    +0.000 OA
ENDBRANCH   6   9
ENDBRANCH   5   6
BRANCH   1  19
ATOM     19  C   UNL     1       1.968   6.068  19.923  0.00  0.00    +0.000 C 
ATOM     20  O   UNL     1       1.776   5.936  21.132  0.00  0.00    +0.000 OA
BRANCH  19  21
ATOM     21  O   UNL     1       2.245   7.247  19.337  0.00  0.00    +0.000 OA
BRANCH  21  22
ATOM     22  C   UNL     1       1.706   8.399  19.983  0.00  0.00    +0.000 C 
BRANCH  22  27
ATOM     23  C   UNL     1       1.323  12.915  19.043  0.00  0.00    +0.000 C 
ATOM     24  C   UNL     1      -0.165  12.570  19.103  0.00  0.00    +0.000 C 
ATOM     25  C   UNL     1      -0.493  11.192  18.503  0.00  0.00    +0.000 C 
ATOM     26  N   UNL     1      -0.002  10.126  19.373  0.00  0.00    +0.000 N 
ATOM     27  C   UNL     1       1.164   9.459  19.019  0.00  0.00    +0.000 C 
ATOM     28  O   UNL     1       1.771   9.719  17.978  0.00  0.00    +0.000 OA
ATOM     29  C   UNL     1      -0.534  10.222  20.736  0.00  0.00    +0.000 C 
ATOM     30  C   UNL     1      -0.226  11.617  21.325  0.00  0.00    +0.000 C 
ATOM     31  C   UNL     1      -0.927  11.811  22.663  0.00  0.00    +0.000 C 
ATOM     32  O   UNL     1      -0.674  12.674  20.451  0.00  0.00    +0.000 OA
ENDBRANCH  22  27
ENDBRANCH  21  22
ENDBRANCH  19  21
ENDBRANCH   1  19
BRANCH   3  33
ATOM     33  O   UNL     1       0.307   1.847  18.469  0.00  0.00    +0.000 OA
ATOM     34  H   UNL     1       0.158   2.059  17.530  0.00  0.00    +0.000 HD
ENDBRANCH   3  33
TORSDOF 7
ENDMDL
MODEL 3
REMARK VINA RESULT:      -8.3      3.113     10.901
REMARK  Name = 
REMARK  9 active torsions:
REMARK  status: ('A' for Active; 'I' for Inactive)
REMARK    1  A    between atoms: C_1  and  C_2
REMARK    2  A    between atoms: C_5  and  C_7
REMARK    3  A    between atoms: C_7  and  O_8
REMARK    4  A    between atoms: O_8  and  C_9
REMARK    5  A    between atoms: C_9  and  C_11
REMARK    6  A    between atoms: C_13  and  O_14
REMARK    7  A    between atoms: N_16  and  S_17
REMARK    8  A    between atoms: S_17  and  C_20
REMARK    9  A    between atoms: C_31  and  C_32
REMARK                            x       y       z     vdW  Elec       q    Type
REMARK                         _______ _______ _______ _____ _____    ______ ____
ROOT
ATOM      1  C   UNL     1      -0.045  10.139  19.603  0.00  0.00    +0.000 C 
ATOM      2  C   UNL     1       0.391  11.207  18.584  0.00  0.00    +0.000 C 
ATOM      3  C   UNL     1      -0.603  12.348  18.727  0.00  0.00    +0.000 C 
ATOM      4  C   UNL     1      -1.589  11.904  19.806  0.00  0.00    +0.000 C 
ATOM      5  N   UNL     1      -0.873  10.876  20.624  0.00  0.00    +0.000 NA
ENDROOT
BRANCH   5   6
ATOM      6  S   UNL     1      -0.110  11.476  22.025  0.00  0.00    +0.000 S 
ATOM      7  O   UNL     1       0.137  10.392  22.947  0.00  0.00    +0.000 OA
ATOM      8  O   UNL     1       0.957  12.350  21.586  0.00  0.00    +0.000 OA
BRANCH   6   9
ATOM      9  C   UNL     1      -1.363  12.476  22.817  0.00  0.00    +0.000 A 
ATOM     10  C   UNL     1      -2.568  11.912  23.258  0.00  0.00    +0.000 A 
ATOM     11  C   UNL     1      -3.576  12.745  23.762  0.00  0.00    +0.000 A 
ATOM     12  C   UNL     1      -3.384  14.129  23.805  0.00  0.00    +0.000 A 
ATOM     13  C   UNL     1      -2.168  14.680  23.392  0.00  0.00    +0.000 A 
ATOM     14  C   UNL     1      -1.159  13.858  22.892  0.00  0.00    +0.000 A 
ATOM     15  O   UNL     1      -1.901  16.024  23.410  0.00  0.00    +0.000 OA
ATOM     16  C   UNL     1      -2.896  16.770  24.122  0.00  0.00    +0.000 C 
ATOM     17  C   UNL     1      -4.295  16.255  23.822  0.00  0.00    +0.000 C 
ATOM     18  O   UNL     1      -4.436  14.893  24.247  0.00  0.00    +0.000 OA
ENDBRANCH   6   9
ENDBRANCH   5   6
BRANCH   1  19
ATOM     19  C   UNL     1       1.097   9.173  19.785  0.00  0.00    +0.000 C 
ATOM     20  O   UNL     1       1.240   8.544  20.833  0.00  0.00    +0.000 OA
BRANCH  19  21
ATOM     21  O   UNL     1       1.923   9.062  18.730  0.00  0.00    +0.000 OA
BRANCH  21  22
ATOM     22  C   UNL     1       1.924   7.793  18.077  0.00  0.00    +0.000 C 
BRANCH  22  27
ATOM     23  C   UNL     1       4.203   3.869  17.169  0.00  0.00    +0.000 C 
ATOM     24  C   UNL     1       4.366   3.878  18.689  0.00  0.00    +0.000 C 
ATOM     25  C   UNL     1       4.593   5.286  19.266  0.00  0.00    +0.000 C 
ATOM     26  N   UNL     1       3.365   6.073  19.189  0.00  0.00    +0.000 N 
ATOM     27  C   UNL     1       3.248   7.034  18.191  0.00  0.00    +0.000 C 
ATOM     28  O   UNL     1       4.165   7.260  17.397  0.00  0.00    +0.000 OA
ATOM     29  C   UNL     1       2.236   5.426  19.866  0.00  0.00    +0.000 C 
ATOM     30  C   UNL     1       2.030   4.002  19.302  0.00  0.00    +0.000 C 
ATOM     31  C   UNL     1       0.990   3.240  20.112  0.00  0.00    +0.000 C 
ATOM     32  O   UNL     1       3.250   3.233  19.340  0.00  0.00    +0.000 OA
ENDBRANCH  22  27
ENDBRANCH  21  22
ENDBRANCH  19  21
ENDBRANCH   1  19
BRANCH   3  33
ATOM     33  O   UNL     1      -1.259  12.623  17.495  0.00  0.00    +0.000 OA
ATOM     34  H   UNL     1      -0.846  12.099  16.787  0.00  0.00    +0.000 HD
ENDBRANCH   3  33
TORSDOF 7
ENDMDL
MODEL 4
REMARK VINA RESULT:      -8.1      1.132      1.455
REMARK  Name = 
REMARK  9 active torsions:
REMARK  status: ('A' for Active; 'I' for Inactive)
REMARK    1  A    between atoms: C_1  and  C_2
REMARK    2  A    between atoms: C_5  and  C_7
REMARK    3  A    between atoms: C_7  and  O_8
REMARK    4  A    between atoms: O_8  and  C_9
REMARK    5  A    between atoms: C_9  and  C_11
REMARK    6  A    between atoms: C_13  and  O_14
REMARK    7  A    between atoms: N_16  and  S_17
REMARK    8  A    between atoms: S_17  and  C_20
REMARK    9  A    between atoms: C_31  and  C_32
REMARK                            x       y       z     vdW  Elec       q    Type
REMARK                         _______ _______ _______ _____ _____    ______ ____
ROOT
ATOM      1  C   UNL     1       2.325   5.523  18.715  0.00  0.00    +0.000 C 
ATOM      2  C   UNL     1       1.569   5.269  20.032  0.00  0.00    +0.000 C 
ATOM      3  C   UNL     1       1.569   3.762  20.228  0.00  0.00    +0.000 C 
ATOM      4  C   UNL     1       2.306   3.189  19.019  0.00  0.00    +0.000 C 
ATOM      5  N   UNL     1       3.170   4.294  18.497  0.00  0.00    +0.000 NA
ENDROOT
BRANCH   5   6
ATOM      6  S   UNL     1       4.774   4.285  19.073  0.00  0.00    +0.000 S 
ATOM      7  O   UNL     1       5.012   5.468  19.868  0.00  0.00    +0.000 OA
ATOM      8  O   UNL     1       5.030   2.961  19.597  0.00  0.00    +0.000 OA
BRANCH   6   9
ATOM      9  C   UNL     1       5.771   4.509  17.605  0.00  0.00    +0.000 A 
ATOM     10  C   UNL     1       6.881   5.364  17.608  0.00  0.00    +0.000 A 
ATOM     11  C   UNL     1       7.566   5.610  16.410  0.00  0.00    +0.000 A 
ATOM     12  C   UNL     1       7.129   5.020  15.220  0.00  0.00    +0.000 A 
ATOM     13  C   UNL     1       6.040   4.144  15.233  0.00  0.00    +0.000 A 
ATOM     14  C   UNL     1       5.356   3.891  16.421  0.00  0.00    +0.000 A 
ATOM     15  O   UNL     1       5.557   3.522  14.111  0.00  0.00    +0.000 OA
ATOM     16  C   UNL     1       6.430   3.668  12.985  0.00  0.00    +0.000 C 
ATOM     17  C   UNL     1       7.009   5.072  12.911  0.00  0.00    +0.000 C 
ATOM     18  O   UNL     1       7.802   5.355  14.072  0.00  0.00    +0.000 OA
ENDBRANCH   6   9
ENDBRANCH   5   6
BRANCH   1  19
ATOM     19  C   UNL     1       2.693   6.982  18.661  0.00  0.00    +0.000 C 
ATOM     20  O   UNL     1       3.458   7.417  17.800  0.00  0.00    +0.000 OA
BRANCH  19  21
ATOM     21  O   UNL     1       2.128   7.748  19.611  0.00  0.00    +0.000 OA
BRANCH  21  22
ATOM     22  C   UNL     1       1.491   8.938  19.147  0.00  0.00    +0.000 C 
BRANCH  22  27
ATOM     23  C   UNL     1      -1.961  11.926  19.909  0.00  0.00    +0.000 C 
ATOM     24  C   UNL     1      -0.883  12.609  20.749  0.00  0.00    +0.000 C 
ATOM     25  C   UNL     1       0.025  11.615  21.495  0.00  0.00    +0.000 C 
ATOM     26  N   UNL     1       0.906  10.924  20.555  0.00  0.00    +0.000 N 
ATOM     27  C   UNL     1       0.601   9.618  20.192  0.00  0.00    +0.000 C 
ATOM     28  O   UNL     1      -0.368   9.021  20.666  0.00  0.00    +0.000 OA
ATOM     29  C   UNL     1       1.718  11.850  19.759  0.00  0.00    +0.000 C 
ATOM     30  C   UNL     1       0.804  12.863  19.034  0.00  0.00    +0.000 C 
ATOM     31  C   UNL     1       1.626  13.948  18.351  0.00  0.00    +0.000 C 
ATOM     32  O   UNL     1      -0.095  13.519  19.951  0.00  0.00    +0.000 OA
ENDBRANCH  22  27
ENDBRANCH  21  22
ENDBRANCH  19  21
ENDBRANCH   1  19
BRANCH   3  33
ATOM     33  O   UNL     1       0.246   3.251  20.329  0.00  0.00    +0.000 OA
ATOM     34  H   UNL     1       0.029   3.102  21.266  0.00  0.00    +0.000 HD
ENDBRANCH   3  33
TORSDOF 7
ENDMDL
MODEL 5
REMARK VINA RESULT:      -7.9      3.138     10.842
REMARK  Name = 
REMARK  9 active torsions:
REMARK  status: ('A' for Active; 'I' for Inactive)
REMARK    1  A    between atoms: C_1  and  C_2
REMARK    2  A    between atoms: C_5  and  C_7
REMARK    3  A    between atoms: C_7  and  O_8
REMARK    4  A    between atoms: O_8  and  C_9
REMARK    5  A    between atoms: C_9  and  C_11
REMARK    6  A    between atoms: C_13  and  O_14
REMARK    7  A    between atoms: N_16  and  S_17
REMARK    8  A    between atoms: S_17  and  C_20
REMARK    9  A    between atoms: C_31  and  C_32
REMARK                            x       y       z     vdW  Elec       q    Type
REMARK                         _______ _______ _______ _____ _____    ______ ____
ROOT
ATOM      1  C   UNL     1      -0.045  10.172  19.532  0.00  0.00    +0.000 C 
ATOM      2  C   UNL     1       0.370  11.209  18.474  0.00  0.00    +0.000 C 
ATOM      3  C   UNL     1      -0.628  12.350  18.595  0.00  0.00    +0.000 C 
ATOM      4  C   UNL     1      -1.597  11.935  19.701  0.00  0.00    +0.000 C 
ATOM      5  N   UNL     1      -0.863  10.937  20.541  0.00  0.00    +0.000 NA
ENDROOT
BRANCH   5   6
ATOM      6  S   UNL     1      -0.083  11.586  21.911  0.00  0.00    +0.000 S 
ATOM      7  O   UNL     1      -0.272  10.705  23.041  0.00  0.00    +0.000 OA
ATOM      8  O   UNL     1       1.238  12.001  21.491  0.00  0.00    +0.000 OA
BRANCH   6   9
ATOM      9  C   UNL     1      -1.031  13.050  22.307  0.00  0.00    +0.000 A 
ATOM     10  C   UNL     1      -0.454  14.325  22.243  0.00  0.00    +0.000 A 
ATOM     11  C   UNL     1      -1.189  15.438  22.677  0.00  0.00    +0.000 A 
ATOM     12  C   UNL     1      -2.479  15.269  23.187  0.00  0.00    +0.000 A 
ATOM     13  C   UNL     1      -3.058  13.996  23.218  0.00  0.00    +0.000 A 
ATOM     14  C   UNL     1      -2.336  12.886  22.785  0.00  0.00    +0.000 A 
ATOM     15  O   UNL     1      -4.319  13.751  23.695  0.00  0.00    +0.000 OA
ATOM     16  C   UNL     1      -5.062  14.954  23.924  0.00  0.00    +0.000 C 
ATOM     17  C   UNL     1      -4.190  16.036  24.541  0.00  0.00    +0.000 C 
ATOM     18  O   UNL     1      -3.118  16.389  23.657  0.00  0.00    +0.000 OA
ENDBRANCH   6   9
ENDBRANCH   5   6
BRANCH   1  19
ATOM     19  C   UNL     1       1.103   9.219  19.729  0.00  0.00    +0.000 C 
ATOM     20  O   UNL     1       1.263   8.621  20.793  0.00  0.00    +0.000 OA
BRANCH  19  21
ATOM     21  O   UNL     1       1.918   9.081  18.668  0.00  0.00    +0.000 OA
BRANCH  21  22
ATOM     22  C   UNL     1       1.913   7.796  18.048  0.00  0.00    +0.000 C 
BRANCH  22  27
ATOM     23  C   UNL     1       4.202   3.873  17.158  0.00  0.00    +0.000 C 
ATOM     24  C   UNL     1       4.349   3.880  18.680  0.00  0.00    +0.000 C 
ATOM     25  C   UNL     1       4.569   5.287  19.261  0.00  0.00    +0.000 C 
ATOM     26  N   UNL     1       3.342   6.074  19.172  0.00  0.00    +0.000 N 
ATOM     27  C   UNL     1       3.236   7.036  18.175  0.00  0.00    +0.000 C 
ATOM     28  O   UNL     1       4.160   7.263  17.391  0.00  0.00    +0.000 OA
ATOM     29  C   UNL     1       2.207   5.426  19.837  0.00  0.00    +0.000 C 
ATOM     30  C   UNL     1       2.007   4.002  19.269  0.00  0.00    +0.000 C 
ATOM     31  C   UNL     1       0.958   3.239  20.067  0.00  0.00    +0.000 C 
ATOM     32  O   UNL     1       3.226   3.234  19.318  0.00  0.00    +0.000 OA
ENDBRANCH  22  27
ENDBRANCH  21  22
ENDBRANCH  19  21
ENDBRANCH   1  19
BRANCH   3  33
ATOM     33  O   UNL     1      -1.303  12.581  17.364  0.00  0.00    +0.000 OA
ATOM     34  H   UNL     1      -2.095  12.018  17.320  0.00  0.00    +0.000 HD
ENDBRANCH   3  33
TORSDOF 7
ENDMDL
MODEL 6
REMARK VINA RESULT:      -7.9      1.338      1.508
REMARK  Name = 
REMARK  9 active torsions:
REMARK  status: ('A' for Active; 'I' for Inactive)
REMARK    1  A    between atoms: C_1  and  C_2
REMARK    2  A    between atoms: C_5  and  C_7
REMARK    3  A    between atoms: C_7  and  O_8
REMARK    4  A    between atoms: O_8  and  C_9
REMARK    5  A    between atoms: C_9  and  C_11
REMARK    6  A    between atoms: C_13  and  O_14
REMARK    7  A    between atoms: N_16  and  S_17
REMARK    8  A    between atoms: S_17  and  C_20
REMARK    9  A    between atoms: C_31  and  C_32
REMARK                            x       y       z     vdW  Elec       q    Type
REMARK                         _______ _______ _______ _____ _____    ______ ____
ROOT
ATOM      1  C   UNL     1       2.381   5.463  18.503  0.00  0.00    +0.000 C 
ATOM      2  C   UNL     1       1.615   5.456  19.837  0.00  0.00    +0.000 C 
ATOM      3  C   UNL     1       1.561   4.002  20.278  0.00  0.00    +0.000 C 
ATOM      4  C   UNL     1       2.279   3.212  19.186  0.00  0.00    +0.000 C 
ATOM      5  N   UNL     1       3.182   4.186  18.496  0.00  0.00    +0.000 NA
ENDROOT
BRANCH   5   6
ATOM      6  S   UNL     1       4.784   4.216  19.078  0.00  0.00    +0.000 S 
ATOM      7  O   UNL     1       4.993   5.408  19.867  0.00  0.00    +0.000 OA
ATOM      8  O   UNL     1       5.068   2.900  19.610  0.00  0.00    +0.000 OA
BRANCH   6   9
ATOM      9  C   UNL     1       5.782   4.455  17.612  0.00  0.00    +0.000 A 
ATOM     10  C   UNL     1       6.898   5.303  17.627  0.00  0.00    +0.000 A 
ATOM     11  C   UNL     1       7.583   5.561  16.432  0.00  0.00    +0.000 A 
ATOM     12  C   UNL     1       7.141   4.991  15.234  0.00  0.00    +0.000 A 
ATOM     13  C   UNL     1       6.046   4.122  15.235  0.00  0.00    +0.000 A 
ATOM     14  C   UNL     1       5.362   3.857  16.420  0.00  0.00    +0.000 A 
ATOM     15  O   UNL     1       5.559   3.519  14.105  0.00  0.00    +0.000 OA
ATOM     16  C   UNL     1       6.432   3.676  12.981  0.00  0.00    +0.000 C 
ATOM     17  C   UNL     1       7.020   5.077  12.926  0.00  0.00    +0.000 C 
ATOM     18  O   UNL     1       7.815   5.338  14.090  0.00  0.00    +0.000 OA
ENDBRANCH   6   9
ENDBRANCH   5   6
BRANCH   1  19
ATOM     19  C   UNL     1       2.802   6.879  18.212  0.00  0.00    +0.000 C 
ATOM     20  O   UNL     1       3.784   7.123  17.511  0.00  0.00    +0.000 OA
BRANCH  19  21
ATOM     21  O   UNL     1       2.030   7.829  18.770  0.00  0.00    +0.000 OA
BRANCH  21  22
ATOM     22  C   UNL     1       1.504   8.804  17.871  0.00  0.00    +0.000 C 
BRANCH  22  27
ATOM     23  C   UNL     1      -0.955  11.172  20.997  0.00  0.00    +0.000 C 
ATOM     24  C   UNL     1      -1.352  11.964  19.752  0.00  0.00    +0.000 C 
ATOM     25  C   UNL     1      -0.194  12.146  18.754  0.00  0.00    +0.000 C 
ATOM     26  N   UNL     1       0.118  10.878  18.098  0.00  0.00    +0.000 N 
ATOM     27  C   UNL     1       1.237  10.167  18.516  0.00  0.00    +0.000 C 
ATOM     28  O   UNL     1       1.987  10.596  19.396  0.00  0.00    +0.000 OA
ATOM     29  C   UNL     1      -1.044  10.292  17.422  0.00  0.00    +0.000 C 
ATOM     30  C   UNL     1      -2.212  10.138  18.421  0.00  0.00    +0.000 C 
ATOM     31  C   UNL     1      -3.487   9.708  17.706  0.00  0.00    +0.000 C 
ATOM     32  O   UNL     1      -2.499  11.377  19.100  0.00  0.00    +0.000 OA
ENDBRANCH  22  27
ENDBRANCH  21  22
ENDBRANCH  19  21
ENDBRANCH   1  19
BRANCH   3  33
ATOM     33  O   UNL     1       0.220   3.562  20.452  0.00  0.00    +0.000 OA
ATOM     34  H   UNL     1       0.046   2.814  19.854  0.00  0.00    +0.000 HD
ENDBRANCH   3  33
TORSDOF 7
ENDMDL
MODEL 7
REMARK VINA RESULT:      -7.9      1.292      1.895
REMARK  Name = 
REMARK  9 active torsions:
REMARK  status: ('A' for Active; 'I' for Inactive)
REMARK    1  A    between atoms: C_1  and  C_2
REMARK    2  A    between atoms: C_5  and  C_7
REMARK    3  A    between atoms: C_7  and  O_8
REMARK    4  A    between atoms: O_8  and  C_9
REMARK    5  A    between atoms: C_9  and  C_11
REMARK    6  A    between atoms: C_13  and  O_14
REMARK    7  A    between atoms: N_16  and  S_17
REMARK    8  A    between atoms: S_17  and  C_20
REMARK    9  A    between atoms: C_31  and  C_32
REMARK                            x       y       z     vdW  Elec       q    Type
REMARK                         _______ _______ _______ _____ _____    ______ ____
ROOT
ATOM      1  C   UNL     1       2.550   5.674  18.502  0.00  0.00    +0.000 C 
ATOM      2  C   UNL     1       1.817   5.672  19.855  0.00  0.00    +0.000 C 
ATOM      3  C   UNL     1       1.690   4.212  20.258  0.00  0.00    +0.000 C 
ATOM      4  C   UNL     1       2.336   3.414  19.126  0.00  0.00    +0.000 C 
ATOM      5  N   UNL     1       3.277   4.355  18.441  0.00  0.00    +0.000 NA
ENDROOT
BRANCH   5   6
ATOM      6  S   UNL     1       4.891   4.277  18.982  0.00  0.00    +0.000 S 
ATOM      7  O   UNL     1       5.191   5.440  19.786  0.00  0.00    +0.000 OA
ATOM      8  O   UNL     1       5.107   2.937  19.484  0.00  0.00    +0.000 OA
BRANCH   6   9
ATOM      9  C   UNL     1       5.866   4.483  17.496  0.00  0.00    +0.000 A 
ATOM     10  C   UNL     1       7.002   5.302  17.483  0.00  0.00    +0.000 A 
ATOM     11  C   UNL     1       7.670   5.537  16.274  0.00  0.00    +0.000 A 
ATOM     12  C   UNL     1       7.191   4.971  15.088  0.00  0.00    +0.000 A 
ATOM     13  C   UNL     1       6.075   4.130  15.116  0.00  0.00    +0.000 A 
ATOM     14  C   UNL     1       5.407   3.888  16.316  0.00  0.00    +0.000 A 
ATOM     15  O   UNL     1       5.551   3.532  13.999  0.00  0.00    +0.000 OA
ATOM     16  C   UNL     1       6.405   3.661  12.857  0.00  0.00    +0.000 C 
ATOM     17  C   UNL     1       7.027   5.046  12.783  0.00  0.00    +0.000 C 
ATOM     18  O   UNL     1       7.851   5.294  13.929  0.00  0.00    +0.000 OA
ENDBRANCH   6   9
ENDBRANCH   5   6
BRANCH   1  19
ATOM     19  C   UNL     1       3.044   7.072  18.239  0.00  0.00    +0.000 C 
ATOM     20  O   UNL     1       3.950   7.289  17.435  0.00  0.00    +0.000 OA
BRANCH  19  21
ATOM     21  O   UNL     1       2.425   8.037  18.943  0.00  0.00    +0.000 OA
BRANCH  21  22
ATOM     22  C   UNL     1       1.255   8.587  18.339  0.00  0.00    +0.000 C 
BRANCH  22  27
ATOM     23  C   UNL     1       2.335  12.414  20.707  0.00  0.00    +0.000 C 
ATOM     24  C   UNL     1       0.819  12.598  20.662  0.00  0.00    +0.000 C 
ATOM     25  C   UNL     1       0.194  12.154  19.327  0.00  0.00    +0.000 C 
ATOM     26  N   UNL     1       0.226  10.698  19.208  0.00  0.00    +0.000 N 
ATOM     27  C   UNL     1       1.186  10.116  18.390  0.00  0.00    +0.000 C 
ATOM     28  O   UNL     1       1.984  10.796  17.739  0.00  0.00    +0.000 OA
ATOM     29  C   UNL     1      -0.443  10.026  20.327  0.00  0.00    +0.000 C 
ATOM     30  C   UNL     1       0.169  10.496  21.665  0.00  0.00    +0.000 C 
ATOM     31  C   UNL     1      -0.627   9.959  22.847  0.00  0.00    +0.000 C 
ATOM     32  O   UNL     1       0.176  11.934  21.772  0.00  0.00    +0.000 OA
ENDBRANCH  22  27
ENDBRANCH  21  22
ENDBRANCH  19  21
ENDBRANCH   1  19
BRANCH   3  33
ATOM     33  O   UNL     1       0.331   3.843  20.453  0.00  0.00    +0.000 OA
ATOM     34  H   UNL     1      -0.145   4.580  20.876  0.00  0.00    +0.000 HD
ENDBRANCH   3  33
TORSDOF 7
ENDMDL
MODEL 8
REMARK VINA RESULT:      -7.8      2.763     10.600
REMARK  Name = 
REMARK  9 active torsions:
REMARK  status: ('A' for Active; 'I' for Inactive)
REMARK    1  A    between atoms: C_1  and  C_2
REMARK    2  A    between atoms: C_5  and  C_7
REMARK    3  A    between atoms: C_7  and  O_8
REMARK    4  A    between atoms: O_8  and  C_9
REMARK    5  A    between atoms: C_9  and  C_11
REMARK    6  A    between atoms: C_13  and  O_14
REMARK    7  A    between atoms: N_16  and  S_17
REMARK    8  A    between atoms: S_17  and  C_20
REMARK    9  A    between atoms: C_31  and  C_32
REMARK                            x       y       z     vdW  Elec       q    Type
REMARK                         _______ _______ _______ _____ _____    ______ ____
ROOT
ATOM      1  C   UNL     1       0.241   9.855  19.113  0.00  0.00    +0.000 C 
ATOM      2  C   UNL     1       0.401  11.038  18.142  0.00  0.00    +0.000 C 
ATOM      3  C   UNL     1      -0.698  12.025  18.504  0.00  0.00    +0.000 C 
ATOM      4  C   UNL     1      -1.467  11.382  19.655  0.00  0.00    +0.000 C 
ATOM      5  N   UNL     1      -0.526  10.405  20.288  0.00  0.00    +0.000 NA
ENDROOT
BRANCH   5   6
ATOM      6  S   UNL     1       0.339  11.006  21.628  0.00  0.00    +0.000 S 
ATOM      7  O   UNL     1       0.655   9.921  22.529  0.00  0.00    +0.000 OA
ATOM      8  O   UNL     1       1.369  11.880  21.112  0.00  0.00    +0.000 OA
BRANCH   6   9
ATOM      9  C   UNL     1      -0.853  12.005  22.512  0.00  0.00    +0.000 A 
ATOM     10  C   UNL     1      -2.000  11.432  23.078  0.00  0.00    +0.000 A 
ATOM     11  C   UNL     1      -2.971  12.261  23.656  0.00  0.00    +0.000 A 
ATOM     12  C   UNL     1      -2.802  13.649  23.648  0.00  0.00    +0.000 A 
ATOM     13  C   UNL     1      -1.639  14.209  23.110  0.00  0.00    +0.000 A 
ATOM     14  C   UNL     1      -0.667  13.391  22.536  0.00  0.00    +0.000 A 
ATOM     15  O   UNL     1      -1.397  15.557  23.072  0.00  0.00    +0.000 OA
ATOM     16  C   UNL     1      -2.333  16.304  23.857  0.00  0.00    +0.000 C 
ATOM     17  C   UNL     1      -3.745  15.760  23.703  0.00  0.00    +0.000 C 
ATOM     18  O   UNL     1      -3.820  14.406  24.170  0.00  0.00    +0.000 OA
ENDBRANCH   6   9
ENDBRANCH   5   6
BRANCH   1  19
ATOM     19  C   UNL     1       1.506   9.039  19.070  0.00  0.00    +0.000 C 
ATOM     20  O   UNL     1       2.412   9.307  18.282  0.00  0.00    +0.000 OA
BRANCH  19  21
ATOM     21  O   UNL     1       1.556   8.020  19.946  0.00  0.00    +0.000 OA
BRANCH  21  22
ATOM     22  C   UNL     1       2.518   7.005  19.658  0.00  0.00    +0.000 C 
BRANCH  22  27
ATOM     23  C   UNL     1       3.528   2.543  20.359  0.00  0.00    +0.000 C 
ATOM     24  C   UNL     1       2.873   2.413  18.984  0.00  0.00    +0.000 C 
ATOM     25  C   UNL     1       1.668   3.350  18.795  0.00  0.00    +0.000 C 
ATOM     26  N   UNL     1       2.113   4.737  18.678  0.00  0.00    +0.000 N 
ATOM     27  C   UNL     1       1.974   5.579  19.774  0.00  0.00    +0.000 C 
ATOM     28  O   UNL     1       1.454   5.196  20.825  0.00  0.00    +0.000 OA
ATOM     29  C   UNL     1       3.078   4.929  17.590  0.00  0.00    +0.000 C 
ATOM     30  C   UNL     1       4.273   3.966  17.769  0.00  0.00    +0.000 C 
ATOM     31  C   UNL     1       5.196   4.011  16.558  0.00  0.00    +0.000 C 
ATOM     32  O   UNL     1       3.837   2.600  17.925  0.00  0.00    +0.000 OA
ENDBRANCH  22  27
ENDBRANCH  21  22
ENDBRANCH  19  21
ENDBRANCH   1  19
BRANCH   3  33
ATOM     33  O   UNL     1      -1.541  12.293  17.391  0.00  0.00    +0.000 OA
ATOM     34  H   UNL     1      -1.580  13.254  17.239  0.00  0.00    +0.000 HD
ENDBRANCH   3  33
TORSDOF 7
ENDMDL
MODEL 9
REMARK VINA RESULT:      -7.8      3.753     11.492
REMARK  Name = 
REMARK  9 active torsions:
REMARK  status: ('A' for Active; 'I' for Inactive)
REMARK    1  A    between atoms: C_1  and  C_2
REMARK    2  A    between atoms: C_5  and  C_7
REMARK    3  A    between atoms: C_7  and  O_8
REMARK    4  A    between atoms: O_8  and  C_9
REMARK    5  A    between atoms: C_9  and  C_11
REMARK    6  A    between atoms: C_13  and  O_14
REMARK    7  A    between atoms: N_16  and  S_17
REMARK    8  A    between atoms: S_17  and  C_20
REMARK    9  A    between atoms: C_31  and  C_32
REMARK                            x       y       z     vdW  Elec       q    Type
REMARK                         _______ _______ _______ _____ _____    ______ ____
ROOT
ATOM      1  C   UNL     1      -0.028  11.168  20.469  0.00  0.00    +0.000 C 
ATOM      2  C   UNL     1       0.984  12.233  20.011  0.00  0.00    +0.000 C 
ATOM      3  C   UNL     1       0.188  13.517  19.839  0.00  0.00    +0.000 C 
ATOM      4  C   UNL     1      -1.256  13.157  20.184  0.00  0.00    +0.000 C 
ATOM      5  N   UNL     1      -1.183  11.940  21.054  0.00  0.00    +0.000 NA
ENDROOT
BRANCH   5   6
ATOM      6  S   UNL     1      -1.200  12.253  22.729  0.00  0.00    +0.000 S 
ATOM      7  O   UNL     1      -1.344  11.011  23.454  0.00  0.00    +0.000 OA
ATOM      8  O   UNL     1      -0.108  13.163  23.004  0.00  0.00    +0.000 OA
BRANCH   6   9
ATOM      9  C   UNL     1      -2.738  13.125  23.001  0.00  0.00    +0.000 A 
ATOM     10  C   UNL     1      -2.755  14.397  23.587  0.00  0.00    +0.000 A 
ATOM     11  C   UNL     1      -3.983  14.998  23.896  0.00  0.00    +0.000 A 
ATOM     12  C   UNL     1      -5.178  14.320  23.638  0.00  0.00    +0.000 A 
ATOM     13  C   UNL     1      -5.152  13.065  23.024  0.00  0.00    +0.000 A 
ATOM     14  C   UNL     1      -3.935  12.462  22.710  0.00  0.00    +0.000 A 
ATOM     15  O   UNL     1      -6.280  12.343  22.731  0.00  0.00    +0.000 OA
ATOM     16  C   UNL     1      -7.478  13.110  22.891  0.00  0.00    +0.000 C 
ATOM     17  C   UNL     1      -7.413  13.988  24.131  0.00  0.00    +0.000 C 
ATOM     18  O   UNL     1      -6.342  14.935  24.026  0.00  0.00    +0.000 OA
ENDBRANCH   6   9
ENDBRANCH   5   6
BRANCH   1  19
ATOM     19  C   UNL     1       0.742   9.998  21.021  0.00  0.00    +0.000 C 
ATOM     20  O   UNL     1       1.371  10.086  22.075  0.00  0.00    +0.000 OA
BRANCH  19  21
ATOM     21  O   UNL     1       0.683   8.876  20.280  0.00  0.00    +0.000 OA
BRANCH  21  22
ATOM     22  C   UNL     1       1.471   7.783  20.751  0.00  0.00    +0.000 C 
BRANCH  22  27
ATOM     23  C   UNL     1       1.492   4.435  17.556  0.00  0.00    +0.000 C 
ATOM     24  C   UNL     1       2.688   3.964  18.383  0.00  0.00    +0.000 C 
ATOM     25  C   UNL     1       3.555   5.122  18.908  0.00  0.00    +0.000 C 
ATOM     26  N   UNL     1       2.852   5.850  19.962  0.00  0.00    +0.000 N 
ATOM     27  C   UNL     1       2.270   7.073  19.655  0.00  0.00    +0.000 C 
ATOM     28  O   UNL     1       2.362   7.572  18.531  0.00  0.00    +0.000 OA
ATOM     29  C   UNL     1       2.445   4.981  21.071  0.00  0.00    +0.000 C 
ATOM     30  C   UNL     1       1.598   3.805  20.536  0.00  0.00    +0.000 C 
ATOM     31  C   UNL     1       1.319   2.789  21.636  0.00  0.00    +0.000 C 
ATOM     32  O   UNL     1       2.271   3.107  19.468  0.00  0.00    +0.000 OA
ENDBRANCH  22  27
ENDBRANCH  21  22
ENDBRANCH  19  21
ENDBRANCH   1  19
BRANCH   3  33
ATOM     33  O   UNL     1       0.302  14.025  18.516  0.00  0.00    +0.000 OA
ATOM     34  H   UNL     1       1.166  13.772  18.147  0.00  0.00    +0.000 HD
ENDBRANCH   3  33
TORSDOF 7
ENDMDL
