MODEL 1
REMARK VINA RESULT:      -7.3      0.000      0.000
REMARK  Name = 
REMARK  12 active torsions:
REMARK  status: ('A' for Active; 'I' for Inactive)
REMARK    1  A    between atoms: C_1  and  C_2
REMARK    2  A    between atoms: C_2  and  C_3
REMARK    3  A    between atoms: C_3  and  C_4
REMARK    4  A    between atoms: C_4  and  C_5
REMARK    5  A    between atoms: C_4  and  O_17
REMARK    6  A    between atoms: C_5  and  C_6
REMARK    7  A    between atoms: C_6  and  C_7
REMARK    8  A    between atoms: C_7  and  C_8
REMARK    9  A    between atoms: C_14  and  C_15
REMARK   10  A    between atoms: C_14  and  C_16
REMARK   11  A    between atoms: O_17  and  C_18
REMARK   12  A    between atoms: C_18  and  C_19
REMARK                            x       y       z     vdW  Elec       q    Type
REMARK                         _______ _______ _______ _____ _____    ______ ____
ROOT
ATOM      1  C   UNL     1       5.648   5.003  19.462  0.00  0.00    +0.000 C 
ENDROOT
BRANCH   1   2
ATOM      2  C   UNL     1       5.609   6.016  18.313  0.00  0.00    +0.000 C 
BRANCH   2   3
ATOM      3  C   UNL     1       6.934   5.953  17.522  0.00  0.00    +0.000 C 
BRANCH   3   4
ATOM      4  C   UNL     1       7.958   7.018  17.940  0.00  0.00    +0.000 C 
BRANCH   4   6
ATOM      5  C   UNL     1       8.533   9.488  18.264  0.00  0.00    +0.000 C 
ATOM      6  C   UNL     1       7.600   8.470  17.627  0.00  0.00    +0.000 C 
ENDBRANCH   4   6
ENDBRANCH   3   4
BRANCH   3   7
ATOM      7  O   UNL     1       6.603   6.190  16.132  0.00  0.00    +0.000 OA
BRANCH   7   8
ATOM      8  C   UNL     1       6.928   5.212  15.247  0.00  0.00    +0.000 C 
ATOM      9  C   UNL     1       6.105   3.984  15.498  0.00  0.00    +0.000 C 
ATOM     10  O   UNL     1       7.739   5.314  14.338  0.00  0.00    +0.000 OA
ENDBRANCH   7   8
ENDBRANCH   3   7
ENDBRANCH   2   3
ENDBRANCH   1   2
BRANCH   1  11
ATOM     11  C   UNL     1       4.683   3.815  19.316  0.00  0.00    +0.000 C 
BRANCH  11  12
ATOM     12  C   UNL     1       3.270   4.339  18.978  0.00  0.00    +0.000 C 
ATOM     13  C   UNL     1       2.659   3.750  17.671  0.00  0.00    +0.000 C 
ATOM     14  C   UNL     1       2.513   2.222  17.760  0.00  0.00    +0.000 C 
ATOM     15  C   UNL     1       1.336   2.046  18.726  0.00  0.00    +0.000 C 
ATOM     16  C   UNL     1       0.995   3.497  19.123  0.00  0.00    +0.000 C 
ATOM     17  C   UNL     1       1.204   4.198  17.776  0.00  0.00    +0.000 C 
ATOM     18  C   UNL     1       2.113   4.131  20.018  0.00  0.00    +0.000 C 
ATOM     19  C   UNL     1       2.458   3.280  21.246  0.00  0.00    +0.000 C 
ATOM     20  C   UNL     1       1.630   5.503  20.551  0.00  0.00    +0.000 C 
ENDBRANCH  11  12
ENDBRANCH   1  11
TORSDOF 8
ENDMDL
MODEL 2
REMARK VINA RESULT:      -7.3      1.006      2.133
REMARK  Name = 
REMARK  12 active torsions:
REMARK  status: ('A' for Active; 'I' for Inactive)
REMARK    1  A    between atoms: C_1  and  C_2
REMARK    2  A    between atoms: C_2  and  C_3
REMARK    3  A    between atoms: C_3  and  C_4
REMARK    4  A    between atoms: C_4  and  C_5
REMARK    5  A    between atoms: C_4  and  O_17
REMARK    6  A    between atoms: C_5  and  C_6
REMARK    7  A    between atoms: C_6  and  C_7
REMARK    8  A    between atoms: C_7  and  C_8
REMARK    9  A    between atoms: C_14  and  C_15
REMARK   10  A    between atoms: C_14  and  C_16
REMARK   11  A    between atoms: O_17  and  C_18
REMARK   12  A    between atoms: C_18  and  C_19
REMARK                            x       y       z     vdW  Elec       q    Type
REMARK                         _______ _______ _______ _____ _____    ______ ____
ROOT
ATOM      1  C   UNL     1       4.927   5.848  18.525  0.00  0.00    +0.000 C 
ENDROOT
BRANCH   1   2
ATOM      2  C   UNL     1       6.129   4.908  18.382  0.00  0.00    +0.000 C 
BRANCH   2   3
ATOM      3  C   UNL     1       7.236   5.605  17.561  0.00  0.00    +0.000 C 
BRANCH   3   4
ATOM      4  C   UNL     1       7.837   6.838  18.251  0.00  0.00    +0.000 C 
BRANCH   4   6
ATOM      5  C   UNL     1       8.461   9.315  18.139  0.00  0.00    +0.000 C 
ATOM      6  C   UNL     1       7.645   8.178  17.542  0.00  0.00    +0.000 C 
ENDBRANCH   4   6
ENDBRANCH   3   4
BRANCH   3   7
ATOM      7  O   UNL     1       6.624   6.053  16.327  0.00  0.00    +0.000 OA
BRANCH   7   8
ATOM      8  C   UNL     1       6.878   5.318  15.212  0.00  0.00    +0.000 C 
ATOM      9  C   UNL     1       5.738   4.388  14.927  0.00  0.00    +0.000 C 
ATOM     10  O   UNL     1       7.868   5.420  14.503  0.00  0.00    +0.000 OA
ENDBRANCH   7   8
ENDBRANCH   3   7
ENDBRANCH   2   3
ENDBRANCH   1   2
BRANCH   1  11
ATOM     11  C   UNL     1       3.556   5.154  18.543  0.00  0.00    +0.000 C 
BRANCH  11  12
ATOM     12  C   UNL     1       3.439   4.276  19.809  0.00  0.00    +0.000 C 
ATOM     13  C   UNL     1       2.235   4.631  20.731  0.00  0.00    +0.000 C 
ATOM     14  C   UNL     1       0.895   4.458  19.996  0.00  0.00    +0.000 C 
ATOM     15  C   UNL     1       0.747   2.935  19.909  0.00  0.00    +0.000 C 
ATOM     16  C   UNL     1       2.053   2.423  20.549  0.00  0.00    +0.000 C 
ATOM     17  C   UNL     1       2.210   3.440  21.685  0.00  0.00    +0.000 C 
ATOM     18  C   UNL     1       3.297   2.722  19.645  0.00  0.00    +0.000 C 
ATOM     19  C   UNL     1       3.137   2.209  18.209  0.00  0.00    +0.000 C 
ATOM     20  C   UNL     1       4.543   2.012  20.233  0.00  0.00    +0.000 C 
ENDBRANCH  11  12
ENDBRANCH   1  11
TORSDOF 8
ENDMDL
MODEL 3
REMARK VINA RESULT:      -7.3      1.512      3.810
REMARK  Name = 
REMARK  12 active torsions:
REMARK  status: ('A' for Active; 'I' for Inactive)
REMARK    1  A    between atoms: C_1  and  C_2
REMARK    2  A    between atoms: C_2  and  C_3
REMARK    3  A    between atoms: C_3  and  C_4
REMARK    4  A    between atoms: C_4  and  C_5
REMARK    5  A    between atoms: C_4  and  O_17
REMARK    6  A    between atoms: C_5  and  C_6
REMARK    7  A    between atoms: C_6  and  C_7
REMARK    8  A    between atoms: C_7  and  C_8
REMARK    9  A    between atoms: C_14  and  C_15
REMARK   10  A    between atoms: C_14  and  C_16
REMARK   11  A    between atoms: O_17  and  C_18
REMARK   12  A    between atoms: C_18  and  C_19
REMARK                            x       y       z     vdW  Elec       q    Type
REMARK                         _______ _______ _______ _____ _____    ______ ____
ROOT
ATOM      1  C   UNL     1       4.410   6.238  17.098  0.00  0.00    +0.000 C 
ENDROOT
BRANCH   1   2
ATOM      2  C   UNL     1       5.304   5.008  16.912  0.00  0.00    +0.000 C 
BRANCH   2   3
ATOM      3  C   UNL     1       6.687   5.448  16.385  0.00  0.00    +0.000 C 
BRANCH   3   4
ATOM      4  C   UNL     1       7.073   4.807  15.045  0.00  0.00    +0.000 C 
BRANCH   4   6
ATOM      5  C   UNL     1       6.207   3.657  12.932  0.00  0.00    +0.000 C 
ATOM      6  C   UNL     1       6.062   3.836  14.436  0.00  0.00    +0.000 C 
ENDBRANCH   4   6
ENDBRANCH   3   4
BRANCH   3   7
ATOM      7  O   UNL     1       7.664   5.023  17.367  0.00  0.00    +0.000 OA
BRANCH   7   8
ATOM      8  C   UNL     1       7.736   5.745  18.516  0.00  0.00    +0.000 C 
ATOM      9  C   UNL     1       7.906   7.202  18.209  0.00  0.00    +0.000 C 
ATOM     10  O   UNL     1       7.632   5.295  19.648  0.00  0.00    +0.000 OA
ENDBRANCH   7   8
ENDBRANCH   3   7
ENDBRANCH   2   3
ENDBRANCH   1   2
BRANCH   1  11
ATOM     11  C   UNL     1       3.254   6.060  18.095  0.00  0.00    +0.000 C 
BRANCH  11  12
ATOM     12  C   UNL     1       3.314   4.642  18.705  0.00  0.00    +0.000 C 
ATOM     13  C   UNL     1       3.229   4.604  20.260  0.00  0.00    +0.000 C 
ATOM     14  C   UNL     1       1.906   5.204  20.764  0.00  0.00    +0.000 C 
ATOM     15  C   UNL     1       0.880   4.125  20.398  0.00  0.00    +0.000 C 
ATOM     16  C   UNL     1       1.735   3.068  19.670  0.00  0.00    +0.000 C 
ATOM     17  C   UNL     1       3.006   3.118  20.526  0.00  0.00    +0.000 C 
ATOM     18  C   UNL     1       2.236   3.585  18.279  0.00  0.00    +0.000 C 
ATOM     19  C   UNL     1       1.103   4.103  17.385  0.00  0.00    +0.000 C 
ATOM     20  C   UNL     1       2.911   2.421  17.510  0.00  0.00    +0.000 C 
ENDBRANCH  11  12
ENDBRANCH   1  11
TORSDOF 8
ENDMDL
MODEL 4
REMARK VINA RESULT:      -7.2      1.592      3.766
REMARK  Name = 
REMARK  12 active torsions:
REMARK  status: ('A' for Active; 'I' for Inactive)
REMARK    1  A    between atoms: C_1  and  C_2
REMARK    2  A    between atoms: C_2  and  C_3
REMARK    3  A    between atoms: C_3  and  C_4
REMARK    4  A    between atoms: C_4  and  C_5
REMARK    5  A    between atoms: C_4  and  O_17
REMARK    6  A    between atoms: C_5  and  C_6
REMARK    7  A    between atoms: C_6  and  C_7
REMARK    8  A    between atoms: C_7  and  C_8
REMARK    9  A    between atoms: C_14  and  C_15
REMARK   10  A    between atoms: C_14  and  C_16
REMARK   11  A    between atoms: O_17  and  C_18
REMARK   12  A    between atoms: C_18  and  C_19
REMARK                            x       y       z     vdW  Elec       q    Type
REMARK                         _______ _______ _______ _____ _____    ______ ____
ROOT
ATOM      1  C   UNL     1       4.266   5.340  17.239  0.00  0.00    +0.000 C 
ENDROOT
BRANCH   1   2
ATOM      2  C   UNL     1       5.257   4.350  16.619  0.00  0.00    +0.000 C 
BRANCH   2   3
ATOM      3  C   UNL     1       6.486   5.116  16.081  0.00  0.00    +0.000 C 
BRANCH   3   4
ATOM      4  C   UNL     1       6.869   4.743  14.643  0.00  0.00    +0.000 C 
BRANCH   4   6
ATOM      5  C   UNL     1       6.309   3.510  12.474  0.00  0.00    +0.000 C 
ATOM      6  C   UNL     1       5.809   4.011  13.821  0.00  0.00    +0.000 C 
ENDBRANCH   4   6
ENDBRANCH   3   4
BRANCH   3   7
ATOM      7  O   UNL     1       7.603   4.765  16.934  0.00  0.00    +0.000 OA
BRANCH   7   8
ATOM      8  C   UNL     1       7.701   5.419  18.121  0.00  0.00    +0.000 C 
ATOM      9  C   UNL     1       7.599   6.900  17.913  0.00  0.00    +0.000 C 
ATOM     10  O   UNL     1       7.809   4.891  19.218  0.00  0.00    +0.000 OA
ENDBRANCH   7   8
ENDBRANCH   3   7
ENDBRANCH   2   3
ENDBRANCH   1   2
BRANCH   1  11
ATOM     11  C   UNL     1       2.986   4.709  17.812  0.00  0.00    +0.000 C 
BRANCH  11  12
ATOM     12  C   UNL     1       3.242   4.257  19.267  0.00  0.00    +0.000 C 
ATOM     13  C   UNL     1       2.269   4.876  20.315  0.00  0.00    +0.000 C 
ATOM     14  C   UNL     1       0.810   4.489  20.022  0.00  0.00    +0.000 C 
ATOM     15  C   UNL     1       0.760   3.011  20.427  0.00  0.00    +0.000 C 
ATOM     16  C   UNL     1       2.216   2.717  20.842  0.00  0.00    +0.000 C 
ATOM     17  C   UNL     1       2.562   4.031  21.551  0.00  0.00    +0.000 C 
ATOM     18  C   UNL     1       3.183   2.727  19.608  0.00  0.00    +0.000 C 
ATOM     19  C   UNL     1       2.724   1.802  18.475  0.00  0.00    +0.000 C 
ATOM     20  C   UNL     1       4.583   2.229  20.048  0.00  0.00    +0.000 C 
ENDBRANCH  11  12
ENDBRANCH   1  11
TORSDOF 8
ENDMDL
MODEL 5
REMARK VINA RESULT:      -7.2      1.424      1.932
REMARK  Name = 
REMARK  12 active torsions:
REMARK  status: ('A' for Active; 'I' for Inactive)
REMARK    1  A    between atoms: C_1  and  C_2
REMARK    2  A    between atoms: C_2  and  C_3
REMARK    3  A    between atoms: C_3  and  C_4
REMARK    4  A    between atoms: C_4  and  C_5
REMARK    5  A    between atoms: C_4  and  O_17
REMARK    6  A    between atoms: C_5  and  C_6
REMARK    7  A    between atoms: C_6  and  C_7
REMARK    8  A    between atoms: C_7  and  C_8
REMARK    9  A    between atoms: C_14  and  C_15
REMARK   10  A    between atoms: C_14  and  C_16
REMARK   11  A    between atoms: O_17  and  C_18
REMARK   12  A    between atoms: C_18  and  C_19
REMARK                            x       y       z     vdW  Elec       q    Type
REMARK                         _______ _______ _______ _____ _____    ______ ____
ROOT
ATOM      1  C   UNL     1       3.496   6.279  18.142  0.00  0.00    +0.000 C 
ENDROOT
BRANCH   1   2
ATOM      2  C   UNL     1       4.728   6.770  17.375  0.00  0.00    +0.000 C 
BRANCH   2   3
ATOM      3  C   UNL     1       5.403   5.578  16.662  0.00  0.00    +0.000 C 
BRANCH   3   4
ATOM      4  C   UNL     1       6.623   5.019  17.406  0.00  0.00    +0.000 C 
BRANCH   4   6
ATOM      5  C   UNL     1       7.774   5.734  19.575  0.00  0.00    +0.000 C 
ATOM      6  C   UNL     1       7.522   6.038  18.105  0.00  0.00    +0.000 C 
ENDBRANCH   4   6
ENDBRANCH   3   4
BRANCH   3   7
ATOM      7  O   UNL     1       5.862   6.065  15.377  0.00  0.00    +0.000 OA
BRANCH   7   8
ATOM      8  C   UNL     1       6.546   5.188  14.596  0.00  0.00    +0.000 C 
ATOM      9  C   UNL     1       5.643   4.088  14.127  0.00  0.00    +0.000 C 
ATOM     10  O   UNL     1       7.720   5.290  14.272  0.00  0.00    +0.000 OA
ENDBRANCH   7   8
ENDBRANCH   3   7
ENDBRANCH   2   3
ENDBRANCH   1   2
BRANCH   1  11
ATOM     11  C   UNL     1       3.788   5.289  19.280  0.00  0.00    +0.000 C 
BRANCH  11  12
ATOM     12  C   UNL     1       2.551   4.392  19.512  0.00  0.00    +0.000 C 
ATOM     13  C   UNL     1       1.740   4.065  18.222  0.00  0.00    +0.000 C 
ATOM     14  C   UNL     1       2.600   3.309  17.196  0.00  0.00    +0.000 C 
ATOM     15  C   UNL     1       2.722   1.912  17.815  0.00  0.00    +0.000 C 
ATOM     16  C   UNL     1       1.970   2.060  19.154  0.00  0.00    +0.000 C 
ATOM     17  C   UNL     1       0.810   2.958  18.710  0.00  0.00    +0.000 C 
ATOM     18  C   UNL     1       2.749   2.976  20.158  0.00  0.00    +0.000 C 
ATOM     19  C   UNL     1       4.202   2.534  20.375  0.00  0.00    +0.000 C 
ATOM     20  C   UNL     1       2.058   2.926  21.543  0.00  0.00    +0.000 C 
ENDBRANCH  11  12
ENDBRANCH   1  11
TORSDOF 8
ENDMDL
MODEL 6
REMARK VINA RESULT:      -7.1      1.603      3.622
REMARK  Name = 
REMARK  12 active torsions:
REMARK  status: ('A' for Active; 'I' for Inactive)
REMARK    1  A    between atoms: C_1  and  C_2
REMARK    2  A    between atoms: C_2  and  C_3
REMARK    3  A    between atoms: C_3  and  C_4
REMARK    4  A    between atoms: C_4  and  C_5
REMARK    5  A    between atoms: C_4  and  O_17
REMARK    6  A    between atoms: C_5  and  C_6
REMARK    7  A    between atoms: C_6  and  C_7
REMARK    8  A    between atoms: C_7  and  C_8
REMARK    9  A    between atoms: C_14  and  C_15
REMARK   10  A    between atoms: C_14  and  C_16
REMARK   11  A    between atoms: O_17  and  C_18
REMARK   12  A    between atoms: C_18  and  C_19
REMARK                            x       y       z     vdW  Elec       q    Type
REMARK                         _______ _______ _______ _____ _____    ______ ____
ROOT
ATOM      1  C   UNL     1       4.111   4.365  16.709  0.00  0.00    +0.000 C 
ENDROOT
BRANCH   1   2
ATOM      2  C   UNL     1       5.463   3.773  16.298  0.00  0.00    +0.000 C 
BRANCH   2   3
ATOM      3  C   UNL     1       6.379   4.896  15.763  0.00  0.00    +0.000 C 
BRANCH   3   4
ATOM      4  C   UNL     1       6.728   4.755  14.275  0.00  0.00    +0.000 C 
BRANCH   4   6
ATOM      5  C   UNL     1       6.450   3.442  12.098  0.00  0.00    +0.000 C 
ATOM      6  C   UNL     1       5.866   3.793  13.459  0.00  0.00    +0.000 C 
ENDBRANCH   4   6
ENDBRANCH   3   4
BRANCH   3   7
ATOM      7  O   UNL     1       7.618   4.817  16.510  0.00  0.00    +0.000 OA
BRANCH   7   8
ATOM      8  C   UNL     1       7.615   5.342  17.763  0.00  0.00    +0.000 C 
ATOM      9  C   UNL     1       7.183   6.777  17.730  0.00  0.00    +0.000 C 
ATOM     10  O   UNL     1       7.878   4.734  18.790  0.00  0.00    +0.000 OA
ENDBRANCH   7   8
ENDBRANCH   3   7
ENDBRANCH   2   3
ENDBRANCH   1   2
BRANCH   1  11
ATOM     11  C   UNL     1       3.201   3.420  17.509  0.00  0.00    +0.000 C 
BRANCH  11  12
ATOM     12  C   UNL     1       2.294   4.249  18.445  0.00  0.00    +0.000 C 
ATOM     13  C   UNL     1       1.233   3.413  19.222  0.00  0.00    +0.000 C 
ATOM     14  C   UNL     1       1.900   2.367  20.131  0.00  0.00    +0.000 C 
ATOM     15  C   UNL     1       2.478   3.218  21.267  0.00  0.00    +0.000 C 
ATOM     16  C   UNL     1       2.126   4.656  20.835  0.00  0.00    +0.000 C 
ATOM     17  C   UNL     1       0.729   4.424  20.249  0.00  0.00    +0.000 C 
ATOM     18  C   UNL     1       2.954   5.105  19.583  0.00  0.00    +0.000 C 
ATOM     19  C   UNL     1       4.466   4.927  19.766  0.00  0.00    +0.000 C 
ATOM     20  C   UNL     1       2.713   6.612  19.319  0.00  0.00    +0.000 C 
ENDBRANCH  11  12
ENDBRANCH   1  11
TORSDOF 8
ENDMDL
MODEL 7
REMARK VINA RESULT:      -7.1      1.211      1.967
REMARK  Name = 
REMARK  12 active torsions:
REMARK  status: ('A' for Active; 'I' for Inactive)
REMARK    1  A    between atoms: C_1  and  C_2
REMARK    2  A    between atoms: C_2  and  C_3
REMARK    3  A    between atoms: C_3  and  C_4
REMARK    4  A    between atoms: C_4  and  C_5
REMARK    5  A    between atoms: C_4  and  O_17
REMARK    6  A    between atoms: C_5  and  C_6
REMARK    7  A    between atoms: C_6  and  C_7
REMARK    8  A    between atoms: C_7  and  C_8
REMARK    9  A    between atoms: C_14  and  C_15
REMARK   10  A    between atoms: C_14  and  C_16
REMARK   11  A    between atoms: O_17  and  C_18
REMARK   12  A    between atoms: C_18  and  C_19
REMARK                            x       y       z     vdW  Elec       q    Type
REMARK                         _______ _______ _______ _____ _____    ______ ____
ROOT
ATOM      1  C   UNL     1       5.672   4.245  18.536  0.00  0.00    +0.000 C 
ENDROOT
BRANCH   1   2
ATOM      2  C   UNL     1       5.174   4.647  17.144  0.00  0.00    +0.000 C 
BRANCH   2   3
ATOM      3  C   UNL     1       6.200   5.591  16.480  0.00  0.00    +0.000 C 
BRANCH   3   4
ATOM      4  C   UNL     1       6.135   7.037  16.990  0.00  0.00    +0.000 C 
BRANCH   4   6
ATOM      5  C   UNL     1       8.103   6.947  18.619  0.00  0.00    +0.000 C 
ATOM      6  C   UNL     1       7.454   7.662  17.444  0.00  0.00    +0.000 C 
ENDBRANCH   4   6
ENDBRANCH   3   4
BRANCH   3   7
ATOM      7  O   UNL     1       5.892   5.615  15.065  0.00  0.00    +0.000 OA
BRANCH   7   8
ATOM      8  C   UNL     1       6.794   5.037  14.229  0.00  0.00    +0.000 C 
ATOM      9  C   UNL     1       6.193   3.840  13.555  0.00  0.00    +0.000 C 
ATOM     10  O   UNL     1       7.924   5.447  14.008  0.00  0.00    +0.000 OA
ENDBRANCH   7   8
ENDBRANCH   3   7
ENDBRANCH   2   3
ENDBRANCH   1   2
BRANCH   1  11
ATOM     11  C   UNL     1       4.605   4.265  19.641  0.00  0.00    +0.000 C 
BRANCH  11  12
ATOM     12  C   UNL     1       3.279   3.696  19.087  0.00  0.00    +0.000 C 
ATOM     13  C   UNL     1       2.825   2.360  19.748  0.00  0.00    +0.000 C 
ATOM     14  C   UNL     1       2.590   2.532  21.258  0.00  0.00    +0.000 C 
ATOM     15  C   UNL     1       1.284   3.334  21.311  0.00  0.00    +0.000 C 
ATOM     16  C   UNL     1       0.966   3.577  19.822  0.00  0.00    +0.000 C 
ATOM     17  C   UNL     1       1.394   2.228  19.234  0.00  0.00    +0.000 C 
ATOM     18  C   UNL     1       1.982   4.575  19.168  0.00  0.00    +0.000 C 
ATOM     19  C   UNL     1       2.111   5.894  19.938  0.00  0.00    +0.000 C 
ATOM     20  C   UNL     1       1.500   4.938  17.742  0.00  0.00    +0.000 C 
ENDBRANCH  11  12
ENDBRANCH   1  11
TORSDOF 8
ENDMDL
MODEL 8
REMARK VINA RESULT:      -7.1      1.305      3.415
REMARK  Name = 
REMARK  12 active torsions:
REMARK  status: ('A' for Active; 'I' for Inactive)
REMARK    1  A    between atoms: C_1  and  C_2
REMARK    2  A    between atoms: C_2  and  C_3
REMARK    3  A    between atoms: C_3  and  C_4
REMARK    4  A    between atoms: C_4  and  C_5
REMARK    5  A    between atoms: C_4  and  O_17
REMARK    6  A    between atoms: C_5  and  C_6
REMARK    7  A    between atoms: C_6  and  C_7
REMARK    8  A    between atoms: C_7  and  C_8
REMARK    9  A    between atoms: C_14  and  C_15
REMARK   10  A    between atoms: C_14  and  C_16
REMARK   11  A    between atoms: O_17  and  C_18
REMARK   12  A    between atoms: C_18  and  C_19
REMARK                            x       y       z     vdW  Elec       q    Type
REMARK                         _______ _______ _______ _____ _____    ______ ____
ROOT
ATOM      1  C   UNL     1       5.475   4.171  17.858  0.00  0.00    +0.000 C 
ENDROOT
BRANCH   1   2
ATOM      2  C   UNL     1       5.262   5.528  17.182  0.00  0.00    +0.000 C 
BRANCH   2   3
ATOM      3  C   UNL     1       6.208   5.656  15.967  0.00  0.00    +0.000 C 
BRANCH   3   4
ATOM      4  C   UNL     1       6.410   4.344  15.197  0.00  0.00    +0.000 C 
BRANCH   4   6
ATOM      5  C   UNL     1       6.328   3.625  12.744  0.00  0.00    +0.000 C 
ATOM      6  C   UNL     1       5.554   4.149  13.945  0.00  0.00    +0.000 C 
ENDBRANCH   4   6
ENDBRANCH   3   4
BRANCH   3   7
ATOM      7  O   UNL     1       7.500   6.059  16.484  0.00  0.00    +0.000 OA
BRANCH   7   8
ATOM      8  C   UNL     1       7.514   7.087  17.373  0.00  0.00    +0.000 C 
ATOM      9  C   UNL     1       7.996   6.615  18.711  0.00  0.00    +0.000 C 
ATOM     10  O   UNL     1       7.222   8.247  17.125  0.00  0.00    +0.000 OA
ENDBRANCH   7   8
ENDBRANCH   3   7
ENDBRANCH   2   3
ENDBRANCH   1   2
BRANCH   1  11
ATOM     11  C   UNL     1       4.696   3.965  19.167  0.00  0.00    +0.000 C 
BRANCH  11  12
ATOM     12  C   UNL     1       3.267   3.475  18.844  0.00  0.00    +0.000 C 
ATOM     13  C   UNL     1       2.791   2.265  19.703  0.00  0.00    +0.000 C 
ATOM     14  C   UNL     1       2.768   2.615  21.200  0.00  0.00    +0.000 C 
ATOM     15  C   UNL     1       1.552   3.542  21.317  0.00  0.00    +0.000 C 
ATOM     16  C   UNL     1       1.066   3.660  19.858  0.00  0.00    +0.000 C 
ATOM     17  C   UNL     1       1.299   2.221  19.382  0.00  0.00    +0.000 C 
ATOM     18  C   UNL     1       2.070   4.480  18.977  0.00  0.00    +0.000 C 
ATOM     19  C   UNL     1       2.408   5.853  19.570  0.00  0.00    +0.000 C 
ATOM     20  C   UNL     1       1.440   4.740  17.586  0.00  0.00    +0.000 C 
ENDBRANCH  11  12
ENDBRANCH   1  11
TORSDOF 8
ENDMDL
MODEL 9
REMARK VINA RESULT:      -7.0      1.563      2.527
REMARK  Name = 
REMARK  12 active torsions:
REMARK  status: ('A' for Active; 'I' for Inactive)
REMARK    1  A    between atoms: C_1  and  C_2
REMARK    2  A    between atoms: C_2  and  C_3
REMARK    3  A    between atoms: C_3  and  C_4
REMARK    4  A    between atoms: C_4  and  C_5
REMARK    5  A    between atoms: C_4  and  O_17
REMARK    6  A    between atoms: C_5  and  C_6
REMARK    7  A    between atoms: C_6  and  C_7
REMARK    8  A    between atoms: C_7  and  C_8
REMARK    9  A    between atoms: C_14  and  C_15
REMARK   10  A    between atoms: C_14  and  C_16
REMARK   11  A    between atoms: O_17  and  C_18
REMARK   12  A    between atoms: C_18  and  C_19
REMARK                            x       y       z     vdW  Elec       q    Type
REMARK                         _______ _______ _______ _____ _____    ______ ____
ROOT
ATOM      1  C   UNL     1       5.717   4.429  18.591  0.00  0.00    +0.000 C 
ENDROOT
BRANCH   1   2
ATOM      2  C   UNL     1       6.249   5.813  18.205  0.00  0.00    +0.000 C 
BRANCH   2   3
ATOM      3  C   UNL     1       5.854   6.132  16.747  0.00  0.00    +0.000 C 
BRANCH   3   4
ATOM      4  C   UNL     1       4.448   6.731  16.601  0.00  0.00    +0.000 C 
BRANCH   4   6
ATOM      5  C   UNL     1       2.596   8.230  17.528  0.00  0.00    +0.000 C 
ATOM      6  C   UNL     1       3.918   7.526  17.794  0.00  0.00    +0.000 C 
ENDBRANCH   4   6
ENDBRANCH   3   4
BRANCH   3   7
ATOM      7  O   UNL     1       5.867   4.876  16.025  0.00  0.00    +0.000 OA
BRANCH   7   8
ATOM      8  C   UNL     1       6.671   4.803  14.931  0.00  0.00    +0.000 C 
ATOM      9  C   UNL     1       6.051   3.929  13.883  0.00  0.00    +0.000 C 
ATOM     10  O   UNL     1       7.730   5.395  14.785  0.00  0.00    +0.000 OA
ENDBRANCH   7   8
ENDBRANCH   3   7
ENDBRANCH   2   3
ENDBRANCH   1   2
BRANCH   1  11
ATOM     11  C   UNL     1       4.613   4.429  19.660  0.00  0.00    +0.000 C 
BRANCH  11  12
ATOM     12  C   UNL     1       3.370   3.691  19.117  0.00  0.00    +0.000 C 
ATOM     13  C   UNL     1       3.111   2.298  19.767  0.00  0.00    +0.000 C 
ATOM     14  C   UNL     1       2.877   2.422  21.281  0.00  0.00    +0.000 C 
ATOM     15  C   UNL     1       1.475   3.037  21.362  0.00  0.00    +0.000 C 
ATOM     16  C   UNL     1       1.105   3.250  19.880  0.00  0.00    +0.000 C 
ATOM     17  C   UNL     1       1.704   1.978  19.270  0.00  0.00    +0.000 C 
ATOM     18  C   UNL     1       1.966   4.384  19.225  0.00  0.00    +0.000 C 
ATOM     19  C   UNL     1       1.926   5.701  20.010  0.00  0.00    +0.000 C 
ATOM     20  C   UNL     1       1.419   4.693  17.810  0.00  0.00    +0.000 C 
ENDBRANCH  11  12
ENDBRANCH   1  11
TORSDOF 8
ENDMDL
