MODEL 1
REMARK VINA RESULT:      -7.1      0.000      0.000
REMARK  Name = 
REMARK  8 active torsions:
REMARK  status: ('A' for Active; 'I' for Inactive)
REMARK    1  A    between atoms: C_1  and  C_2
REMARK    2  A    between atoms: C_5  and  C_6
REMARK    3  A    between atoms: C_6  and  O_8
REMARK    4  A    between atoms: O_8  and  N_9
REMARK    5  A    between atoms: C_15  and  C_16
REMARK    6  A    between atoms: C_16  and  N_17
REMARK    7  A    between atoms: N_17  and  C_18
REMARK    8  A    between atoms: N_17  and  C_19
REMARK                            x       y       z     vdW  Elec       q    Type
REMARK                         _______ _______ _______ _____ _____    ______ ____
ROOT
ATOM      1  N   UNL     1       5.225   7.539  16.943  0.00  0.00    +0.000 NA
ATOM      2  C   UNL     1       6.269   6.822  17.280  0.00  0.00    +0.000 C 
ATOM      3  C   UNL     1       7.621   7.477  17.306  0.00  0.00    +0.000 C 
ATOM      4  C   UNL     1       8.168   7.415  18.739  0.00  0.00    +0.000 C 
ATOM      5  C   UNL     1       8.211   5.960  19.241  0.00  0.00    +0.000 C 
ATOM      6  C   UNL     1       6.811   5.306  19.162  0.00  0.00    +0.000 C 
ATOM      7  C   UNL     1       6.212   5.350  17.725  0.00  0.00    +0.000 C 
ENDROOT
BRANCH   1   8
ATOM      8  O   UNL     1       4.011   7.044  16.836  0.00  0.00    +0.000 OA
BRANCH   8   9
ATOM      9  C   UNL     1       3.026   7.338  17.750  0.00  0.00    +0.000 C 
ATOM     10  O   UNL     1       2.612   8.476  17.862  0.00  0.00    +0.000 OA
BRANCH   9  15
ATOM     11  C   UNL     1       1.168   2.874  20.947  0.00  0.00    +0.000 C 
ATOM     12  C   UNL     1       1.553   4.065  20.119  0.00  0.00    +0.000 A 
ATOM     13  C   UNL     1       1.558   3.985  18.721  0.00  0.00    +0.000 A 
ATOM     14  C   UNL     1       2.016   5.057  17.957  0.00  0.00    +0.000 A 
ATOM     15  C   UNL     1       2.469   6.238  18.577  0.00  0.00    +0.000 A 
ATOM     16  C   UNL     1       2.412   6.333  19.977  0.00  0.00    +0.000 A 
ATOM     17  C   UNL     1       1.957   5.254  20.745  0.00  0.00    +0.000 A 
ENDBRANCH   9  15
ENDBRANCH   8   9
ENDBRANCH   1   8
BRANCH   7  18
ATOM     18  C   UNL     1       6.968   4.409  16.754  0.00  0.00    +0.000 C 
BRANCH  18  19
ATOM     19  N   UNL     1       6.082   3.725  15.771  0.00  0.00    +0.000 NA
ATOM     20  C   UNL     1       4.664   3.674  16.180  0.00  0.00    +0.000 C 
ATOM     21  C   UNL     1       6.168   4.422  14.476  0.00  0.00    +0.000 C 
ENDBRANCH  18  19
ENDBRANCH   7  18
TORSDOF 5
ENDMDL
MODEL 2
REMARK VINA RESULT:      -6.9      0.705      1.454
REMARK  Name = 
REMARK  8 active torsions:
REMARK  status: ('A' for Active; 'I' for Inactive)
REMARK    1  A    between atoms: C_1  and  C_2
REMARK    2  A    between atoms: C_5  and  C_6
REMARK    3  A    between atoms: C_6  and  O_8
REMARK    4  A    between atoms: O_8  and  N_9
REMARK    5  A    between atoms: C_15  and  C_16
REMARK    6  A    between atoms: C_16  and  N_17
REMARK    7  A    between atoms: N_17  and  C_18
REMARK    8  A    between atoms: N_17  and  C_19
REMARK                            x       y       z     vdW  Elec       q    Type
REMARK                         _______ _______ _______ _____ _____    ______ ____
ROOT
ATOM      1  N   UNL     1       5.116   7.571  17.007  0.00  0.00    +0.000 NA
ATOM      2  C   UNL     1       6.084   6.704  17.186  0.00  0.00    +0.000 C 
ATOM      3  C   UNL     1       7.490   7.211  17.340  0.00  0.00    +0.000 C 
ATOM      4  C   UNL     1       8.007   6.806  18.727  0.00  0.00    +0.000 C 
ATOM      5  C   UNL     1       7.907   5.282  18.921  0.00  0.00    +0.000 C 
ATOM      6  C   UNL     1       6.453   4.792  18.715  0.00  0.00    +0.000 C 
ATOM      7  C   UNL     1       5.883   5.185  17.320  0.00  0.00    +0.000 C 
ENDROOT
BRANCH   1   8
ATOM      8  O   UNL     1       3.863   7.224  16.805  0.00  0.00    +0.000 OA
BRANCH   8   9
ATOM      9  C   UNL     1       2.907   7.368  17.783  0.00  0.00    +0.000 C 
ATOM     10  O   UNL     1       2.378   8.447  17.973  0.00  0.00    +0.000 OA
BRANCH   9  15
ATOM     11  C   UNL     1       1.072   2.861  20.933  0.00  0.00    +0.000 C 
ATOM     12  C   UNL     1       1.641   3.992  20.128  0.00  0.00    +0.000 A 
ATOM     13  C   UNL     1       2.000   5.195  20.749  0.00  0.00    +0.000 A 
ATOM     14  C   UNL     1       2.430   6.279  19.987  0.00  0.00    +0.000 A 
ATOM     15  C   UNL     1       2.521   6.179  18.584  0.00  0.00    +0.000 A 
ATOM     16  C   UNL     1       2.212   4.954  17.971  0.00  0.00    +0.000 A 
ATOM     17  C   UNL     1       1.775   3.866  18.737  0.00  0.00    +0.000 A 
ENDBRANCH   9  15
ENDBRANCH   8   9
ENDBRANCH   1   8
BRANCH   7  18
ATOM     18  C   UNL     1       6.564   4.396  16.174  0.00  0.00    +0.000 C 
BRANCH  18  19
ATOM     19  N   UNL     1       6.269   4.937  14.816  0.00  0.00    +0.000 NA
ATOM     20  C   UNL     1       7.458   5.052  13.948  0.00  0.00    +0.000 C 
ATOM     21  C   UNL     1       5.289   4.061  14.151  0.00  0.00    +0.000 C 
ENDBRANCH  18  19
ENDBRANCH   7  18
TORSDOF 5
ENDMDL
MODEL 3
REMARK VINA RESULT:      -6.9      2.810      3.892
REMARK  Name = 
REMARK  8 active torsions:
REMARK  status: ('A' for Active; 'I' for Inactive)
REMARK    1  A    between atoms: C_1  and  C_2
REMARK    2  A    between atoms: C_5  and  C_6
REMARK    3  A    between atoms: C_6  and  O_8
REMARK    4  A    between atoms: O_8  and  N_9
REMARK    5  A    between atoms: C_15  and  C_16
REMARK    6  A    between atoms: C_16  and  N_17
REMARK    7  A    between atoms: N_17  and  C_18
REMARK    8  A    between atoms: N_17  and  C_19
REMARK                            x       y       z     vdW  Elec       q    Type
REMARK                         _______ _______ _______ _____ _____    ______ ____
ROOT
ATOM      1  N   UNL     1       3.787   6.859  17.520  0.00  0.00    +0.000 NA
ATOM      2  C   UNL     1       4.670   5.898  17.649  0.00  0.00    +0.000 C 
ATOM      3  C   UNL     1       5.409   5.425  16.430  0.00  0.00    +0.000 C 
ATOM      4  C   UNL     1       6.907   5.684  16.634  0.00  0.00    +0.000 C 
ATOM      5  C   UNL     1       7.406   5.004  17.922  0.00  0.00    +0.000 C 
ATOM      6  C   UNL     1       6.596   5.486  19.151  0.00  0.00    +0.000 C 
ATOM      7  C   UNL     1       5.065   5.247  18.986  0.00  0.00    +0.000 C 
ENDROOT
BRANCH   1   8
ATOM      8  O   UNL     1       3.050   7.302  18.516  0.00  0.00    +0.000 OA
BRANCH   8   9
ATOM      9  C   UNL     1       2.218   8.388  18.372  0.00  0.00    +0.000 C 
ATOM     10  O   UNL     1       2.157   8.981  17.312  0.00  0.00    +0.000 OA
BRANCH   9  15
ATOM     11  C   UNL     1      -0.750  10.200  23.010  0.00  0.00    +0.000 C 
ATOM     12  C   UNL     1      -0.060   9.669  21.788  0.00  0.00    +0.000 A 
ATOM     13  C   UNL     1       0.814   8.579  21.884  0.00  0.00    +0.000 A 
ATOM     14  C   UNL     1       1.534   8.154  20.769  0.00  0.00    +0.000 A 
ATOM     15  C   UNL     1       1.385   8.806  19.528  0.00  0.00    +0.000 A 
ATOM     16  C   UNL     1       0.468   9.864  19.424  0.00  0.00    +0.000 A 
ATOM     17  C   UNL     1      -0.251  10.294  20.547  0.00  0.00    +0.000 A 
ENDBRANCH   9  15
ENDBRANCH   8   9
ENDBRANCH   1   8
BRANCH   7  18
ATOM     18  C   UNL     1       4.705   3.742  19.040  0.00  0.00    +0.000 C 
BRANCH  18  19
ATOM     19  N   UNL     1       3.326   3.438  18.563  0.00  0.00    +0.000 NA
ATOM     20  C   UNL     1       3.179   2.088  17.982  0.00  0.00    +0.000 C 
ATOM     21  C   UNL     1       2.387   3.564  19.690  0.00  0.00    +0.000 C 
ENDBRANCH  18  19
ENDBRANCH   7  18
TORSDOF 5
ENDMDL
MODEL 4
REMARK VINA RESULT:      -6.7      3.225      5.357
REMARK  Name = 
REMARK  8 active torsions:
REMARK  status: ('A' for Active; 'I' for Inactive)
REMARK    1  A    between atoms: C_1  and  C_2
REMARK    2  A    between atoms: C_5  and  C_6
REMARK    3  A    between atoms: C_6  and  O_8
REMARK    4  A    between atoms: O_8  and  N_9
REMARK    5  A    between atoms: C_15  and  C_16
REMARK    6  A    between atoms: C_16  and  N_17
REMARK    7  A    between atoms: N_17  and  C_18
REMARK    8  A    between atoms: N_17  and  C_19
REMARK                            x       y       z     vdW  Elec       q    Type
REMARK                         _______ _______ _______ _____ _____    ______ ____
ROOT
ATOM      1  N   UNL     1       2.221   6.548  20.053  0.00  0.00    +0.000 NA
ATOM      2  C   UNL     1       2.309   5.281  19.729  0.00  0.00    +0.000 C 
ATOM      3  C   UNL     1       1.943   4.245  20.753  0.00  0.00    +0.000 C 
ATOM      4  C   UNL     1       0.756   3.430  20.223  0.00  0.00    +0.000 C 
ATOM      5  C   UNL     1       1.090   2.810  18.854  0.00  0.00    +0.000 C 
ATOM      6  C   UNL     1       1.501   3.903  17.837  0.00  0.00    +0.000 C 
ATOM      7  C   UNL     1       2.702   4.761  18.336  0.00  0.00    +0.000 C 
ENDROOT
BRANCH   1   8
ATOM      8  O   UNL     1       2.572   7.527  19.247  0.00  0.00    +0.000 OA
BRANCH   8   9
ATOM      9  C   UNL     1       1.706   8.546  18.926  0.00  0.00    +0.000 C 
ATOM     10  O   UNL     1       1.518   8.851  17.764  0.00  0.00    +0.000 OA
BRANCH   9  15
ATOM     11  C   UNL     1      -1.360  11.082  23.143  0.00  0.00    +0.000 C 
ATOM     12  C   UNL     1      -0.496  10.497  22.065  0.00  0.00    +0.000 A 
ATOM     13  C   UNL     1      -0.672  10.879  20.729  0.00  0.00    +0.000 A 
ATOM     14  C   UNL     1       0.059  10.259  19.717  0.00  0.00    +0.000 A 
ATOM     15  C   UNL     1       0.993   9.249  20.023  0.00  0.00    +0.000 A 
ATOM     16  C   UNL     1       1.205   8.907  21.369  0.00  0.00    +0.000 A 
ATOM     17  C   UNL     1       0.466   9.527  22.385  0.00  0.00    +0.000 A 
ENDBRANCH   9  15
ENDBRANCH   8   9
ENDBRANCH   1   8
BRANCH   7  18
ATOM     18  C   UNL     1       4.022   3.950  18.358  0.00  0.00    +0.000 C 
BRANCH  18  19
ATOM     19  N   UNL     1       5.219   4.743  17.959  0.00  0.00    +0.000 NA
ATOM     20  C   UNL     1       4.910   5.892  17.084  0.00  0.00    +0.000 C 
ATOM     21  C   UNL     1       5.889   5.247  19.170  0.00  0.00    +0.000 C 
ENDBRANCH  18  19
ENDBRANCH   7  18
TORSDOF 5
ENDMDL
MODEL 5
REMARK VINA RESULT:      -6.7      2.844      3.933
REMARK  Name = 
REMARK  8 active torsions:
REMARK  status: ('A' for Active; 'I' for Inactive)
REMARK    1  A    between atoms: C_1  and  C_2
REMARK    2  A    between atoms: C_5  and  C_6
REMARK    3  A    between atoms: C_6  and  O_8
REMARK    4  A    between atoms: O_8  and  N_9
REMARK    5  A    between atoms: C_15  and  C_16
REMARK    6  A    between atoms: C_16  and  N_17
REMARK    7  A    between atoms: N_17  and  C_18
REMARK    8  A    between atoms: N_17  and  C_19
REMARK                            x       y       z     vdW  Elec       q    Type
REMARK                         _______ _______ _______ _____ _____    ______ ____
ROOT
ATOM      1  N   UNL     1       3.761   7.028  17.460  0.00  0.00    +0.000 NA
ATOM      2  C   UNL     1       4.656   6.076  17.575  0.00  0.00    +0.000 C 
ATOM      3  C   UNL     1       5.571   5.798  16.416  0.00  0.00    +0.000 C 
ATOM      4  C   UNL     1       7.017   6.056  16.861  0.00  0.00    +0.000 C 
ATOM      5  C   UNL     1       7.363   5.209  18.099  0.00  0.00    +0.000 C 
ATOM      6  C   UNL     1       6.377   5.493  19.258  0.00  0.00    +0.000 C 
ATOM      7  C   UNL     1       4.893   5.249  18.850  0.00  0.00    +0.000 C 
ENDROOT
BRANCH   1   8
ATOM      8  O   UNL     1       2.880   7.309  18.395  0.00  0.00    +0.000 OA
BRANCH   8   9
ATOM      9  C   UNL     1       2.124   8.458  18.355  0.00  0.00    +0.000 C 
ATOM     10  O   UNL     1       1.996   9.074  17.314  0.00  0.00    +0.000 OA
BRANCH   9  15
ATOM     11  C   UNL     1      -0.792  10.139  23.075  0.00  0.00    +0.000 C 
ATOM     12  C   UNL     1       0.045   9.750  21.892  0.00  0.00    +0.000 A 
ATOM     13  C   UNL     1       0.087  10.565  20.754  0.00  0.00    +0.000 A 
ATOM     14  C   UNL     1       0.780  10.152  19.617  0.00  0.00    +0.000 A 
ATOM     15  C   UNL     1       1.457   8.916  19.600  0.00  0.00    +0.000 A 
ATOM     16  C   UNL     1       1.457   8.127  20.762  0.00  0.00    +0.000 A 
ATOM     17  C   UNL     1       0.756   8.541  21.902  0.00  0.00    +0.000 A 
ENDBRANCH   9  15
ENDBRANCH   8   9
ENDBRANCH   1   8
BRANCH   7  18
ATOM     18  C   UNL     1       4.589   3.745  18.644  0.00  0.00    +0.000 C 
BRANCH  18  19
ATOM     19  N   UNL     1       3.457   3.243  19.473  0.00  0.00    +0.000 NA
ATOM     20  C   UNL     1       2.765   4.298  20.241  0.00  0.00    +0.000 C 
ATOM     21  C   UNL     1       2.472   2.585  18.597  0.00  0.00    +0.000 C 
ENDBRANCH  18  19
ENDBRANCH   7  18
TORSDOF 5
ENDMDL
MODEL 6
REMARK VINA RESULT:      -6.7      1.990      6.208
REMARK  Name = 
REMARK  8 active torsions:
REMARK  status: ('A' for Active; 'I' for Inactive)
REMARK    1  A    between atoms: C_1  and  C_2
REMARK    2  A    between atoms: C_5  and  C_6
REMARK    3  A    between atoms: C_6  and  O_8
REMARK    4  A    between atoms: O_8  and  N_9
REMARK    5  A    between atoms: C_15  and  C_16
REMARK    6  A    between atoms: C_16  and  N_17
REMARK    7  A    between atoms: N_17  and  C_18
REMARK    8  A    between atoms: N_17  and  C_19
REMARK                            x       y       z     vdW  Elec       q    Type
REMARK                         _______ _______ _______ _____ _____    ______ ____
ROOT
ATOM      1  N   UNL     1       3.993   2.911  18.116  0.00  0.00    +0.000 NA
ATOM      2  C   UNL     1       2.939   3.476  18.652  0.00  0.00    +0.000 C 
ATOM      3  C   UNL     1       1.611   2.782  18.544  0.00  0.00    +0.000 C 
ATOM      4  C   UNL     1       1.111   2.456  19.957  0.00  0.00    +0.000 C 
ATOM      5  C   UNL     1       1.038   3.731  20.816  0.00  0.00    +0.000 C 
ATOM      6  C   UNL     1       2.413   4.440  20.873  0.00  0.00    +0.000 C 
ATOM      7  C   UNL     1       2.964   4.787  19.457  0.00  0.00    +0.000 C 
ENDROOT
BRANCH   1   8
ATOM      8  O   UNL     1       5.186   3.465  18.109  0.00  0.00    +0.000 OA
BRANCH   8   9
ATOM      9  C   UNL     1       5.584   4.315  17.103  0.00  0.00    +0.000 C 
ATOM     10  O   UNL     1       5.215   4.129  15.959  0.00  0.00    +0.000 OA
BRANCH   9  15
ATOM     11  C   UNL     1       8.701   8.959  18.628  0.00  0.00    +0.000 C 
ATOM     12  C   UNL     1       7.970   7.731  18.171  0.00  0.00    +0.000 A 
ATOM     13  C   UNL     1       7.070   7.799  17.099  0.00  0.00    +0.000 A 
ATOM     14  C   UNL     1       6.314   6.683  16.744  0.00  0.00    +0.000 A 
ATOM     15  C   UNL     1       6.453   5.469  17.447  0.00  0.00    +0.000 A 
ATOM     16  C   UNL     1       7.395   5.391  18.485  0.00  0.00    +0.000 A 
ATOM     17  C   UNL     1       8.150   6.515  18.845  0.00  0.00    +0.000 A 
ENDBRANCH   9  15
ENDBRANCH   8   9
ENDBRANCH   1   8
BRANCH   7  18
ATOM     18  C   UNL     1       2.145   5.913  18.778  0.00  0.00    +0.000 C 
BRANCH  18  19
ATOM     19  N   UNL     1       2.687   7.280  19.023  0.00  0.00    +0.000 NA
ATOM     20  C   UNL     1       2.886   8.072  17.793  0.00  0.00    +0.000 C 
ATOM     21  C   UNL     1       1.765   8.014  19.906  0.00  0.00    +0.000 C 
ENDBRANCH  18  19
ENDBRANCH   7  18
TORSDOF 5
ENDMDL
MODEL 7
REMARK VINA RESULT:      -6.7      2.207      6.142
REMARK  Name = 
REMARK  8 active torsions:
REMARK  status: ('A' for Active; 'I' for Inactive)
REMARK    1  A    between atoms: C_1  and  C_2
REMARK    2  A    between atoms: C_5  and  C_6
REMARK    3  A    between atoms: C_6  and  O_8
REMARK    4  A    between atoms: O_8  and  N_9
REMARK    5  A    between atoms: C_15  and  C_16
REMARK    6  A    between atoms: C_16  and  N_17
REMARK    7  A    between atoms: N_17  and  C_18
REMARK    8  A    between atoms: N_17  and  C_19
REMARK                            x       y       z     vdW  Elec       q    Type
REMARK                         _______ _______ _______ _____ _____    ______ ____
ROOT
ATOM      1  N   UNL     1       4.661   3.087  19.062  0.00  0.00    +0.000 NA
ATOM      2  C   UNL     1       3.429   3.510  19.207  0.00  0.00    +0.000 C 
ATOM      3  C   UNL     1       2.301   2.622  18.764  0.00  0.00    +0.000 C 
ATOM      4  C   UNL     1       1.436   2.282  19.985  0.00  0.00    +0.000 C 
ATOM      5  C   UNL     1       0.937   3.567  20.672  0.00  0.00    +0.000 C 
ATOM      6  C   UNL     1       2.123   4.475  21.078  0.00  0.00    +0.000 C 
ATOM      7  C   UNL     1       3.034   4.842  19.868  0.00  0.00    +0.000 C 
ENDROOT
BRANCH   1   8
ATOM      8  O   UNL     1       5.716   3.812  19.366  0.00  0.00    +0.000 OA
BRANCH   8   9
ATOM      9  C   UNL     1       6.110   4.878  18.590  0.00  0.00    +0.000 C 
ATOM     10  O   UNL     1       6.468   5.918  19.109  0.00  0.00    +0.000 OA
BRANCH   9  15
ATOM     11  C   UNL     1       6.143   3.921  12.873  0.00  0.00    +0.000 C 
ATOM     12  C   UNL     1       6.138   4.268  14.333  0.00  0.00    +0.000 A 
ATOM     13  C   UNL     1       7.340   4.338  15.049  0.00  0.00    +0.000 A 
ATOM     14  C   UNL     1       7.326   4.557  16.425  0.00  0.00    +0.000 A 
ATOM     15  C   UNL     1       6.108   4.723  17.113  0.00  0.00    +0.000 A 
ATOM     16  C   UNL     1       4.909   4.706  16.382  0.00  0.00    +0.000 A 
ATOM     17  C   UNL     1       4.923   4.480  15.000  0.00  0.00    +0.000 A 
ENDBRANCH   9  15
ENDBRANCH   8   9
ENDBRANCH   1   8
BRANCH   7  18
ATOM     18  C   UNL     1       2.326   5.805  18.883  0.00  0.00    +0.000 C 
BRANCH  18  19
ATOM     19  N   UNL     1       2.695   7.236  19.074  0.00  0.00    +0.000 NA
ATOM     20  C   UNL     1       2.538   8.061  17.860  0.00  0.00    +0.000 C 
ATOM     21  C   UNL     1       1.857   7.812  20.139  0.00  0.00    +0.000 C 
ENDBRANCH  18  19
ENDBRANCH   7  18
TORSDOF 5
ENDMDL
MODEL 8
REMARK VINA RESULT:      -6.6      2.985      5.159
REMARK  Name = 
REMARK  8 active torsions:
REMARK  status: ('A' for Active; 'I' for Inactive)
REMARK    1  A    between atoms: C_1  and  C_2
REMARK    2  A    between atoms: C_5  and  C_6
REMARK    3  A    between atoms: C_6  and  O_8
REMARK    4  A    between atoms: O_8  and  N_9
REMARK    5  A    between atoms: C_15  and  C_16
REMARK    6  A    between atoms: C_16  and  N_17
REMARK    7  A    between atoms: N_17  and  C_18
REMARK    8  A    between atoms: N_17  and  C_19
REMARK                            x       y       z     vdW  Elec       q    Type
REMARK                         _______ _______ _______ _____ _____    ______ ____
ROOT
ATOM      1  N   UNL     1       2.290   6.550  19.635  0.00  0.00    +0.000 NA
ATOM      2  C   UNL     1       2.378   5.245  19.548  0.00  0.00    +0.000 C 
ATOM      3  C   UNL     1       2.124   4.419  20.777  0.00  0.00    +0.000 C 
ATOM      4  C   UNL     1       0.915   3.511  20.516  0.00  0.00    +0.000 C 
ATOM      5  C   UNL     1       1.145   2.646  19.263  0.00  0.00    +0.000 C 
ATOM      6  C   UNL     1       1.443   3.529  18.027  0.00  0.00    +0.000 C 
ATOM      7  C   UNL     1       2.662   4.473  18.249  0.00  0.00    +0.000 C 
ENDROOT
BRANCH   1   8
ATOM      8  O   UNL     1       2.548   7.361  18.632  0.00  0.00    +0.000 OA
BRANCH   8   9
ATOM      9  C   UNL     1       1.987   8.614  18.551  0.00  0.00    +0.000 C 
ATOM     10  O   UNL     1       2.160   9.304  17.565  0.00  0.00    +0.000 OA
BRANCH   9  15
ATOM     11  C   UNL     1      -1.008  10.723  23.045  0.00  0.00    +0.000 C 
ATOM     12  C   UNL     1      -0.303  10.104  21.874  0.00  0.00    +0.000 A 
ATOM     13  C   UNL     1       0.703   9.151  22.074  0.00  0.00    +0.000 A 
ATOM     14  C   UNL     1       1.428   8.655  20.992  0.00  0.00    +0.000 A 
ATOM     15  C   UNL     1       1.152   9.096  19.682  0.00  0.00    +0.000 A 
ATOM     16  C   UNL     1       0.107  10.011  19.481  0.00  0.00    +0.000 A 
ATOM     17  C   UNL     1      -0.618  10.513  20.570  0.00  0.00    +0.000 A 
ENDBRANCH   9  15
ENDBRANCH   8   9
ENDBRANCH   1   8
BRANCH   7  18
ATOM     18  C   UNL     1       3.997   3.689  18.307  0.00  0.00    +0.000 C 
BRANCH  18  19
ATOM     19  N   UNL     1       5.153   4.430  17.727  0.00  0.00    +0.000 NA
ATOM     20  C   UNL     1       4.775   5.405  16.684  0.00  0.00    +0.000 C 
ATOM     21  C   UNL     1       5.853   5.150  18.804  0.00  0.00    +0.000 C 
ENDBRANCH  18  19
ENDBRANCH   7  18
TORSDOF 5
ENDMDL
MODEL 9
REMARK VINA RESULT:      -6.5      2.088      6.113
REMARK  Name = 
REMARK  8 active torsions:
REMARK  status: ('A' for Active; 'I' for Inactive)
REMARK    1  A    between atoms: C_1  and  C_2
REMARK    2  A    between atoms: C_5  and  C_6
REMARK    3  A    between atoms: C_6  and  O_8
REMARK    4  A    between atoms: O_8  and  N_9
REMARK    5  A    between atoms: C_15  and  C_16
REMARK    6  A    between atoms: C_16  and  N_17
REMARK    7  A    between atoms: N_17  and  C_18
REMARK    8  A    between atoms: N_17  and  C_19
REMARK                            x       y       z     vdW  Elec       q    Type
REMARK                         _______ _______ _______ _____ _____    ______ ____
ROOT
ATOM      1  N   UNL     1       1.918   3.606  17.752  0.00  0.00    +0.000 NA
ATOM      2  C   UNL     1       1.710   3.906  19.011  0.00  0.00    +0.000 C 
ATOM      3  C   UNL     1       0.603   3.207  19.749  0.00  0.00    +0.000 C 
ATOM      4  C   UNL     1       1.214   2.415  20.912  0.00  0.00    +0.000 C 
ATOM      5  C   UNL     1       2.037   3.340  21.827  0.00  0.00    +0.000 C 
ATOM      6  C   UNL     1       3.140   4.072  21.026  0.00  0.00    +0.000 C 
ATOM      7  C   UNL     1       2.566   4.888  19.829  0.00  0.00    +0.000 C 
ENDROOT
BRANCH   1   8
ATOM      8  O   UNL     1       2.823   4.202  17.006  0.00  0.00    +0.000 OA
BRANCH   8   9
ATOM      9  C   UNL     1       4.143   3.815  17.023  0.00  0.00    +0.000 C 
ATOM     10  O   UNL     1       4.443   2.645  16.888  0.00  0.00    +0.000 OA
BRANCH   9  15
ATOM     11  C   UNL     1       7.989   8.072  17.858  0.00  0.00    +0.000 C 
ATOM     12  C   UNL     1       7.059   6.928  17.576  0.00  0.00    +0.000 A 
ATOM     13  C   UNL     1       6.087   7.035  16.574  0.00  0.00    +0.000 A 
ATOM     14  C   UNL     1       5.158   6.014  16.384  0.00  0.00    +0.000 A 
ATOM     15  C   UNL     1       5.189   4.857  17.188  0.00  0.00    +0.000 A 
ATOM     16  C   UNL     1       6.199   4.731  18.156  0.00  0.00    +0.000 A 
ATOM     17  C   UNL     1       7.129   5.761  18.350  0.00  0.00    +0.000 A 
ENDBRANCH   9  15
ENDBRANCH   8   9
ENDBRANCH   1   8
BRANCH   7  18
ATOM     18  C   UNL     1       1.760   6.122  20.304  0.00  0.00    +0.000 C 
BRANCH  18  19
ATOM     19  N   UNL     1       2.300   7.419  19.805  0.00  0.00    +0.000 NA
ATOM     20  C   UNL     1       2.424   7.488  18.335  0.00  0.00    +0.000 C 
ATOM     21  C   UNL     1       1.418   8.511  20.249  0.00  0.00    +0.000 C 
ENDBRANCH  18  19
ENDBRANCH   7  18
TORSDOF 5
ENDMDL
