MODEL 1
REMARK VINA RESULT:      -7.7      0.000      0.000
REMARK  Name = 
REMARK  3 active torsions:
REMARK  status: ('A' for Active; 'I' for Inactive)
REMARK    1  A    between atoms: C_1  and  C_2
REMARK    2  A    between atoms: C_5  and  C_6
REMARK    3  A    between atoms: C_11  and  O_12
REMARK                            x       y       z     vdW  Elec       q    Type
REMARK                         _______ _______ _______ _____ _____    ______ ____
ROOT
ATOM      1  C   UNL     1       4.972   3.954  17.173  0.00  0.00    +0.000 A 
ATOM      2  C   UNL     1       3.655   3.684  17.108  0.00  0.00    +0.000 A 
ATOM      3  C   UNL     1       2.881   3.412  18.309  0.00  0.00    +0.000 A 
ATOM      4  C   UNL     1       1.513   3.129  18.276  0.00  0.00    +0.000 A 
ATOM      5  C   UNL     1       0.818   2.873  19.466  0.00  0.00    +0.000 A 
ATOM      6  C   UNL     1       1.497   2.903  20.683  0.00  0.00    +0.000 A 
ATOM      7  C   UNL     1       2.856   3.181  20.730  0.00  0.00    +0.000 A 
ATOM      8  C   UNL     1       3.529   3.431  19.539  0.00  0.00    +0.000 A 
ATOM      9  O   UNL     1       4.900   3.716  19.620  0.00  0.00    +0.000 OA
ATOM     10  C   UNL     1       5.662   4.025  18.495  0.00  0.00    +0.000 A 
ATOM     11  O   UNL     1       6.837   4.349  18.630  0.00  0.00    +0.000 OA
ENDROOT
BRANCH   1  16
ATOM     12  C   UNL     1       6.285   3.454  12.462  0.00  0.00    +0.000 C 
ATOM     13  C   UNL     1       6.339   4.070  13.812  0.00  0.00    +0.000 A 
ATOM     14  C   UNL     1       7.112   5.144  14.194  0.00  0.00    +0.000 A 
ATOM     15  S   UNL     1       6.880   5.473  15.851  0.00  0.00    +0.000 S 
ATOM     16  C   UNL     1       5.671   4.228  15.950  0.00  0.00    +0.000 A 
ATOM     17  N   UNL     1       5.544   3.544  14.820  0.00  0.00    +0.000 NA
ENDBRANCH   1  16
BRANCH   6  18
ATOM     18  O   UNL     1       0.859   2.664  21.863  0.00  0.00    +0.000 OA
ATOM     19  H   UNL     1       1.315   3.144  22.573  0.00  0.00    +0.000 HD
ENDBRANCH   6  18
TORSDOF 2
ENDMDL
MODEL 2
REMARK VINA RESULT:      -7.3      2.575      6.471
REMARK  Name = 
REMARK  3 active torsions:
REMARK  status: ('A' for Active; 'I' for Inactive)
REMARK    1  A    between atoms: C_1  and  C_2
REMARK    2  A    between atoms: C_5  and  C_6
REMARK    3  A    between atoms: C_11  and  O_12
REMARK                            x       y       z     vdW  Elec       q    Type
REMARK                         _______ _______ _______ _____ _____    ______ ____
ROOT
ATOM      1  C   UNL     1       4.123   4.272  17.946  0.00  0.00    +0.000 A 
ATOM      2  C   UNL     1       4.172   3.858  16.666  0.00  0.00    +0.000 A 
ATOM      3  C   UNL     1       5.253   4.267  15.783  0.00  0.00    +0.000 A 
ATOM      4  C   UNL     1       5.335   3.854  14.450  0.00  0.00    +0.000 A 
ATOM      5  C   UNL     1       6.400   4.282  13.645  0.00  0.00    +0.000 A 
ATOM      6  C   UNL     1       7.377   5.119  14.179  0.00  0.00    +0.000 A 
ATOM      7  C   UNL     1       7.309   5.537  15.501  0.00  0.00    +0.000 A 
ATOM      8  C   UNL     1       6.243   5.104  16.284  0.00  0.00    +0.000 A 
ATOM      9  O   UNL     1       6.205   5.538  17.617  0.00  0.00    +0.000 OA
ATOM     10  C   UNL     1       5.209   5.130  18.503  0.00  0.00    +0.000 A 
ATOM     11  O   UNL     1       5.269   5.470  19.679  0.00  0.00    +0.000 OA
ENDROOT
BRANCH   1  16
ATOM     12  C   UNL     1       1.847   2.485  21.920  0.00  0.00    +0.000 C 
ATOM     13  C   UNL     1       1.912   3.001  20.529  0.00  0.00    +0.000 A 
ATOM     14  C   UNL     1       0.848   3.197  19.676  0.00  0.00    +0.000 A 
ATOM     15  S   UNL     1       1.405   3.761  18.166  0.00  0.00    +0.000 S 
ATOM     16  C   UNL     1       3.036   3.818  18.765  0.00  0.00    +0.000 A 
ATOM     17  N   UNL     1       3.148   3.333  19.996  0.00  0.00    +0.000 NA
ENDBRANCH   1  16
BRANCH   6  18
ATOM     18  O   UNL     1       8.431   5.554  13.433  0.00  0.00    +0.000 OA
ATOM     19  H   UNL     1       9.054   6.027  14.009  0.00  0.00    +0.000 HD
ENDBRANCH   6  18
TORSDOF 2
ENDMDL
MODEL 3
REMARK VINA RESULT:      -7.3      3.780      3.882
REMARK  Name = 
REMARK  3 active torsions:
REMARK  status: ('A' for Active; 'I' for Inactive)
REMARK    1  A    between atoms: C_1  and  C_2
REMARK    2  A    between atoms: C_5  and  C_6
REMARK    3  A    between atoms: C_11  and  O_12
REMARK                            x       y       z     vdW  Elec       q    Type
REMARK                         _______ _______ _______ _____ _____    ______ ____
ROOT
ATOM      1  C   UNL     1       4.340   6.091  17.611  0.00  0.00    +0.000 A 
ATOM      2  C   UNL     1       3.706   7.234  17.286  0.00  0.00    +0.000 A 
ATOM      3  C   UNL     1       2.763   7.858  18.201  0.00  0.00    +0.000 A 
ATOM      4  C   UNL     1       2.089   9.044  17.896  0.00  0.00    +0.000 A 
ATOM      5  C   UNL     1       1.190   9.599  18.817  0.00  0.00    +0.000 A 
ATOM      6  C   UNL     1       0.971   8.964  20.037  0.00  0.00    +0.000 A 
ATOM      7  C   UNL     1       1.632   7.786  20.354  0.00  0.00    +0.000 A 
ATOM      8  C   UNL     1       2.520   7.249  19.427  0.00  0.00    +0.000 A 
ATOM      9  O   UNL     1       3.178   6.061  19.777  0.00  0.00    +0.000 OA
ATOM     10  C   UNL     1       4.121   5.460  18.945  0.00  0.00    +0.000 A 
ATOM     11  O   UNL     1       4.729   4.470  19.335  0.00  0.00    +0.000 OA
ENDROOT
BRANCH   1  16
ATOM     12  C   UNL     1       5.890   3.753  13.574  0.00  0.00    +0.000 C 
ATOM     13  C   UNL     1       6.070   4.480  14.856  0.00  0.00    +0.000 A 
ATOM     14  C   UNL     1       7.267   4.833  15.438  0.00  0.00    +0.000 A 
ATOM     15  S   UNL     1       6.986   5.615  16.927  0.00  0.00    +0.000 S 
ATOM     16  C   UNL     1       5.269   5.539  16.667  0.00  0.00    +0.000 A 
ATOM     17  N   UNL     1       4.945   4.863  15.571  0.00  0.00    +0.000 NA
ENDBRANCH   1  16
BRANCH   6  18
ATOM     18  O   UNL     1       0.108   9.472  20.962  0.00  0.00    +0.000 OA
ATOM     19  H   UNL     1       0.414  10.354  21.232  0.00  0.00    +0.000 HD
ENDBRANCH   6  18
TORSDOF 2
ENDMDL
MODEL 4
REMARK VINA RESULT:      -7.2      1.568      2.000
REMARK  Name = 
REMARK  3 active torsions:
REMARK  status: ('A' for Active; 'I' for Inactive)
REMARK    1  A    between atoms: C_1  and  C_2
REMARK    2  A    between atoms: C_5  and  C_6
REMARK    3  A    between atoms: C_11  and  O_12
REMARK                            x       y       z     vdW  Elec       q    Type
REMARK                         _______ _______ _______ _____ _____    ______ ____
ROOT
ATOM      1  C   UNL     1       5.879   4.344  16.094  0.00  0.00    +0.000 A 
ATOM      2  C   UNL     1       4.538   4.280  16.180  0.00  0.00    +0.000 A 
ATOM      3  C   UNL     1       3.871   4.145  17.467  0.00  0.00    +0.000 A 
ATOM      4  C   UNL     1       2.481   4.077  17.591  0.00  0.00    +0.000 A 
ATOM      5  C   UNL     1       1.894   3.946  18.858  0.00  0.00    +0.000 A 
ATOM      6  C   UNL     1       2.702   3.886  19.991  0.00  0.00    +0.000 A 
ATOM      7  C   UNL     1       4.084   3.952  19.882  0.00  0.00    +0.000 A 
ATOM      8  C   UNL     1       4.649   4.080  18.617  0.00  0.00    +0.000 A 
ATOM      9  O   UNL     1       6.047   4.151  18.539  0.00  0.00    +0.000 OA
ATOM     10  C   UNL     1       6.716   4.325  17.329  0.00  0.00    +0.000 A 
ATOM     11  O   UNL     1       7.934   4.466  17.326  0.00  0.00    +0.000 OA
ENDROOT
BRANCH   1  16
ATOM     12  C   UNL     1       8.905   6.083  12.632  0.00  0.00    +0.000 C 
ATOM     13  C   UNL     1       7.803   5.231  13.146  0.00  0.00    +0.000 A 
ATOM     14  C   UNL     1       7.080   4.303  12.430  0.00  0.00    +0.000 A 
ATOM     15  S   UNL     1       5.887   3.597  13.422  0.00  0.00    +0.000 S 
ATOM     16  C   UNL     1       6.470   4.491  14.794  0.00  0.00    +0.000 A 
ATOM     17  N   UNL     1       7.434   5.347  14.478  0.00  0.00    +0.000 NA
ENDBRANCH   1  16
BRANCH   6  18
ATOM     18  O   UNL     1       2.172   3.763  21.240  0.00  0.00    +0.000 OA
ATOM     19  H   UNL     1       2.848   3.401  21.838  0.00  0.00    +0.000 HD
ENDBRANCH   6  18
TORSDOF 2
ENDMDL
MODEL 5
REMARK VINA RESULT:      -7.2      4.569      6.936
REMARK  Name = 
REMARK  3 active torsions:
REMARK  status: ('A' for Active; 'I' for Inactive)
REMARK    1  A    between atoms: C_1  and  C_2
REMARK    2  A    between atoms: C_5  and  C_6
REMARK    3  A    between atoms: C_11  and  O_12
REMARK                            x       y       z     vdW  Elec       q    Type
REMARK                         _______ _______ _______ _____ _____    ______ ____
ROOT
ATOM      1  C   UNL     1       2.584   7.045  19.067  0.00  0.00    +0.000 A 
ATOM      2  C   UNL     1       3.333   7.340  17.989  0.00  0.00    +0.000 A 
ATOM      3  C   UNL     1       4.129   6.320  17.323  0.00  0.00    +0.000 A 
ATOM      4  C   UNL     1       4.917   6.592  16.201  0.00  0.00    +0.000 A 
ATOM      5  C   UNL     1       5.665   5.569  15.601  0.00  0.00    +0.000 A 
ATOM      6  C   UNL     1       5.618   4.280  16.127  0.00  0.00    +0.000 A 
ATOM      7  C   UNL     1       4.840   3.995  17.241  0.00  0.00    +0.000 A 
ATOM      8  C   UNL     1       4.107   5.023  17.824  0.00  0.00    +0.000 A 
ATOM      9  O   UNL     1       3.326   4.704  18.944  0.00  0.00    +0.000 OA
ATOM     10  C   UNL     1       2.517   5.645  19.579  0.00  0.00    +0.000 A 
ATOM     11  O   UNL     1       1.789   5.294  20.501  0.00  0.00    +0.000 OA
ENDROOT
BRANCH   1  16
ATOM     12  C   UNL     1       0.233   9.534  22.595  0.00  0.00    +0.000 C 
ATOM     13  C   UNL     1       0.708   9.298  21.208  0.00  0.00    +0.000 A 
ATOM     14  C   UNL     1       0.518  10.125  20.123  0.00  0.00    +0.000 A 
ATOM     15  S   UNL     1       1.199   9.425  18.726  0.00  0.00    +0.000 S 
ATOM     16  C   UNL     1       1.812   8.097  19.665  0.00  0.00    +0.000 A 
ATOM     17  N   UNL     1       1.422   8.141  20.933  0.00  0.00    +0.000 NA
ENDBRANCH   1  16
BRANCH   6  18
ATOM     18  O   UNL     1       6.326   3.256  15.573  0.00  0.00    +0.000 OA
ATOM     19  H   UNL     1       6.463   2.565  16.242  0.00  0.00    +0.000 HD
ENDBRANCH   6  18
TORSDOF 2
ENDMDL
MODEL 6
REMARK VINA RESULT:      -7.2      1.432      1.517
REMARK  Name = 
REMARK  3 active torsions:
REMARK  status: ('A' for Active; 'I' for Inactive)
REMARK    1  A    between atoms: C_1  and  C_2
REMARK    2  A    between atoms: C_5  and  C_6
REMARK    3  A    between atoms: C_11  and  O_12
REMARK                            x       y       z     vdW  Elec       q    Type
REMARK                         _______ _______ _______ _____ _____    ______ ____
ROOT
ATOM      1  C   UNL     1       4.647   4.428  16.674  0.00  0.00    +0.000 A 
ATOM      2  C   UNL     1       4.216   3.224  17.095  0.00  0.00    +0.000 A 
ATOM      3  C   UNL     1       3.290   3.104  18.211  0.00  0.00    +0.000 A 
ATOM      4  C   UNL     1       2.824   1.869  18.672  0.00  0.00    +0.000 A 
ATOM      5  C   UNL     1       1.933   1.814  19.754  0.00  0.00    +0.000 A 
ATOM      6  C   UNL     1       1.514   2.994  20.365  0.00  0.00    +0.000 A 
ATOM      7  C   UNL     1       1.970   4.226  19.918  0.00  0.00    +0.000 A 
ATOM      8  C   UNL     1       2.855   4.261  18.845  0.00  0.00    +0.000 A 
ATOM      9  O   UNL     1       3.293   5.521  18.411  0.00  0.00    +0.000 OA
ATOM     10  C   UNL     1       4.144   5.677  17.319  0.00  0.00    +0.000 A 
ATOM     11  O   UNL     1       4.428   6.803  16.928  0.00  0.00    +0.000 OA
ENDROOT
BRANCH   1  16
ATOM     12  C   UNL     1       6.333   3.569  12.137  0.00  0.00    +0.000 C 
ATOM     13  C   UNL     1       6.402   4.128  13.511  0.00  0.00    +0.000 A 
ATOM     14  C   UNL     1       7.417   4.900  14.033  0.00  0.00    +0.000 A 
ATOM     15  S   UNL     1       7.088   5.274  15.663  0.00  0.00    +0.000 S 
ATOM     16  C   UNL     1       5.548   4.475  15.558  0.00  0.00    +0.000 A 
ATOM     17  N   UNL     1       5.360   3.874  14.390  0.00  0.00    +0.000 NA
ENDBRANCH   1  16
BRANCH   6  18
ATOM     18  O   UNL     1       0.646   2.985  21.416  0.00  0.00    +0.000 OA
ATOM     19  H   UNL     1       0.686   3.844  21.868  0.00  0.00    +0.000 HD
ENDBRANCH   6  18
TORSDOF 2
ENDMDL
MODEL 7
REMARK VINA RESULT:      -7.1      2.627      6.461
REMARK  Name = 
REMARK  3 active torsions:
REMARK  status: ('A' for Active; 'I' for Inactive)
REMARK    1  A    between atoms: C_1  and  C_2
REMARK    2  A    between atoms: C_5  and  C_6
REMARK    3  A    between atoms: C_11  and  O_12
REMARK                            x       y       z     vdW  Elec       q    Type
REMARK                         _______ _______ _______ _____ _____    ______ ____
ROOT
ATOM      1  C   UNL     1       4.924   4.114  17.985  0.00  0.00    +0.000 A 
ATOM      2  C   UNL     1       4.708   3.802  16.694  0.00  0.00    +0.000 A 
ATOM      3  C   UNL     1       5.631   4.227  15.652  0.00  0.00    +0.000 A 
ATOM      4  C   UNL     1       5.437   3.918  14.302  0.00  0.00    +0.000 A 
ATOM      5  C   UNL     1       6.358   4.356  13.341  0.00  0.00    +0.000 A 
ATOM      6  C   UNL     1       7.469   5.099  13.737  0.00  0.00    +0.000 A 
ATOM      7  C   UNL     1       7.674   5.413  15.073  0.00  0.00    +0.000 A 
ATOM      8  C   UNL     1       6.747   4.972  16.012  0.00  0.00    +0.000 A 
ATOM      9  O   UNL     1       6.985   5.299  17.355  0.00  0.00    +0.000 OA
ATOM     10  C   UNL     1       6.147   4.871  18.384  0.00  0.00    +0.000 A 
ATOM     11  O   UNL     1       6.446   5.112  19.548  0.00  0.00    +0.000 OA
ENDROOT
BRANCH   1  16
ATOM     12  C   UNL     1       0.725   3.911  20.533  0.00  0.00    +0.000 C 
ATOM     13  C   UNL     1       2.104   3.487  20.183  0.00  0.00    +0.000 A 
ATOM     14  C   UNL     1       2.813   2.451  20.750  0.00  0.00    +0.000 A 
ATOM     15  S   UNL     1       4.371   2.363  20.065  0.00  0.00    +0.000 S 
ATOM     16  C   UNL     1       3.982   3.650  18.963  0.00  0.00    +0.000 A 
ATOM     17  N   UNL     1       2.783   4.174  19.188  0.00  0.00    +0.000 NA
ENDBRANCH   1  16
BRANCH   6  18
ATOM     18  O   UNL     1       8.391   5.540  12.836  0.00  0.00    +0.000 OA
ATOM     19  H   UNL     1       7.944   5.739  11.996  0.00  0.00    +0.000 HD
ENDBRANCH   6  18
TORSDOF 2
ENDMDL
MODEL 8
REMARK VINA RESULT:      -7.0      2.771      6.414
REMARK  Name = 
REMARK  3 active torsions:
REMARK  status: ('A' for Active; 'I' for Inactive)
REMARK    1  A    between atoms: C_1  and  C_2
REMARK    2  A    between atoms: C_5  and  C_6
REMARK    3  A    between atoms: C_11  and  O_12
REMARK                            x       y       z     vdW  Elec       q    Type
REMARK                         _______ _______ _______ _____ _____    ______ ____
ROOT
ATOM      1  C   UNL     1       4.570   4.734  18.224  0.00  0.00    +0.000 A 
ATOM      2  C   UNL     1       4.245   4.397  16.962  0.00  0.00    +0.000 A 
ATOM      3  C   UNL     1       5.212   4.505  15.880  0.00  0.00    +0.000 A 
ATOM      4  C   UNL     1       4.906   4.163  14.560  0.00  0.00    +0.000 A 
ATOM      5  C   UNL     1       5.878   4.289  13.557  0.00  0.00    +0.000 A 
ATOM      6  C   UNL     1       7.150   4.756  13.883  0.00  0.00    +0.000 A 
ATOM      7  C   UNL     1       7.466   5.101  15.189  0.00  0.00    +0.000 A 
ATOM      8  C   UNL     1       6.489   4.971  16.170  0.00  0.00    +0.000 A 
ATOM      9  O   UNL     1       6.840   5.320  17.482  0.00  0.00    +0.000 OA
ATOM     10  C   UNL     1       5.954   5.187  18.550  0.00  0.00    +0.000 A 
ATOM     11  O   UNL     1       6.339   5.426  19.689  0.00  0.00    +0.000 OA
ENDROOT
BRANCH   1  16
ATOM     12  C   UNL     1       1.869   2.504  21.673  0.00  0.00    +0.000 C 
ATOM     13  C   UNL     1       2.286   3.653  20.829  0.00  0.00    +0.000 A 
ATOM     14  C   UNL     1       1.781   4.934  20.878  0.00  0.00    +0.000 A 
ATOM     15  S   UNL     1       2.529   5.904  19.693  0.00  0.00    +0.000 S 
ATOM     16  C   UNL     1       3.572   4.588  19.245  0.00  0.00    +0.000 A 
ATOM     17  N   UNL     1       3.284   3.462  19.885  0.00  0.00    +0.000 NA
ENDBRANCH   1  16
BRANCH   6  18
ATOM     18  O   UNL     1       8.124   4.890  12.940  0.00  0.00    +0.000 OA
ATOM     19  H   UNL     1       8.474   4.012  12.718  0.00  0.00    +0.000 HD
ENDBRANCH   6  18
TORSDOF 2
ENDMDL
MODEL 9
REMARK VINA RESULT:      -6.9      2.023      2.485
REMARK  Name = 
REMARK  3 active torsions:
REMARK  status: ('A' for Active; 'I' for Inactive)
REMARK    1  A    between atoms: C_1  and  C_2
REMARK    2  A    between atoms: C_5  and  C_6
REMARK    3  A    between atoms: C_11  and  O_12
REMARK                            x       y       z     vdW  Elec       q    Type
REMARK                         _______ _______ _______ _____ _____    ______ ____
ROOT
ATOM      1  C   UNL     1       5.148   4.749  15.682  0.00  0.00    +0.000 A 
ATOM      2  C   UNL     1       4.704   3.785  16.510  0.00  0.00    +0.000 A 
ATOM      3  C   UNL     1       4.099   4.113  17.792  0.00  0.00    +0.000 A 
ATOM      4  C   UNL     1       3.627   3.137  18.674  0.00  0.00    +0.000 A 
ATOM      5  C   UNL     1       3.054   3.512  19.897  0.00  0.00    +0.000 A 
ATOM      6  C   UNL     1       2.956   4.862  20.229  0.00  0.00    +0.000 A 
ATOM      7  C   UNL     1       3.420   5.842  19.363  0.00  0.00    +0.000 A 
ATOM      8  C   UNL     1       3.988   5.450  18.155  0.00  0.00    +0.000 A 
ATOM      9  O   UNL     1       4.442   6.463  17.297  0.00  0.00    +0.000 OA
ATOM     10  C   UNL     1       4.986   6.187  16.044  0.00  0.00    +0.000 A 
ATOM     11  O   UNL     1       5.289   7.113  15.299  0.00  0.00    +0.000 OA
ENDROOT
BRANCH   1  16
ATOM     12  C   UNL     1       5.471   2.491  11.327  0.00  0.00    +0.000 C 
ATOM     13  C   UNL     1       5.960   3.358  12.429  0.00  0.00    +0.000 A 
ATOM     14  C   UNL     1       7.151   4.050  12.462  0.00  0.00    +0.000 A 
ATOM     15  S   UNL     1       7.307   4.876  13.945  0.00  0.00    +0.000 S 
ATOM     16  C   UNL     1       5.720   4.355  14.426  0.00  0.00    +0.000 A 
ATOM     17  N   UNL     1       5.168   3.519  13.556  0.00  0.00    +0.000 NA
ENDBRANCH   1  16
BRANCH   6  18
ATOM     18  O   UNL     1       2.402   5.269  21.406  0.00  0.00    +0.000 OA
ATOM     19  H   UNL     1       1.518   5.633  21.232  0.00  0.00    +0.000 HD
ENDBRANCH   6  18
TORSDOF 2
ENDMDL
