MODEL 1
REMARK VINA RESULT:      -6.7      0.000      0.000
REMARK  Name = 
REMARK  2 active torsions:
REMARK  status: ('A' for Active; 'I' for Inactive)
REMARK    1  A    between atoms: N_8  and  C_9
REMARK    2  A    between atoms: C_9  and  C_10
REMARK                            x       y       z     vdW  Elec       q    Type
REMARK                         _______ _______ _______ _____ _____    ______ ____
ROOT
ATOM      1  F   UNL     1       0.833   2.813  21.362  0.00  0.00    +0.000 F 
ATOM      2  C   UNL     1       1.697   2.972  20.316  0.00  0.00    +0.000 C 
ATOM      3  F   UNL     1       2.678   2.049  20.523  0.00  0.00    +0.000 F 
ATOM      4  C   UNL     1       0.944   2.643  19.029  0.00  0.00    +0.000 C 
ATOM      5  O   UNL     1       1.588   3.042  17.817  0.00  0.00    +0.000 OA
ATOM      6  C   UNL     1       1.552   4.451  17.607  0.00  0.00    +0.000 C 
ATOM      7  C   UNL     1       2.818   5.159  18.114  0.00  0.00    +0.000 C 
ATOM      8  N   UNL     1       3.347   4.831  19.454  0.00  0.00    +0.000 NA
ATOM      9  C   UNL     1       2.294   4.394  20.401  0.00  0.00    +0.000 C 
ENDROOT
BRANCH   8  10
ATOM     10  C   UNL     1       4.455   3.852  19.389  0.00  0.00    +0.000 C 
BRANCH  10  11
ATOM     11  C   UNL     1       5.748   4.466  18.927  0.00  0.00    +0.000 A 
ATOM     12  N   UNL     1       6.493   5.324  19.595  0.00  0.00    +0.000 NA
ATOM     13  C   UNL     1       7.607   5.528  18.829  0.00  0.00    +0.000 A 
ATOM     14  C   UNL     1       7.540   4.793  17.671  0.00  0.00    +0.000 A 
ATOM     15  N   UNL     1       6.344   4.134  17.736  0.00  0.00    +0.000 N 
ATOM     16  H   UNL     1       5.975   3.467  17.070  0.00  0.00    +0.000 HD
ENDBRANCH  10  11
ENDBRANCH   8  10
TORSDOF 2
ENDMDL
MODEL 2
REMARK VINA RESULT:      -6.5      1.973      2.715
REMARK  Name = 
REMARK  2 active torsions:
REMARK  status: ('A' for Active; 'I' for Inactive)
REMARK    1  A    between atoms: N_8  and  C_9
REMARK    2  A    between atoms: C_9  and  C_10
REMARK                            x       y       z     vdW  Elec       q    Type
REMARK                         _______ _______ _______ _____ _____    ______ ____
ROOT
ATOM      1  F   UNL     1       0.150   2.230  18.390  0.00  0.00    +0.000 F 
ATOM      2  C   UNL     1       1.233   2.887  18.903  0.00  0.00    +0.000 C 
ATOM      3  F   UNL     1       1.265   4.081  18.248  0.00  0.00    +0.000 F 
ATOM      4  C   UNL     1       0.980   3.121  20.391  0.00  0.00    +0.000 C 
ATOM      5  O   UNL     1       2.119   3.520  21.156  0.00  0.00    +0.000 OA
ATOM      6  C   UNL     1       3.044   2.458  21.369  0.00  0.00    +0.000 C 
ATOM      7  C   UNL     1       4.174   2.437  20.329  0.00  0.00    +0.000 C 
ATOM      8  N   UNL     1       3.846   2.580  18.895  0.00  0.00    +0.000 NA
ATOM      9  C   UNL     1       2.496   2.069  18.557  0.00  0.00    +0.000 C 
ENDROOT
BRANCH   8  10
ATOM     10  C   UNL     1       4.032   3.969  18.419  0.00  0.00    +0.000 C 
BRANCH  10  11
ATOM     11  C   UNL     1       5.328   4.163  17.681  0.00  0.00    +0.000 A 
ATOM     12  N   UNL     1       5.480   4.271  16.377  0.00  0.00    +0.000 NA
ATOM     13  C   UNL     1       6.808   4.527  16.175  0.00  0.00    +0.000 A 
ATOM     14  C   UNL     1       7.481   4.568  17.371  0.00  0.00    +0.000 A 
ATOM     15  N   UNL     1       6.531   4.318  18.323  0.00  0.00    +0.000 N 
ATOM     16  H   UNL     1       6.657   4.309  19.327  0.00  0.00    +0.000 HD
ENDBRANCH  10  11
ENDBRANCH   8  10
TORSDOF 2
ENDMDL
MODEL 3
REMARK VINA RESULT:      -6.4      4.117      5.617
REMARK  Name = 
REMARK  2 active torsions:
REMARK  status: ('A' for Active; 'I' for Inactive)
REMARK    1  A    between atoms: N_8  and  C_9
REMARK    2  A    between atoms: C_9  and  C_10
REMARK                            x       y       z     vdW  Elec       q    Type
REMARK                         _______ _______ _______ _____ _____    ______ ____
ROOT
ATOM      1  F   UNL     1       8.376   6.132  19.246  0.00  0.00    +0.000 F 
ATOM      2  C   UNL     1       7.446   5.561  18.423  0.00  0.00    +0.000 C 
ATOM      3  F   UNL     1       7.966   4.348  18.087  0.00  0.00    +0.000 F 
ATOM      4  C   UNL     1       6.162   5.366  19.228  0.00  0.00    +0.000 C 
ATOM      5  O   UNL     1       4.993   5.065  18.463  0.00  0.00    +0.000 OA
ATOM      6  C   UNL     1       4.498   6.189  17.740  0.00  0.00    +0.000 C 
ATOM      7  C   UNL     1       5.017   6.241  16.296  0.00  0.00    +0.000 C 
ATOM      8  N   UNL     1       6.455   6.026  16.031  0.00  0.00    +0.000 NA
ATOM      9  C   UNL     1       7.320   6.441  17.161  0.00  0.00    +0.000 C 
ENDROOT
BRANCH   8  10
ATOM     10  C   UNL     1       6.741   4.635  15.615  0.00  0.00    +0.000 C 
BRANCH  10  11
ATOM     11  C   UNL     1       6.821   4.478  14.122  0.00  0.00    +0.000 A 
ATOM     12  N   UNL     1       7.501   5.239  13.288  0.00  0.00    +0.000 NA
ATOM     13  C   UNL     1       7.356   4.667  12.055  0.00  0.00    +0.000 A 
ATOM     14  C   UNL     1       6.569   3.543  12.132  0.00  0.00    +0.000 A 
ATOM     15  N   UNL     1       6.220   3.443  13.450  0.00  0.00    +0.000 N 
ATOM     16  H   UNL     1       5.674   2.711  13.885  0.00  0.00    +0.000 HD
ENDBRANCH  10  11
ENDBRANCH   8  10
TORSDOF 2
ENDMDL
MODEL 4
REMARK VINA RESULT:      -6.3      1.608      2.155
REMARK  Name = 
REMARK  2 active torsions:
REMARK  status: ('A' for Active; 'I' for Inactive)
REMARK    1  A    between atoms: N_8  and  C_9
REMARK    2  A    between atoms: C_9  and  C_10
REMARK                            x       y       z     vdW  Elec       q    Type
REMARK                         _______ _______ _______ _____ _____    ______ ____
ROOT
ATOM      1  F   UNL     1       1.209   5.886  20.781  0.00  0.00    +0.000 F 
ATOM      2  C   UNL     1       1.898   4.793  20.337  0.00  0.00    +0.000 C 
ATOM      3  F   UNL     1       3.069   4.807  21.033  0.00  0.00    +0.000 F 
ATOM      4  C   UNL     1       1.094   3.548  20.705  0.00  0.00    +0.000 C 
ATOM      5  O   UNL     1       1.501   2.338  20.063  0.00  0.00    +0.000 OA
ATOM      6  C   UNL     1       1.144   2.294  18.684  0.00  0.00    +0.000 C 
ATOM      7  C   UNL     1       2.279   2.766  17.762  0.00  0.00    +0.000 C 
ATOM      8  N   UNL     1       3.011   4.008  18.086  0.00  0.00    +0.000 NA
ATOM      9  C   UNL     1       2.186   4.987  18.833  0.00  0.00    +0.000 C 
ENDROOT
BRANCH   8  10
ATOM     10  C   UNL     1       4.287   3.735  18.784  0.00  0.00    +0.000 C 
BRANCH  10  11
ATOM     11  C   UNL     1       5.491   4.039  17.935  0.00  0.00    +0.000 A 
ATOM     12  N   UNL     1       5.513   4.178  16.625  0.00  0.00    +0.000 NA
ATOM     13  C   UNL     1       6.793   4.538  16.309  0.00  0.00    +0.000 A 
ATOM     14  C   UNL     1       7.570   4.613  17.439  0.00  0.00    +0.000 A 
ATOM     15  N   UNL     1       6.733   4.276  18.467  0.00  0.00    +0.000 N 
ATOM     16  H   UNL     1       6.952   4.261  19.455  0.00  0.00    +0.000 HD
ENDBRANCH  10  11
ENDBRANCH   8  10
TORSDOF 2
ENDMDL
MODEL 5
REMARK VINA RESULT:      -6.2      3.411      5.226
REMARK  Name = 
REMARK  2 active torsions:
REMARK  status: ('A' for Active; 'I' for Inactive)
REMARK    1  A    between atoms: N_8  and  C_9
REMARK    2  A    between atoms: C_9  and  C_10
REMARK                            x       y       z     vdW  Elec       q    Type
REMARK                         _______ _______ _______ _____ _____    ______ ____
ROOT
ATOM      1  F   UNL     1       7.009   4.942  14.668  0.00  0.00    +0.000 F 
ATOM      2  C   UNL     1       6.429   4.547  15.841  0.00  0.00    +0.000 C 
ATOM      3  F   UNL     1       5.999   3.275  15.613  0.00  0.00    +0.000 F 
ATOM      4  C   UNL     1       7.509   4.540  16.921  0.00  0.00    +0.000 C 
ATOM      5  O   UNL     1       7.037   4.448  18.267  0.00  0.00    +0.000 OA
ATOM      6  C   UNL     1       6.431   5.653  18.726  0.00  0.00    +0.000 C 
ATOM      7  C   UNL     1       4.905   5.656  18.549  0.00  0.00    +0.000 C 
ATOM      8  N   UNL     1       4.321   5.221  17.264  0.00  0.00    +0.000 NA
ATOM      9  C   UNL     1       5.217   5.465  16.109  0.00  0.00    +0.000 C 
ENDROOT
BRANCH   8  10
ATOM     10  C   UNL     1       3.870   3.811  17.308  0.00  0.00    +0.000 C 
BRANCH  10  11
ATOM     11  C   UNL     1       3.788   3.270  18.709  0.00  0.00    +0.000 A 
ATOM     12  N   UNL     1       2.750   3.344  19.519  0.00  0.00    +0.000 NA
ATOM     13  C   UNL     1       3.099   2.640  20.638  0.00  0.00    +0.000 A 
ATOM     14  C   UNL     1       4.371   2.135  20.516  0.00  0.00    +0.000 A 
ATOM     15  N   UNL     1       4.805   2.558  19.291  0.00  0.00    +0.000 N 
ATOM     16  H   UNL     1       5.688   2.341  18.846  0.00  0.00    +0.000 HD
ENDBRANCH  10  11
ENDBRANCH   8  10
TORSDOF 2
ENDMDL
MODEL 6
REMARK VINA RESULT:      -6.2      1.658      1.924
REMARK  Name = 
REMARK  2 active torsions:
REMARK  status: ('A' for Active; 'I' for Inactive)
REMARK    1  A    between atoms: N_8  and  C_9
REMARK    2  A    between atoms: C_9  and  C_10
REMARK                            x       y       z     vdW  Elec       q    Type
REMARK                         _______ _______ _______ _____ _____    ______ ____
ROOT
ATOM      1  F   UNL     1       0.495   4.055  20.526  0.00  0.00    +0.000 F 
ATOM      2  C   UNL     1       1.772   3.920  20.059  0.00  0.00    +0.000 C 
ATOM      3  F   UNL     1       2.534   4.691  20.883  0.00  0.00    +0.000 F 
ATOM      4  C   UNL     1       2.175   2.454  20.205  0.00  0.00    +0.000 C 
ATOM      5  O   UNL     1       3.353   2.063  19.497  0.00  0.00    +0.000 OA
ATOM      6  C   UNL     1       3.153   1.981  18.089  0.00  0.00    +0.000 C 
ATOM      7  C   UNL     1       3.549   3.271  17.356  0.00  0.00    +0.000 C 
ATOM      8  N   UNL     1       3.100   4.575  17.884  0.00  0.00    +0.000 NA
ATOM      9  C   UNL     1       1.818   4.489  18.624  0.00  0.00    +0.000 C 
ENDROOT
BRANCH   8  10
ATOM     10  C   UNL     1       4.147   5.237  18.694  0.00  0.00    +0.000 C 
BRANCH  10  11
ATOM     11  C   UNL     1       5.500   5.202  18.037  0.00  0.00    +0.000 A 
ATOM     12  N   UNL     1       5.922   5.986  17.066  0.00  0.00    +0.000 NA
ATOM     13  C   UNL     1       7.232   5.653  16.859  0.00  0.00    +0.000 A 
ATOM     14  C   UNL     1       7.616   4.645  17.709  0.00  0.00    +0.000 A 
ATOM     15  N   UNL     1       6.499   4.354  18.443  0.00  0.00    +0.000 N 
ATOM     16  H   UNL     1       6.420   3.684  19.198  0.00  0.00    +0.000 HD
ENDBRANCH  10  11
ENDBRANCH   8  10
TORSDOF 2
ENDMDL
MODEL 7
REMARK VINA RESULT:      -6.2      1.029      1.030
REMARK  Name = 
REMARK  2 active torsions:
REMARK  status: ('A' for Active; 'I' for Inactive)
REMARK    1  A    between atoms: N_8  and  C_9
REMARK    2  A    between atoms: C_9  and  C_10
REMARK                            x       y       z     vdW  Elec       q    Type
REMARK                         _______ _______ _______ _____ _____    ______ ____
ROOT
ATOM      1  F   UNL     1       2.280   2.582  21.845  0.00  0.00    +0.000 F 
ATOM      2  C   UNL     1       2.731   2.811  20.576  0.00  0.00    +0.000 C 
ATOM      3  F   UNL     1       3.926   2.163  20.502  0.00  0.00    +0.000 F 
ATOM      4  C   UNL     1       1.739   2.177  19.602  0.00  0.00    +0.000 C 
ATOM      5  O   UNL     1       1.878   2.569  18.235  0.00  0.00    +0.000 OA
ATOM      6  C   UNL     1       1.432   3.900  17.992  0.00  0.00    +0.000 C 
ATOM      7  C   UNL     1       2.572   4.928  18.050  0.00  0.00    +0.000 C 
ATOM      8  N   UNL     1       3.536   4.883  19.168  0.00  0.00    +0.000 NA
ATOM      9  C   UNL     1       2.952   4.331  20.414  0.00  0.00    +0.000 C 
ENDROOT
BRANCH   8  10
ATOM     10  C   UNL     1       4.784   4.177  18.799  0.00  0.00    +0.000 C 
BRANCH  10  11
ATOM     11  C   UNL     1       5.981   5.088  18.769  0.00  0.00    +0.000 A 
ATOM     12  N   UNL     1       6.927   5.171  19.683  0.00  0.00    +0.000 NA
ATOM     13  C   UNL     1       7.846   6.055  19.190  0.00  0.00    +0.000 A 
ATOM     14  C   UNL     1       7.454   6.527  17.961  0.00  0.00    +0.000 A 
ATOM     15  N   UNL     1       6.256   5.918  17.712  0.00  0.00    +0.000 N 
ATOM     16  H   UNL     1       5.690   5.998  16.876  0.00  0.00    +0.000 HD
ENDBRANCH  10  11
ENDBRANCH   8  10
TORSDOF 2
ENDMDL
MODEL 8
REMARK VINA RESULT:      -6.2      3.312      5.635
REMARK  Name = 
REMARK  2 active torsions:
REMARK  status: ('A' for Active; 'I' for Inactive)
REMARK    1  A    between atoms: N_8  and  C_9
REMARK    2  A    between atoms: C_9  and  C_10
REMARK                            x       y       z     vdW  Elec       q    Type
REMARK                         _______ _______ _______ _____ _____    ______ ____
ROOT
ATOM      1  F   UNL     1       6.450   5.308  14.851  0.00  0.00    +0.000 F 
ATOM      2  C   UNL     1       6.208   4.703  16.053  0.00  0.00    +0.000 C 
ATOM      3  F   UNL     1       5.879   3.418  15.743  0.00  0.00    +0.000 F 
ATOM      4  C   UNL     1       7.504   4.724  16.860  0.00  0.00    +0.000 C 
ATOM      5  O   UNL     1       7.373   4.413  18.249  0.00  0.00    +0.000 OA
ATOM      6  C   UNL     1       6.762   5.460  18.997  0.00  0.00    +0.000 C 
ATOM      7  C   UNL     1       5.247   5.270  19.158  0.00  0.00    +0.000 C 
ATOM      8  N   UNL     1       4.430   4.907  17.982  0.00  0.00    +0.000 NA
ATOM      9  C   UNL     1       4.998   5.406  16.707  0.00  0.00    +0.000 C 
ENDROOT
BRANCH   8  10
ATOM     10  C   UNL     1       4.160   3.453  17.919  0.00  0.00    +0.000 C 
BRANCH  10  11
ATOM     11  C   UNL     1       2.831   3.081  18.517  0.00  0.00    +0.000 A 
ATOM     12  N   UNL     1       1.706   2.874  17.863  0.00  0.00    +0.000 NA
ATOM     13  C   UNL     1       0.796   2.473  18.801  0.00  0.00    +0.000 A 
ATOM     14  C   UNL     1       1.368   2.441  20.049  0.00  0.00    +0.000 A 
ATOM     15  N   UNL     1       2.660   2.848  19.858  0.00  0.00    +0.000 N 
ATOM     16  H   UNL     1       3.392   2.909  20.555  0.00  0.00    +0.000 HD
ENDBRANCH  10  11
ENDBRANCH   8  10
TORSDOF 2
ENDMDL
MODEL 9
REMARK VINA RESULT:      -6.1      4.038      5.412
REMARK  Name = 
REMARK  2 active torsions:
REMARK  status: ('A' for Active; 'I' for Inactive)
REMARK    1  A    between atoms: N_8  and  C_9
REMARK    2  A    between atoms: C_9  and  C_10
REMARK                            x       y       z     vdW  Elec       q    Type
REMARK                         _______ _______ _______ _____ _____    ______ ____
ROOT
ATOM      1  F   UNL     1       8.106   6.973  18.357  0.00  0.00    +0.000 F 
ATOM      2  C   UNL     1       7.303   5.905  18.071  0.00  0.00    +0.000 C 
ATOM      3  F   UNL     1       8.131   4.975  17.520  0.00  0.00    +0.000 F 
ATOM      4  C   UNL     1       6.736   5.376  19.387  0.00  0.00    +0.000 C 
ATOM      5  O   UNL     1       5.645   4.461  19.266  0.00  0.00    +0.000 OA
ATOM      6  C   UNL     1       4.431   5.094  18.872  0.00  0.00    +0.000 C 
ATOM      7  C   UNL     1       4.200   5.042  17.354  0.00  0.00    +0.000 C 
ATOM      8  N   UNL     1       5.305   5.389  16.438  0.00  0.00    +0.000 NA
ATOM      9  C   UNL     1       6.261   6.358  17.025  0.00  0.00    +0.000 C 
ENDROOT
BRANCH   8  10
ATOM     10  C   UNL     1       6.002   4.187  15.927  0.00  0.00    +0.000 C 
BRANCH  10  11
ATOM     11  C   UNL     1       6.530   4.369  14.531  0.00  0.00    +0.000 A 
ATOM     12  N   UNL     1       7.454   5.227  14.147  0.00  0.00    +0.000 NA
ATOM     13  C   UNL     1       7.676   4.970  12.823  0.00  0.00    +0.000 A 
ATOM     14  C   UNL     1       6.870   3.947  12.386  0.00  0.00    +0.000 A 
ATOM     15  N   UNL     1       6.133   3.584  13.479  0.00  0.00    +0.000 N 
ATOM     16  H   UNL     1       5.458   2.832  13.540  0.00  0.00    +0.000 HD
ENDBRANCH  10  11
ENDBRANCH   8  10
TORSDOF 2
ENDMDL
