MODEL 1
REMARK VINA RESULT:      -7.6      0.000      0.000
REMARK  Name = 
REMARK  9 active torsions:
REMARK  status: ('A' for Active; 'I' for Inactive)
REMARK    1  A    between atoms: C_1  and  C_2
REMARK    2  A    between atoms: C_2  and  C_3
REMARK    3  A    between atoms: C_2  and  C_4
REMARK    4  A    between atoms: C_2  and  C_11
REMARK    5  A    between atoms: C_8  and  O_9
REMARK    6  A    between atoms: C_11  and  C_12
REMARK    7  A    between atoms: C_11  and  C_13
REMARK    8  A    between atoms: C_11  and  C_14
REMARK    9  A    between atoms: C_18  and  O_19
REMARK                            x       y       z     vdW  Elec       q    Type
REMARK                         _______ _______ _______ _____ _____    ______ ____
ROOT
ATOM      1  C   UNL     1       3.492   1.465  18.271  0.00  0.00    +0.000 C 
ATOM      2  C   UNL     1       3.632   2.752  19.147  0.00  0.00    +0.000 C 
ATOM      3  C   UNL     1       4.335   2.257  20.444  0.00  0.00    +0.000 C 
ENDROOT
BRANCH   2   4
ATOM      4  C   UNL     1       4.611   3.758  18.461  0.00  0.00    +0.000 A 
ATOM      5  C   UNL     1       5.389   4.677  19.195  0.00  0.00    +0.000 A 
ATOM      6  C   UNL     1       6.274   5.569  18.572  0.00  0.00    +0.000 A 
ATOM      7  C   UNL     1       6.425   5.555  17.192  0.00  0.00    +0.000 A 
ATOM      8  C   UNL     1       5.646   4.684  16.447  0.00  0.00    +0.000 A 
ATOM      9  C   UNL     1       4.729   3.829  17.061  0.00  0.00    +0.000 A 
BRANCH   8  10
ATOM     10  O   UNL     1       5.753   4.630  15.088  0.00  0.00    +0.000 OA
ATOM     11  H   UNL     1       6.482   5.211  14.815  0.00  0.00    +0.000 HD
ENDBRANCH   8  10
ENDBRANCH   2   4
BRANCH   2  12
ATOM     12  C   UNL     1       2.147   3.355  19.472  0.00  0.00    +0.000 C 
ATOM     13  C   UNL     1       1.063   2.691  18.553  0.00  0.00    +0.000 C 
ATOM     14  C   UNL     1       1.611   2.977  20.890  0.00  0.00    +0.000 C 
BRANCH  12  15
ATOM     15  C   UNL     1       2.084   4.900  19.306  0.00  0.00    +0.000 A 
ATOM     16  C   UNL     1       2.197   5.509  18.041  0.00  0.00    +0.000 A 
ATOM     17  C   UNL     1       2.259   6.901  17.893  0.00  0.00    +0.000 A 
ATOM     18  C   UNL     1       2.191   7.726  19.007  0.00  0.00    +0.000 A 
ATOM     19  C   UNL     1       2.033   7.149  20.259  0.00  0.00    +0.000 A 
ATOM     20  C   UNL     1       1.959   5.764  20.412  0.00  0.00    +0.000 A 
BRANCH  19  21
ATOM     21  O   UNL     1       1.964   7.913  21.386  0.00  0.00    +0.000 OA
ATOM     22  H   UNL     1       1.732   8.818  21.126  0.00  0.00    +0.000 HD
ENDBRANCH  19  21
ENDBRANCH  12  15
ENDBRANCH   2  12
TORSDOF 5
ENDMDL
MODEL 2
REMARK VINA RESULT:      -7.5      0.261      4.676
REMARK  Name = 
REMARK  9 active torsions:
REMARK  status: ('A' for Active; 'I' for Inactive)
REMARK    1  A    between atoms: C_1  and  C_2
REMARK    2  A    between atoms: C_2  and  C_3
REMARK    3  A    between atoms: C_2  and  C_4
REMARK    4  A    between atoms: C_2  and  C_11
REMARK    5  A    between atoms: C_8  and  O_9
REMARK    6  A    between atoms: C_11  and  C_12
REMARK    7  A    between atoms: C_11  and  C_13
REMARK    8  A    between atoms: C_11  and  C_14
REMARK    9  A    between atoms: C_18  and  O_19
REMARK                            x       y       z     vdW  Elec       q    Type
REMARK                         _______ _______ _______ _____ _____    ______ ____
ROOT
ATOM      1  C   UNL     1       1.510   3.107  20.636  0.00  0.00    +0.000 C 
ATOM      2  C   UNL     1       2.141   3.589  19.289  0.00  0.00    +0.000 C 
ATOM      3  C   UNL     1       1.135   3.109  18.203  0.00  0.00    +0.000 C 
ENDROOT
BRANCH   2   4
ATOM      4  C   UNL     1       2.150   5.150  19.235  0.00  0.00    +0.000 A 
ATOM      5  C   UNL     1       2.300   5.865  18.029  0.00  0.00    +0.000 A 
ATOM      6  C   UNL     1       2.296   7.266  17.988  0.00  0.00    +0.000 A 
ATOM      7  C   UNL     1       2.118   8.000  19.153  0.00  0.00    +0.000 A 
ATOM      8  C   UNL     1       2.002   7.320  20.355  0.00  0.00    +0.000 A 
ATOM      9  C   UNL     1       2.055   5.926  20.404  0.00  0.00    +0.000 A 
BRANCH   8  10
ATOM     10  O   UNL     1       1.828   7.991  21.530  0.00  0.00    +0.000 OA
ATOM     11  H   UNL     1       1.951   8.940  21.362  0.00  0.00    +0.000 HD
ENDBRANCH   8  10
ENDBRANCH   2   4
BRANCH   2  12
ATOM     12  C   UNL     1       3.605   2.888  19.091  0.00  0.00    +0.000 C 
ATOM     13  C   UNL     1       4.196   2.432  20.470  0.00  0.00    +0.000 C 
ATOM     14  C   UNL     1       3.553   1.529  18.321  0.00  0.00    +0.000 C 
BRANCH  12  15
ATOM     15  C   UNL     1       4.623   3.828  18.383  0.00  0.00    +0.000 A 
ATOM     16  C   UNL     1       5.451   4.700  19.116  0.00  0.00    +0.000 A 
ATOM     17  C   UNL     1       6.285   5.632  18.485  0.00  0.00    +0.000 A 
ATOM     18  C   UNL     1       6.328   5.706  17.100  0.00  0.00    +0.000 A 
ATOM     19  C   UNL     1       5.555   4.825  16.357  0.00  0.00    +0.000 A 
ATOM     20  C   UNL     1       4.731   3.887  16.980  0.00  0.00    +0.000 A 
BRANCH  19  21
ATOM     21  O   UNL     1       5.558   4.857  14.994  0.00  0.00    +0.000 OA
ATOM     22  H   UNL     1       6.451   4.637  14.687  0.00  0.00    +0.000 HD
ENDBRANCH  19  21
ENDBRANCH  12  15
ENDBRANCH   2  12
TORSDOF 5
ENDMDL
MODEL 3
REMARK VINA RESULT:      -7.5      1.246      4.554
REMARK  Name = 
REMARK  9 active torsions:
REMARK  status: ('A' for Active; 'I' for Inactive)
REMARK    1  A    between atoms: C_1  and  C_2
REMARK    2  A    between atoms: C_2  and  C_3
REMARK    3  A    between atoms: C_2  and  C_4
REMARK    4  A    between atoms: C_2  and  C_11
REMARK    5  A    between atoms: C_8  and  O_9
REMARK    6  A    between atoms: C_11  and  C_12
REMARK    7  A    between atoms: C_11  and  C_13
REMARK    8  A    between atoms: C_11  and  C_14
REMARK    9  A    between atoms: C_18  and  O_19
REMARK                            x       y       z     vdW  Elec       q    Type
REMARK                         _______ _______ _______ _____ _____    ______ ____
ROOT
ATOM      1  C   UNL     1       1.028   3.234  19.900  0.00  0.00    +0.000 C 
ATOM      2  C   UNL     1       2.034   3.816  18.855  0.00  0.00    +0.000 C 
ATOM      3  C   UNL     1       1.369   3.521  17.479  0.00  0.00    +0.000 C 
ENDROOT
BRANCH   2   4
ATOM      4  C   UNL     1       2.106   5.370  18.995  0.00  0.00    +0.000 A 
ATOM      5  C   UNL     1       2.367   6.218  17.899  0.00  0.00    +0.000 A 
ATOM      6  C   UNL     1       2.420   7.613  18.032  0.00  0.00    +0.000 A 
ATOM      7  C   UNL     1       2.189   8.208  19.264  0.00  0.00    +0.000 A 
ATOM      8  C   UNL     1       1.964   7.394  20.363  0.00  0.00    +0.000 A 
ATOM      9  C   UNL     1       1.960   6.003  20.243  0.00  0.00    +0.000 A 
BRANCH   8  10
ATOM     10  O   UNL     1       1.734   7.925  21.599  0.00  0.00    +0.000 OA
ATOM     11  H   UNL     1       0.863   7.623  21.905  0.00  0.00    +0.000 HD
ENDBRANCH   8  10
ENDBRANCH   2   4
BRANCH   2  12
ATOM     12  C   UNL     1       3.471   3.048  18.995  0.00  0.00    +0.000 C 
ATOM     13  C   UNL     1       3.796   2.746  20.499  0.00  0.00    +0.000 C 
ATOM     14  C   UNL     1       3.476   1.607  18.390  0.00  0.00    +0.000 C 
BRANCH  12  15
ATOM     15  C   UNL     1       4.642   3.860  18.370  0.00  0.00    +0.000 A 
ATOM     16  C   UNL     1       4.887   3.847  16.984  0.00  0.00    +0.000 A 
ATOM     17  C   UNL     1       6.006   4.478  16.424  0.00  0.00    +0.000 A 
ATOM     18  C   UNL     1       6.904   5.156  17.237  0.00  0.00    +0.000 A 
ATOM     19  C   UNL     1       6.657   5.221  18.600  0.00  0.00    +0.000 A 
ATOM     20  C   UNL     1       5.538   4.605  19.162  0.00  0.00    +0.000 A 
BRANCH  19  21
ATOM     21  O   UNL     1       7.508   5.872  19.444  0.00  0.00    +0.000 OA
ATOM     22  H   UNL     1       7.230   6.800  19.499  0.00  0.00    +0.000 HD
ENDBRANCH  19  21
ENDBRANCH  12  15
ENDBRANCH   2  12
TORSDOF 5
ENDMDL
MODEL 4
REMARK VINA RESULT:      -7.5      1.142      1.571
REMARK  Name = 
REMARK  9 active torsions:
REMARK  status: ('A' for Active; 'I' for Inactive)
REMARK    1  A    between atoms: C_1  and  C_2
REMARK    2  A    between atoms: C_2  and  C_3
REMARK    3  A    between atoms: C_2  and  C_4
REMARK    4  A    between atoms: C_2  and  C_11
REMARK    5  A    between atoms: C_8  and  O_9
REMARK    6  A    between atoms: C_11  and  C_12
REMARK    7  A    between atoms: C_11  and  C_13
REMARK    8  A    between atoms: C_11  and  C_14
REMARK    9  A    between atoms: C_18  and  O_19
REMARK                            x       y       z     vdW  Elec       q    Type
REMARK                         _______ _______ _______ _____ _____    ______ ____
ROOT
ATOM      1  C   UNL     1       3.515   1.746  18.204  0.00  0.00    +0.000 C 
ATOM      2  C   UNL     1       3.534   3.123  18.942  0.00  0.00    +0.000 C 
ATOM      3  C   UNL     1       3.815   2.757  20.429  0.00  0.00    +0.000 C 
ENDROOT
BRANCH   2   4
ATOM      4  C   UNL     1       4.748   3.974  18.451  0.00  0.00    +0.000 A 
ATOM      5  C   UNL     1       5.508   4.783  19.321  0.00  0.00    +0.000 A 
ATOM      6  C   UNL     1       6.603   5.535  18.874  0.00  0.00    +0.000 A 
ATOM      7  C   UNL     1       6.989   5.484  17.542  0.00  0.00    +0.000 A 
ATOM      8  C   UNL     1       6.238   4.723  16.661  0.00  0.00    +0.000 A 
ATOM      9  C   UNL     1       5.118   4.012  17.094  0.00  0.00    +0.000 A 
BRANCH   8  10
ATOM     10  O   UNL     1       6.571   4.640  15.340  0.00  0.00    +0.000 OA
ATOM     11  H   UNL     1       7.060   5.443  15.096  0.00  0.00    +0.000 HD
ENDBRANCH   8  10
ENDBRANCH   2   4
BRANCH   2  12
ATOM     12  C   UNL     1       2.078   3.850  18.777  0.00  0.00    +0.000 C 
ATOM     13  C   UNL     1       1.527   3.669  17.320  0.00  0.00    +0.000 C 
ATOM     14  C   UNL     1       0.941   3.177  19.614  0.00  0.00    +0.000 C 
BRANCH  12  15
ATOM     15  C   UNL     1       2.127   5.365  19.123  0.00  0.00    +0.000 A 
ATOM     16  C   UNL     1       1.857   5.831  20.424  0.00  0.00    +0.000 A 
ATOM     17  C   UNL     1       1.783   7.199  20.720  0.00  0.00    +0.000 A 
ATOM     18  C   UNL     1       1.996   8.141  19.724  0.00  0.00    +0.000 A 
ATOM     19  C   UNL     1       2.309   7.705  18.445  0.00  0.00    +0.000 A 
ATOM     20  C   UNL     1       2.396   6.344  18.147  0.00  0.00    +0.000 A 
BRANCH  19  21
ATOM     21  O   UNL     1       2.525   8.588  17.428  0.00  0.00    +0.000 OA
ATOM     22  H   UNL     1       3.210   8.221  16.847  0.00  0.00    +0.000 HD
ENDBRANCH  19  21
ENDBRANCH  12  15
ENDBRANCH   2  12
TORSDOF 5
ENDMDL
MODEL 5
REMARK VINA RESULT:      -7.5      2.323      4.165
REMARK  Name = 
REMARK  9 active torsions:
REMARK  status: ('A' for Active; 'I' for Inactive)
REMARK    1  A    between atoms: C_1  and  C_2
REMARK    2  A    between atoms: C_2  and  C_3
REMARK    3  A    between atoms: C_2  and  C_4
REMARK    4  A    between atoms: C_2  and  C_11
REMARK    5  A    between atoms: C_8  and  O_9
REMARK    6  A    between atoms: C_11  and  C_12
REMARK    7  A    between atoms: C_11  and  C_13
REMARK    8  A    between atoms: C_11  and  C_14
REMARK    9  A    between atoms: C_18  and  O_19
REMARK                            x       y       z     vdW  Elec       q    Type
REMARK                         _______ _______ _______ _____ _____    ______ ____
ROOT
ATOM      1  C   UNL     1       2.888   6.411  19.834  0.00  0.00    +0.000 C 
ATOM      2  C   UNL     1       3.382   5.980  18.415  0.00  0.00    +0.000 C 
ATOM      3  C   UNL     1       2.783   7.053  17.459  0.00  0.00    +0.000 C 
ENDROOT
BRANCH   2   4
ATOM      4  C   UNL     1       4.935   6.116  18.328  0.00  0.00    +0.000 A 
ATOM      5  C   UNL     1       5.582   6.724  17.232  0.00  0.00    +0.000 A 
ATOM      6  C   UNL     1       6.976   6.852  17.167  0.00  0.00    +0.000 A 
ATOM      7  C   UNL     1       7.770   6.394  18.210  0.00  0.00    +0.000 A 
ATOM      8  C   UNL     1       7.160   5.763  19.282  0.00  0.00    +0.000 A 
ATOM      9  C   UNL     1       5.776   5.590  19.326  0.00  0.00    +0.000 A 
BRANCH   8  10
ATOM     10  O   UNL     1       7.893   5.291  20.332  0.00  0.00    +0.000 OA
ATOM     11  H   UNL     1       8.798   5.634  20.252  0.00  0.00    +0.000 HD
ENDBRANCH   8  10
ENDBRANCH   2   4
BRANCH   2  12
ATOM     12  C   UNL     1       2.804   4.490  18.066  0.00  0.00    +0.000 C 
ATOM     13  C   UNL     1       1.379   4.583  17.418  0.00  0.00    +0.000 C 
ATOM     14  C   UNL     1       3.599   3.754  16.940  0.00  0.00    +0.000 C 
BRANCH  12  15
ATOM     15  C   UNL     1       2.739   3.570  19.318  0.00  0.00    +0.000 A 
ATOM     16  C   UNL     1       1.554   3.429  20.066  0.00  0.00    +0.000 A 
ATOM     17  C   UNL     1       1.515   2.697  21.260  0.00  0.00    +0.000 A 
ATOM     18  C   UNL     1       2.659   2.069  21.732  0.00  0.00    +0.000 A 
ATOM     19  C   UNL     1       3.827   2.156  20.988  0.00  0.00    +0.000 A 
ATOM     20  C   UNL     1       3.869   2.874  19.791  0.00  0.00    +0.000 A 
BRANCH  19  21
ATOM     21  O   UNL     1       4.980   1.561  21.406  0.00  0.00    +0.000 OA
ATOM     22  H   UNL     1       5.116   1.786  22.341  0.00  0.00    +0.000 HD
ENDBRANCH  19  21
ENDBRANCH  12  15
ENDBRANCH   2  12
TORSDOF 5
ENDMDL
MODEL 6
REMARK VINA RESULT:      -7.5      1.630      4.307
REMARK  Name = 
REMARK  9 active torsions:
REMARK  status: ('A' for Active; 'I' for Inactive)
REMARK    1  A    between atoms: C_1  and  C_2
REMARK    2  A    between atoms: C_2  and  C_3
REMARK    3  A    between atoms: C_2  and  C_4
REMARK    4  A    between atoms: C_2  and  C_11
REMARK    5  A    between atoms: C_8  and  O_9
REMARK    6  A    between atoms: C_11  and  C_12
REMARK    7  A    between atoms: C_11  and  C_13
REMARK    8  A    between atoms: C_11  and  C_14
REMARK    9  A    between atoms: C_18  and  O_19
REMARK                            x       y       z     vdW  Elec       q    Type
REMARK                         _______ _______ _______ _____ _____    ______ ____
ROOT
ATOM      1  C   UNL     1       1.004   2.887  19.282  0.00  0.00    +0.000 C 
ATOM      2  C   UNL     1       2.144   3.723  18.616  0.00  0.00    +0.000 C 
ATOM      3  C   UNL     1       1.774   3.736  17.104  0.00  0.00    +0.000 C 
ENDROOT
BRANCH   2   4
ATOM      4  C   UNL     1       2.075   5.203  19.109  0.00  0.00    +0.000 A 
ATOM      5  C   UNL     1       1.700   5.547  20.424  0.00  0.00    +0.000 A 
ATOM      6  C   UNL     1       1.652   6.878  20.861  0.00  0.00    +0.000 A 
ATOM      7  C   UNL     1       2.001   7.911  20.001  0.00  0.00    +0.000 A 
ATOM      8  C   UNL     1       2.341   7.600  18.694  0.00  0.00    +0.000 A 
ATOM      9  C   UNL     1       2.342   6.279  18.242  0.00  0.00    +0.000 A 
BRANCH   8  10
ATOM     10  O   UNL     1       2.690   8.575  17.805  0.00  0.00    +0.000 OA
ATOM     11  H   UNL     1       1.995   9.255  17.809  0.00  0.00    +0.000 HD
ENDBRANCH   8  10
ENDBRANCH   2   4
BRANCH   2  12
ATOM     12  C   UNL     1       3.581   2.983  18.867  0.00  0.00    +0.000 C 
ATOM     13  C   UNL     1       3.730   2.553  20.368  0.00  0.00    +0.000 C 
ATOM     14  C   UNL     1       3.713   1.604  18.144  0.00  0.00    +0.000 C 
BRANCH  12  15
ATOM     15  C   UNL     1       4.788   3.879  18.467  0.00  0.00    +0.000 A 
ATOM     16  C   UNL     1       5.144   4.072  17.119  0.00  0.00    +0.000 A 
ATOM     17  C   UNL     1       6.298   4.780  16.753  0.00  0.00    +0.000 A 
ATOM     18  C   UNL     1       7.118   5.329  17.727  0.00  0.00    +0.000 A 
ATOM     19  C   UNL     1       6.761   5.191  19.061  0.00  0.00    +0.000 A 
ATOM     20  C   UNL     1       5.608   4.497  19.431  0.00  0.00    +0.000 A 
BRANCH  19  21
ATOM     21  O   UNL     1       7.533   5.709  20.058  0.00  0.00    +0.000 OA
ATOM     22  H   UNL     1       8.418   5.315  19.993  0.00  0.00    +0.000 HD
ENDBRANCH  19  21
ENDBRANCH  12  15
ENDBRANCH   2  12
TORSDOF 5
ENDMDL
MODEL 7
REMARK VINA RESULT:      -7.4      1.004      1.457
REMARK  Name = 
REMARK  9 active torsions:
REMARK  status: ('A' for Active; 'I' for Inactive)
REMARK    1  A    between atoms: C_1  and  C_2
REMARK    2  A    between atoms: C_2  and  C_3
REMARK    3  A    between atoms: C_2  and  C_4
REMARK    4  A    between atoms: C_2  and  C_11
REMARK    5  A    between atoms: C_8  and  O_9
REMARK    6  A    between atoms: C_11  and  C_12
REMARK    7  A    between atoms: C_11  and  C_13
REMARK    8  A    between atoms: C_11  and  C_14
REMARK    9  A    between atoms: C_18  and  O_19
REMARK                            x       y       z     vdW  Elec       q    Type
REMARK                         _______ _______ _______ _____ _____    ______ ____
ROOT
ATOM      1  C   UNL     1       3.431   1.529  18.234  0.00  0.00    +0.000 C 
ATOM      2  C   UNL     1       3.576   2.905  18.961  0.00  0.00    +0.000 C 
ATOM      3  C   UNL     1       4.344   2.565  20.272  0.00  0.00    +0.000 C 
ENDROOT
BRANCH   2   4
ATOM      4  C   UNL     1       4.501   3.851  18.131  0.00  0.00    +0.000 A 
ATOM      5  C   UNL     1       4.403   3.967  16.729  0.00  0.00    +0.000 A 
ATOM      6  C   UNL     1       5.230   4.827  15.993  0.00  0.00    +0.000 A 
ATOM      7  C   UNL     1       6.168   5.619  16.641  0.00  0.00    +0.000 A 
ATOM      8  C   UNL     1       6.306   5.499  18.014  0.00  0.00    +0.000 A 
ATOM      9  C   UNL     1       5.517   4.607  18.743  0.00  0.00    +0.000 A 
BRANCH   8  10
ATOM     10  O   UNL     1       7.214   6.251  18.701  0.00  0.00    +0.000 OA
ATOM     11  H   UNL     1       7.600   6.899  18.088  0.00  0.00    +0.000 HD
ENDBRANCH   8  10
ENDBRANCH   2   4
BRANCH   2  12
ATOM     12  C   UNL     1       2.091   3.509  19.285  0.00  0.00    +0.000 C 
ATOM     13  C   UNL     1       1.023   2.921  18.299  0.00  0.00    +0.000 C 
ATOM     14  C   UNL     1       1.512   3.052  20.663  0.00  0.00    +0.000 C 
BRANCH  12  15
ATOM     15  C   UNL     1       2.054   5.062  19.215  0.00  0.00    +0.000 A 
ATOM     16  C   UNL     1       2.198   5.747  17.993  0.00  0.00    +0.000 A 
ATOM     17  C   UNL     1       2.284   7.144  17.932  0.00  0.00    +0.000 A 
ATOM     18  C   UNL     1       2.208   7.899  19.094  0.00  0.00    +0.000 A 
ATOM     19  C   UNL     1       2.019   7.248  20.305  0.00  0.00    +0.000 A 
ATOM     20  C   UNL     1       1.922   5.858  20.370  0.00  0.00    +0.000 A 
BRANCH  19  21
ATOM     21  O   UNL     1       1.940   7.942  21.476  0.00  0.00    +0.000 OA
ATOM     22  H   UNL     1       1.654   7.329  22.173  0.00  0.00    +0.000 HD
ENDBRANCH  19  21
ENDBRANCH  12  15
ENDBRANCH   2  12
TORSDOF 5
ENDMDL
MODEL 8
REMARK VINA RESULT:      -7.4      1.519      2.142
REMARK  Name = 
REMARK  9 active torsions:
REMARK  status: ('A' for Active; 'I' for Inactive)
REMARK    1  A    between atoms: C_1  and  C_2
REMARK    2  A    between atoms: C_2  and  C_3
REMARK    3  A    between atoms: C_2  and  C_4
REMARK    4  A    between atoms: C_2  and  C_11
REMARK    5  A    between atoms: C_8  and  O_9
REMARK    6  A    between atoms: C_11  and  C_12
REMARK    7  A    between atoms: C_11  and  C_13
REMARK    8  A    between atoms: C_11  and  C_14
REMARK    9  A    between atoms: C_18  and  O_19
REMARK                            x       y       z     vdW  Elec       q    Type
REMARK                         _______ _______ _______ _____ _____    ______ ____
ROOT
ATOM      1  C   UNL     1       3.487   1.718  18.155  0.00  0.00    +0.000 C 
ATOM      2  C   UNL     1       3.566   3.144  18.790  0.00  0.00    +0.000 C 
ATOM      3  C   UNL     1       4.026   2.885  20.255  0.00  0.00    +0.000 C 
ENDROOT
BRANCH   2   4
ATOM      4  C   UNL     1       4.698   3.971  18.103  0.00  0.00    +0.000 A 
ATOM      5  C   UNL     1       4.824   4.065  16.702  0.00  0.00    +0.000 A 
ATOM      6  C   UNL     1       5.837   4.819  16.093  0.00  0.00    +0.000 A 
ATOM      7  C   UNL     1       6.747   5.524  16.869  0.00  0.00    +0.000 A 
ATOM      8  C   UNL     1       6.665   5.420  18.248  0.00  0.00    +0.000 A 
ATOM      9  C   UNL     1       5.687   4.631  18.856  0.00  0.00    +0.000 A 
BRANCH   8  10
ATOM     10  O   UNL     1       7.535   6.089  19.059  0.00  0.00    +0.000 OA
ATOM     11  H   UNL     1       7.877   6.858  18.572  0.00  0.00    +0.000 HD
ENDBRANCH   8  10
ENDBRANCH   2   4
BRANCH   2  12
ATOM     12  C   UNL     1       2.087   3.842  18.750  0.00  0.00    +0.000 C 
ATOM     13  C   UNL     1       1.427   3.665  17.338  0.00  0.00    +0.000 C 
ATOM     14  C   UNL     1       1.034   3.137  19.665  0.00  0.00    +0.000 C 
BRANCH  12  15
ATOM     15  C   UNL     1       2.134   5.354  19.109  0.00  0.00    +0.000 A 
ATOM     16  C   UNL     1       1.880   5.807  20.418  0.00  0.00    +0.000 A 
ATOM     17  C   UNL     1       1.803   7.172  20.727  0.00  0.00    +0.000 A 
ATOM     18  C   UNL     1       1.997   8.124  19.737  0.00  0.00    +0.000 A 
ATOM     19  C   UNL     1       2.295   7.701  18.449  0.00  0.00    +0.000 A 
ATOM     20  C   UNL     1       2.384   6.343  18.138  0.00  0.00    +0.000 A 
BRANCH  19  21
ATOM     21  O   UNL     1       2.492   8.594  17.438  0.00  0.00    +0.000 OA
ATOM     22  H   UNL     1       1.807   9.278  17.499  0.00  0.00    +0.000 HD
ENDBRANCH  19  21
ENDBRANCH  12  15
ENDBRANCH   2  12
TORSDOF 5
ENDMDL
MODEL 9
REMARK VINA RESULT:      -7.3      2.292      4.866
REMARK  Name = 
REMARK  9 active torsions:
REMARK  status: ('A' for Active; 'I' for Inactive)
REMARK    1  A    between atoms: C_1  and  C_2
REMARK    2  A    between atoms: C_2  and  C_3
REMARK    3  A    between atoms: C_2  and  C_4
REMARK    4  A    between atoms: C_2  and  C_11
REMARK    5  A    between atoms: C_8  and  O_9
REMARK    6  A    between atoms: C_11  and  C_12
REMARK    7  A    between atoms: C_11  and  C_13
REMARK    8  A    between atoms: C_11  and  C_14
REMARK    9  A    between atoms: C_18  and  O_19
REMARK                            x       y       z     vdW  Elec       q    Type
REMARK                         _______ _______ _______ _____ _____    ______ ____
ROOT
ATOM      1  C   UNL     1       4.470   6.252  16.857  0.00  0.00    +0.000 C 
ATOM      2  C   UNL     1       3.731   5.862  18.177  0.00  0.00    +0.000 C 
ATOM      3  C   UNL     1       4.873   5.702  19.222  0.00  0.00    +0.000 C 
ENDROOT
BRANCH   2   4
ATOM      4  C   UNL     1       2.841   7.050  18.661  0.00  0.00    +0.000 A 
ATOM      5  C   UNL     1       2.244   7.079  19.938  0.00  0.00    +0.000 A 
ATOM      6  C   UNL     1       1.456   8.155  20.369  0.00  0.00    +0.000 A 
ATOM      7  C   UNL     1       1.257   9.252  19.541  0.00  0.00    +0.000 A 
ATOM      8  C   UNL     1       1.806   9.232  18.269  0.00  0.00    +0.000 A 
ATOM      9  C   UNL     1       2.550   8.140  17.820  0.00  0.00    +0.000 A 
BRANCH   8  10
ATOM     10  O   UNL     1       1.640  10.282  17.413  0.00  0.00    +0.000 OA
ATOM     11  H   UNL     1       2.485  10.756  17.342  0.00  0.00    +0.000 HD
ENDBRANCH   8  10
ENDBRANCH   2   4
BRANCH   2  12
ATOM     12  C   UNL     1       2.930   4.452  17.957  0.00  0.00    +0.000 C 
ATOM     13  C   UNL     1       1.482   4.714  17.413  0.00  0.00    +0.000 C 
ATOM     14  C   UNL     1       3.523   3.563  16.816  0.00  0.00    +0.000 C 
BRANCH  12  15
ATOM     15  C   UNL     1       2.844   3.608  19.260  0.00  0.00    +0.000 A 
ATOM     16  C   UNL     1       1.686   3.607  20.060  0.00  0.00    +0.000 A 
ATOM     17  C   UNL     1       1.640   2.944  21.294  0.00  0.00    +0.000 A 
ATOM     18  C   UNL     1       2.747   2.247  21.754  0.00  0.00    +0.000 A 
ATOM     19  C   UNL     1       3.884   2.196  20.960  0.00  0.00    +0.000 A 
ATOM     20  C   UNL     1       3.932   2.844  19.725  0.00  0.00    +0.000 A 
BRANCH  19  21
ATOM     21  O   UNL     1       5.001   1.527  21.366  0.00  0.00    +0.000 OA
ATOM     22  H   UNL     1       4.841   0.576  21.260  0.00  0.00    +0.000 HD
ENDBRANCH  19  21
ENDBRANCH  12  15
ENDBRANCH   2  12
TORSDOF 5
ENDMDL
