MODEL 1
REMARK VINA RESULT:      -8.0      0.000      0.000
REMARK  Name = 
REMARK  8 active torsions:
REMARK  status: ('A' for Active; 'I' for Inactive)
REMARK    1  A    between atoms: C_1  and  C_2
REMARK    2  A    between atoms: C_2  and  C_3
REMARK    3  A    between atoms: C_3  and  C_4
REMARK    4  A    between atoms: C_4  and  C_5
REMARK    5  A    between atoms: C_5  and  N_6
REMARK    6  A    between atoms: N_6  and  C_7
REMARK    7  A    between atoms: N_10  and  C_11
REMARK    8  A    between atoms: C_16  and  C_17
REMARK                            x       y       z     vdW  Elec       q    Type
REMARK                         _______ _______ _______ _____ _____    ______ ____
ROOT
ATOM      1  C   UNL     1       5.494   4.552  15.700  0.00  0.00    +0.000 A 
ATOM      2  N   UNL     1       4.653   3.608  16.204  0.00  0.00    +0.000 NA
ATOM      3  C   UNL     1       4.457   3.454  17.531  0.00  0.00    +0.000 A 
ATOM      4  N   UNL     1       3.551   2.472  18.005  0.00  0.00    +0.000 N 
ATOM      5  N   UNL     1       5.153   4.221  18.408  0.00  0.00    +0.000 NA
ATOM      6  C   UNL     1       6.044   5.147  17.983  0.00  0.00    +0.000 A 
ATOM      7  C   UNL     1       6.775   5.874  18.928  0.00  0.00    +0.000 A 
ATOM      8  C   UNL     1       7.700   6.830  18.512  0.00  0.00    +0.000 A 
ATOM      9  C   UNL     1       7.889   7.072  17.150  0.00  0.00    +0.000 A 
ATOM     10  C   UNL     1       7.168   6.348  16.194  0.00  0.00    +0.000 A 
ATOM     11  C   UNL     1       6.238   5.363  16.598  0.00  0.00    +0.000 A 
ATOM     12  H   UNL     1       3.383   1.636  17.427  0.00  0.00    +0.000 HD
ENDROOT
BRANCH   4  13
ATOM     13  C   UNL     1       2.816   2.657  19.214  0.00  0.00    +0.000 A 
ATOM     14  C   UNL     1       3.338   2.161  20.427  0.00  0.00    +0.000 A 
ATOM     15  C   UNL     1       2.664   2.358  21.627  0.00  0.00    +0.000 A 
ATOM     16  C   UNL     1       1.452   3.041  21.637  0.00  0.00    +0.000 A 
ATOM     17  C   UNL     1       0.915   3.539  20.448  0.00  0.00    +0.000 A 
ATOM     18  C   UNL     1       1.591   3.365  19.226  0.00  0.00    +0.000 A 
ATOM     19  C   UNL     1       0.984   3.901  17.959  0.00  0.00    +0.000 C 
ENDBRANCH   4  13
BRANCH   1  20
ATOM     20  N   UNL     1       5.615   4.652  14.287  0.00  0.00    +0.000 N 
ATOM     21  H   UNL     1       5.106   5.377  13.767  0.00  0.00    +0.000 HD
BRANCH  20  22
ATOM     22  C   UNL     1       6.525   3.774  13.573  0.00  0.00    +0.000 C 
BRANCH  22  23
ATOM     23  C   UNL     1       5.941   3.320  12.229  0.00  0.00    +0.000 C 
BRANCH  23  24
ATOM     24  C   UNL     1       4.472   3.755  12.032  0.00  0.00    +0.000 C 
BRANCH  24  26
ATOM     25  C   UNL     1       3.139   4.007   9.901  0.00  0.00    +0.000 C 
ATOM     26  C   UNL     1       3.768   3.020  10.877  0.00  0.00    +0.000 C 
ENDBRANCH  24  26
ENDBRANCH  23  24
ENDBRANCH  22  23
ENDBRANCH  20  22
ENDBRANCH   1  20
TORSDOF 6
ENDMDL
MODEL 2
REMARK VINA RESULT:      -8.0      0.325      1.428
REMARK  Name = 
REMARK  8 active torsions:
REMARK  status: ('A' for Active; 'I' for Inactive)
REMARK    1  A    between atoms: C_1  and  C_2
REMARK    2  A    between atoms: C_2  and  C_3
REMARK    3  A    between atoms: C_3  and  C_4
REMARK    4  A    between atoms: C_4  and  C_5
REMARK    5  A    between atoms: C_5  and  N_6
REMARK    6  A    between atoms: N_6  and  C_7
REMARK    7  A    between atoms: N_10  and  C_11
REMARK    8  A    between atoms: C_16  and  C_17
REMARK                            x       y       z     vdW  Elec       q    Type
REMARK                         _______ _______ _______ _____ _____    ______ ____
ROOT
ATOM      1  C   UNL     1       5.409   4.600  15.684  0.00  0.00    +0.000 A 
ATOM      2  N   UNL     1       4.565   3.657  16.186  0.00  0.00    +0.000 NA
ATOM      3  C   UNL     1       4.384   3.488  17.513  0.00  0.00    +0.000 A 
ATOM      4  N   UNL     1       3.474   2.509  17.986  0.00  0.00    +0.000 N 
ATOM      5  N   UNL     1       5.098   4.237  18.391  0.00  0.00    +0.000 NA
ATOM      6  C   UNL     1       5.993   5.160  17.968  0.00  0.00    +0.000 A 
ATOM      7  C   UNL     1       6.742   5.867  18.912  0.00  0.00    +0.000 A 
ATOM      8  C   UNL     1       7.672   6.820  18.497  0.00  0.00    +0.000 A 
ATOM      9  C   UNL     1       7.847   7.078  17.137  0.00  0.00    +0.000 A 
ATOM     10  C   UNL     1       7.107   6.373  16.180  0.00  0.00    +0.000 A 
ATOM     11  C   UNL     1       6.172   5.392  16.583  0.00  0.00    +0.000 A 
ATOM     12  H   UNL     1       3.291   1.682  17.399  0.00  0.00    +0.000 HD
ENDROOT
BRANCH   4  13
ATOM     13  C   UNL     1       2.756   2.686  19.206  0.00  0.00    +0.000 A 
ATOM     14  C   UNL     1       1.451   3.224  19.173  0.00  0.00    +0.000 A 
ATOM     15  C   UNL     1       0.712   3.375  20.340  0.00  0.00    +0.000 A 
ATOM     16  C   UNL     1       1.263   3.004  21.562  0.00  0.00    +0.000 A 
ATOM     17  C   UNL     1       2.553   2.471  21.620  0.00  0.00    +0.000 A 
ATOM     18  C   UNL     1       3.310   2.295  20.447  0.00  0.00    +0.000 A 
ATOM     19  C   UNL     1       4.701   1.730  20.539  0.00  0.00    +0.000 C 
ENDBRANCH   4  13
BRANCH   1  20
ATOM     20  N   UNL     1       5.513   4.717  14.271  0.00  0.00    +0.000 N 
ATOM     21  H   UNL     1       4.959   5.414  13.760  0.00  0.00    +0.000 HD
BRANCH  20  22
ATOM     22  C   UNL     1       6.468   3.900  13.544  0.00  0.00    +0.000 C 
BRANCH  22  23
ATOM     23  C   UNL     1       5.822   3.202  12.341  0.00  0.00    +0.000 C 
BRANCH  23  24
ATOM     24  C   UNL     1       4.470   3.829  11.936  0.00  0.00    +0.000 C 
BRANCH  24  26
ATOM     25  C   UNL     1       3.075   4.041   9.840  0.00  0.00    +0.000 C 
ATOM     26  C   UNL     1       3.764   3.074  10.795  0.00  0.00    +0.000 C 
ENDBRANCH  24  26
ENDBRANCH  23  24
ENDBRANCH  22  23
ENDBRANCH  20  22
ENDBRANCH   1  20
TORSDOF 6
ENDMDL
MODEL 3
REMARK VINA RESULT:      -7.9      3.283      5.839
REMARK  Name = 
REMARK  8 active torsions:
REMARK  status: ('A' for Active; 'I' for Inactive)
REMARK    1  A    between atoms: C_1  and  C_2
REMARK    2  A    between atoms: C_2  and  C_3
REMARK    3  A    between atoms: C_3  and  C_4
REMARK    4  A    between atoms: C_4  and  C_5
REMARK    5  A    between atoms: C_5  and  N_6
REMARK    6  A    between atoms: N_6  and  C_7
REMARK    7  A    between atoms: N_10  and  C_11
REMARK    8  A    between atoms: C_16  and  C_17
REMARK                            x       y       z     vdW  Elec       q    Type
REMARK                         _______ _______ _______ _____ _____    ______ ____
ROOT
ATOM      1  C   UNL     1       4.435   4.011  18.571  0.00  0.00    +0.000 A 
ATOM      2  N   UNL     1       3.805   4.878  19.410  0.00  0.00    +0.000 NA
ATOM      3  C   UNL     1       3.546   6.157  19.063  0.00  0.00    +0.000 A 
ATOM      4  N   UNL     1       2.865   7.013  19.963  0.00  0.00    +0.000 N 
ATOM      5  N   UNL     1       3.968   6.625  17.861  0.00  0.00    +0.000 NA
ATOM      6  C   UNL     1       4.645   5.838  16.993  0.00  0.00    +0.000 A 
ATOM      7  C   UNL     1       5.105   6.384  15.791  0.00  0.00    +0.000 A 
ATOM      8  C   UNL     1       5.806   5.591  14.884  0.00  0.00    +0.000 A 
ATOM      9  C   UNL     1       6.040   4.245  15.171  0.00  0.00    +0.000 A 
ATOM     10  C   UNL     1       5.590   3.686  16.372  0.00  0.00    +0.000 A 
ATOM     11  C   UNL     1       4.892   4.481  17.310  0.00  0.00    +0.000 A 
ATOM     12  H   UNL     1       2.947   6.831  20.974  0.00  0.00    +0.000 HD
ENDROOT
BRANCH   4  13
ATOM     13  C   UNL     1       2.013   8.059  19.498  0.00  0.00    +0.000 A 
ATOM     14  C   UNL     1       1.972   8.360  18.120  0.00  0.00    +0.000 A 
ATOM     15  C   UNL     1       1.125   9.348  17.630  0.00  0.00    +0.000 A 
ATOM     16  C   UNL     1       0.314  10.062  18.507  0.00  0.00    +0.000 A 
ATOM     17  C   UNL     1       0.339   9.783  19.875  0.00  0.00    +0.000 A 
ATOM     18  C   UNL     1       1.177   8.775  20.387  0.00  0.00    +0.000 A 
ATOM     19  C   UNL     1       1.194   8.503  21.866  0.00  0.00    +0.000 C 
ENDBRANCH   4  13
BRANCH   1  20
ATOM     20  N   UNL     1       4.640   2.677  19.019  0.00  0.00    +0.000 N 
ATOM     21  H   UNL     1       5.532   2.399  19.446  0.00  0.00    +0.000 HD
BRANCH  20  22
ATOM     22  C   UNL     1       3.557   1.713  18.947  0.00  0.00    +0.000 C 
BRANCH  22  23
ATOM     23  C   UNL     1       2.488   2.133  17.931  0.00  0.00    +0.000 C 
BRANCH  23  24
ATOM     24  C   UNL     1       1.108   2.384  18.577  0.00  0.00    +0.000 C 
BRANCH  24  26
ATOM     25  C   UNL     1       0.846   4.019  20.485  0.00  0.00    +0.000 C 
ATOM     26  C   UNL     1       1.174   2.580  20.102  0.00  0.00    +0.000 C 
ENDBRANCH  24  26
ENDBRANCH  23  24
ENDBRANCH  22  23
ENDBRANCH  20  22
ENDBRANCH   1  20
TORSDOF 6
ENDMDL
MODEL 4
REMARK VINA RESULT:      -7.7      3.532      5.042
REMARK  Name = 
REMARK  8 active torsions:
REMARK  status: ('A' for Active; 'I' for Inactive)
REMARK    1  A    between atoms: C_1  and  C_2
REMARK    2  A    between atoms: C_2  and  C_3
REMARK    3  A    between atoms: C_3  and  C_4
REMARK    4  A    between atoms: C_4  and  C_5
REMARK    5  A    between atoms: C_5  and  N_6
REMARK    6  A    between atoms: N_6  and  C_7
REMARK    7  A    between atoms: N_10  and  C_11
REMARK    8  A    between atoms: C_16  and  C_17
REMARK                            x       y       z     vdW  Elec       q    Type
REMARK                         _______ _______ _______ _____ _____    ______ ____
ROOT
ATOM      1  C   UNL     1       4.502   5.290  17.699  0.00  0.00    +0.000 A 
ATOM      2  N   UNL     1       4.090   6.577  17.865  0.00  0.00    +0.000 NA
ATOM      3  C   UNL     1       2.855   6.884  18.318  0.00  0.00    +0.000 A 
ATOM      4  N   UNL     1       2.482   8.239  18.498  0.00  0.00    +0.000 N 
ATOM      5  N   UNL     1       1.965   5.891  18.570  0.00  0.00    +0.000 NA
ATOM      6  C   UNL     1       2.286   4.589  18.381  0.00  0.00    +0.000 A 
ATOM      7  C   UNL     1       1.315   3.608  18.604  0.00  0.00    +0.000 A 
ATOM      8  C   UNL     1       1.624   2.262  18.413  0.00  0.00    +0.000 A 
ATOM      9  C   UNL     1       2.908   1.891  18.009  0.00  0.00    +0.000 A 
ATOM     10  C   UNL     1       3.888   2.864  17.778  0.00  0.00    +0.000 A 
ATOM     11  C   UNL     1       3.586   4.234  17.951  0.00  0.00    +0.000 A 
ATOM     12  H   UNL     1       2.937   8.957  17.916  0.00  0.00    +0.000 HD
ENDROOT
BRANCH   4  13
ATOM     13  C   UNL     1       1.558   8.630  19.512  0.00  0.00    +0.000 A 
ATOM     14  C   UNL     1       1.730   8.153  20.830  0.00  0.00    +0.000 A 
ATOM     15  C   UNL     1       0.869   8.544  21.848  0.00  0.00    +0.000 A 
ATOM     16  C   UNL     1      -0.186   9.407  21.570  0.00  0.00    +0.000 A 
ATOM     17  C   UNL     1      -0.378   9.890  20.274  0.00  0.00    +0.000 A 
ATOM     18  C   UNL     1       0.494   9.519  19.233  0.00  0.00    +0.000 A 
ATOM     19  C   UNL     1       0.257  10.044  17.843  0.00  0.00    +0.000 C 
ENDBRANCH   4  13
BRANCH   1  20
ATOM     20  N   UNL     1       5.830   5.069  17.240  0.00  0.00    +0.000 N 
ATOM     21  H   UNL     1       6.469   4.455  17.758  0.00  0.00    +0.000 HD
BRANCH  20  22
ATOM     22  C   UNL     1       6.269   5.653  15.985  0.00  0.00    +0.000 C 
BRANCH  22  23
ATOM     23  C   UNL     1       6.801   4.588  15.018  0.00  0.00    +0.000 C 
BRANCH  23  24
ATOM     24  C   UNL     1       5.753   4.144  13.974  0.00  0.00    +0.000 C 
BRANCH  24  26
ATOM     25  C   UNL     1       5.410   2.829  11.844  0.00  0.00    +0.000 C 
ATOM     26  C   UNL     1       6.372   3.709  12.634  0.00  0.00    +0.000 C 
ENDBRANCH  24  26
ENDBRANCH  23  24
ENDBRANCH  22  23
ENDBRANCH  20  22
ENDBRANCH   1  20
TORSDOF 6
ENDMDL
MODEL 5
REMARK VINA RESULT:      -7.6      3.729      6.146
REMARK  Name = 
REMARK  8 active torsions:
REMARK  status: ('A' for Active; 'I' for Inactive)
REMARK    1  A    between atoms: C_1  and  C_2
REMARK    2  A    between atoms: C_2  and  C_3
REMARK    3  A    between atoms: C_3  and  C_4
REMARK    4  A    between atoms: C_4  and  C_5
REMARK    5  A    between atoms: C_5  and  N_6
REMARK    6  A    between atoms: N_6  and  C_7
REMARK    7  A    between atoms: N_10  and  C_11
REMARK    8  A    between atoms: C_16  and  C_17
REMARK                            x       y       z     vdW  Elec       q    Type
REMARK                         _______ _______ _______ _____ _____    ______ ____
ROOT
ATOM      1  C   UNL     1       4.346   5.828  17.146  0.00  0.00    +0.000 A 
ATOM      2  N   UNL     1       3.849   7.069  17.403  0.00  0.00    +0.000 NA
ATOM      3  C   UNL     1       2.673   7.254  18.042  0.00  0.00    +0.000 A 
ATOM      4  N   UNL     1       2.210   8.566  18.310  0.00  0.00    +0.000 N 
ATOM      5  N   UNL     1       1.925   6.179  18.399  0.00  0.00    +0.000 NA
ATOM      6  C   UNL     1       2.330   4.916  18.132  0.00  0.00    +0.000 A 
ATOM      7  C   UNL     1       1.497   3.846  18.473  0.00  0.00    +0.000 A 
ATOM      8  C   UNL     1       1.894   2.536  18.204  0.00  0.00    +0.000 A 
ATOM      9  C   UNL     1       3.131   2.292  17.604  0.00  0.00    +0.000 A 
ATOM     10  C   UNL     1       3.973   3.354  17.254  0.00  0.00    +0.000 A 
ATOM     11  C   UNL     1       3.578   4.688  17.504  0.00  0.00    +0.000 A 
ATOM     12  H   UNL     1       2.506   9.330  17.685  0.00  0.00    +0.000 HD
ENDROOT
BRANCH   4  13
ATOM     13  C   UNL     1       1.418   8.858  19.460  0.00  0.00    +0.000 A 
ATOM     14  C   UNL     1       1.806   8.350  20.718  0.00  0.00    +0.000 A 
ATOM     15  C   UNL     1       1.077   8.646  21.863  0.00  0.00    +0.000 A 
ATOM     16  C   UNL     1      -0.060   9.443  21.774  0.00  0.00    +0.000 A 
ATOM     17  C   UNL     1      -0.465   9.955  20.539  0.00  0.00    +0.000 A 
ATOM     18  C   UNL     1       0.270   9.680  19.372  0.00  0.00    +0.000 A 
ATOM     19  C   UNL     1      -0.195  10.234  18.053  0.00  0.00    +0.000 C 
ENDBRANCH   4  13
BRANCH   1  20
ATOM     20  N   UNL     1       5.604   5.737  16.489  0.00  0.00    +0.000 N 
ATOM     21  H   UNL     1       5.721   6.082  15.529  0.00  0.00    +0.000 HD
BRANCH  20  22
ATOM     22  C   UNL     1       6.759   5.223  17.203  0.00  0.00    +0.000 C 
BRANCH  22  23
ATOM     23  C   UNL     1       6.944   5.913  18.560  0.00  0.00    +0.000 C 
BRANCH  23  24
ATOM     24  C   UNL     1       8.082   6.957  18.555  0.00  0.00    +0.000 C 
BRANCH  24  26
ATOM     25  C   UNL     1       8.487   9.425  18.199  0.00  0.00    +0.000 C 
ATOM     26  C   UNL     1       7.784   8.181  17.670  0.00  0.00    +0.000 C 
ENDBRANCH  24  26
ENDBRANCH  23  24
ENDBRANCH  22  23
ENDBRANCH  20  22
ENDBRANCH   1  20
TORSDOF 6
ENDMDL
MODEL 6
REMARK VINA RESULT:      -7.5      0.913      1.152
REMARK  Name = 
REMARK  8 active torsions:
REMARK  status: ('A' for Active; 'I' for Inactive)
REMARK    1  A    between atoms: C_1  and  C_2
REMARK    2  A    between atoms: C_2  and  C_3
REMARK    3  A    between atoms: C_3  and  C_4
REMARK    4  A    between atoms: C_4  and  C_5
REMARK    5  A    between atoms: C_5  and  N_6
REMARK    6  A    between atoms: N_6  and  C_7
REMARK    7  A    between atoms: N_10  and  C_11
REMARK    8  A    between atoms: C_16  and  C_17
REMARK                            x       y       z     vdW  Elec       q    Type
REMARK                         _______ _______ _______ _____ _____    ______ ____
ROOT
ATOM      1  C   UNL     1       5.646   4.779  15.815  0.00  0.00    +0.000 A 
ATOM      2  N   UNL     1       4.789   3.814  16.248  0.00  0.00    +0.000 NA
ATOM      3  C   UNL     1       4.567   3.585  17.561  0.00  0.00    +0.000 A 
ATOM      4  N   UNL     1       3.645   2.586  17.960  0.00  0.00    +0.000 N 
ATOM      5  N   UNL     1       5.252   4.295  18.493  0.00  0.00    +0.000 NA
ATOM      6  C   UNL     1       6.157   5.237  18.139  0.00  0.00    +0.000 A 
ATOM      7  C   UNL     1       6.875   5.902  19.137  0.00  0.00    +0.000 A 
ATOM      8  C   UNL     1       7.815   6.874  18.794  0.00  0.00    +0.000 A 
ATOM      9  C   UNL     1       8.031   7.192  17.452  0.00  0.00    +0.000 A 
ATOM     10  C   UNL     1       7.323   6.530  16.443  0.00  0.00    +0.000 A 
ATOM     11  C   UNL     1       6.379   5.530  16.772  0.00  0.00    +0.000 A 
ATOM     12  H   UNL     1       3.482   1.785  17.332  0.00  0.00    +0.000 HD
ENDROOT
BRANCH   4  13
ATOM     13  C   UNL     1       2.889   2.707  19.164  0.00  0.00    +0.000 A 
ATOM     14  C   UNL     1       3.419   2.205  20.372  0.00  0.00    +0.000 A 
ATOM     15  C   UNL     1       2.724   2.341  21.567  0.00  0.00    +0.000 A 
ATOM     16  C   UNL     1       1.482   2.968  21.580  0.00  0.00    +0.000 A 
ATOM     17  C   UNL     1       0.936   3.471  20.396  0.00  0.00    +0.000 A 
ATOM     18  C   UNL     1       1.633   3.358  19.179  0.00  0.00    +0.000 A 
ATOM     19  C   UNL     1       1.016   3.897  17.918  0.00  0.00    +0.000 C 
ENDBRANCH   4  13
BRANCH   1  20
ATOM     20  N   UNL     1       5.794   4.960  14.413  0.00  0.00    +0.000 N 
ATOM     21  H   UNL     1       5.037   5.372  13.854  0.00  0.00    +0.000 HD
BRANCH  20  22
ATOM     22  C   UNL     1       7.053   4.631  13.768  0.00  0.00    +0.000 C 
BRANCH  22  23
ATOM     23  C   UNL     1       6.839   4.019  12.379  0.00  0.00    +0.000 C 
BRANCH  23  24
ATOM     24  C   UNL     1       5.500   3.258  12.254  0.00  0.00    +0.000 C 
BRANCH  24  26
ATOM     25  C   UNL     1       7.059   1.641  11.098  0.00  0.00    +0.000 C 
ATOM     26  C   UNL     1       5.607   1.965  11.426  0.00  0.00    +0.000 C 
ENDBRANCH  24  26
ENDBRANCH  23  24
ENDBRANCH  22  23
ENDBRANCH  20  22
ENDBRANCH   1  20
TORSDOF 6
ENDMDL
MODEL 7
REMARK VINA RESULT:      -7.5      0.868      1.827
REMARK  Name = 
REMARK  8 active torsions:
REMARK  status: ('A' for Active; 'I' for Inactive)
REMARK    1  A    between atoms: C_1  and  C_2
REMARK    2  A    between atoms: C_2  and  C_3
REMARK    3  A    between atoms: C_3  and  C_4
REMARK    4  A    between atoms: C_4  and  C_5
REMARK    5  A    between atoms: C_5  and  N_6
REMARK    6  A    between atoms: N_6  and  C_7
REMARK    7  A    between atoms: N_10  and  C_11
REMARK    8  A    between atoms: C_16  and  C_17
REMARK                            x       y       z     vdW  Elec       q    Type
REMARK                         _______ _______ _______ _____ _____    ______ ____
ROOT
ATOM      1  C   UNL     1       5.514   4.626  15.805  0.00  0.00    +0.000 A 
ATOM      2  N   UNL     1       4.651   3.683  16.274  0.00  0.00    +0.000 NA
ATOM      3  C   UNL     1       4.438   3.496  17.594  0.00  0.00    +0.000 A 
ATOM      4  N   UNL     1       3.509   2.518  18.031  0.00  0.00    +0.000 N 
ATOM      5  N   UNL     1       5.139   4.225  18.499  0.00  0.00    +0.000 NA
ATOM      6  C   UNL     1       6.051   5.146  18.110  0.00  0.00    +0.000 A 
ATOM      7  C   UNL     1       6.785   5.833  19.082  0.00  0.00    +0.000 A 
ATOM      8  C   UNL     1       7.732   6.783  18.702  0.00  0.00    +0.000 A 
ATOM      9  C   UNL     1       7.940   7.059  17.349  0.00  0.00    +0.000 A 
ATOM     10  C   UNL     1       7.216   6.376  16.366  0.00  0.00    +0.000 A 
ATOM     11  C   UNL     1       6.264   5.397  16.733  0.00  0.00    +0.000 A 
ATOM     12  H   UNL     1       3.332   1.701  17.429  0.00  0.00    +0.000 HD
ENDROOT
BRANCH   4  13
ATOM     13  C   UNL     1       2.765   2.683  19.237  0.00  0.00    +0.000 A 
ATOM     14  C   UNL     1       1.463   3.224  19.182  0.00  0.00    +0.000 A 
ATOM     15  C   UNL     1       0.699   3.363  20.334  0.00  0.00    +0.000 A 
ATOM     16  C   UNL     1       1.223   2.978  21.564  0.00  0.00    +0.000 A 
ATOM     17  C   UNL     1       2.511   2.443  21.644  0.00  0.00    +0.000 A 
ATOM     18  C   UNL     1       3.293   2.279  20.486  0.00  0.00    +0.000 A 
ATOM     19  C   UNL     1       4.681   1.711  20.602  0.00  0.00    +0.000 C 
ENDBRANCH   4  13
BRANCH   1  20
ATOM     20  N   UNL     1       5.652   4.763  14.397  0.00  0.00    +0.000 N 
ATOM     21  H   UNL     1       4.954   5.281  13.849  0.00  0.00    +0.000 HD
BRANCH  20  22
ATOM     22  C   UNL     1       6.827   4.234  13.728  0.00  0.00    +0.000 C 
BRANCH  22  23
ATOM     23  C   UNL     1       6.577   4.006  12.232  0.00  0.00    +0.000 C 
BRANCH  23  24
ATOM     24  C   UNL     1       5.337   3.128  11.955  0.00  0.00    +0.000 C 
BRANCH  24  26
ATOM     25  C   UNL     1       7.148   1.653  10.991  0.00  0.00    +0.000 C 
ATOM     26  C   UNL     1       5.687   1.728  11.420  0.00  0.00    +0.000 C 
ENDBRANCH  24  26
ENDBRANCH  23  24
ENDBRANCH  22  23
ENDBRANCH  20  22
ENDBRANCH   1  20
TORSDOF 6
ENDMDL
MODEL 8
REMARK VINA RESULT:      -7.4      3.461      8.208
REMARK  Name = 
REMARK  8 active torsions:
REMARK  status: ('A' for Active; 'I' for Inactive)
REMARK    1  A    between atoms: C_1  and  C_2
REMARK    2  A    between atoms: C_2  and  C_3
REMARK    3  A    between atoms: C_3  and  C_4
REMARK    4  A    between atoms: C_4  and  C_5
REMARK    5  A    between atoms: C_5  and  N_6
REMARK    6  A    between atoms: N_6  and  C_7
REMARK    7  A    between atoms: N_10  and  C_11
REMARK    8  A    between atoms: C_16  and  C_17
REMARK                            x       y       z     vdW  Elec       q    Type
REMARK                         _______ _______ _______ _____ _____    ______ ____
ROOT
ATOM      1  C   UNL     1       2.456   6.319  19.926  0.00  0.00    +0.000 A 
ATOM      2  N   UNL     1       3.537   6.740  19.213  0.00  0.00    +0.000 NA
ATOM      3  C   UNL     1       4.315   5.885  18.515  0.00  0.00    +0.000 A 
ATOM      4  N   UNL     1       5.415   6.375  17.767  0.00  0.00    +0.000 N 
ATOM      5  N   UNL     1       4.058   4.553  18.558  0.00  0.00    +0.000 NA
ATOM      6  C   UNL     1       3.031   4.054  19.286  0.00  0.00    +0.000 A 
ATOM      7  C   UNL     1       2.842   2.670  19.340  0.00  0.00    +0.000 A 
ATOM      8  C   UNL     1       1.792   2.136  20.086  0.00  0.00    +0.000 A 
ATOM      9  C   UNL     1       0.920   2.985  20.771  0.00  0.00    +0.000 A 
ATOM     10  C   UNL     1       1.102   4.372  20.729  0.00  0.00    +0.000 A 
ATOM     11  C   UNL     1       2.171   4.929  19.991  0.00  0.00    +0.000 A 
ATOM     12  H   UNL     1       5.870   7.247  18.074  0.00  0.00    +0.000 HD
ENDROOT
BRANCH   4  13
ATOM     13  C   UNL     1       5.845   5.735  16.567  0.00  0.00    +0.000 A 
ATOM     14  C   UNL     1       5.147   5.974  15.363  0.00  0.00    +0.000 A 
ATOM     15  C   UNL     1       5.563   5.395  14.170  0.00  0.00    +0.000 A 
ATOM     16  C   UNL     1       6.674   4.557  14.157  0.00  0.00    +0.000 A 
ATOM     17  C   UNL     1       7.379   4.305  15.336  0.00  0.00    +0.000 A 
ATOM     18  C   UNL     1       6.983   4.895  16.550  0.00  0.00    +0.000 A 
ATOM     19  C   UNL     1       7.753   4.597  17.807  0.00  0.00    +0.000 C 
ENDBRANCH   4  13
BRANCH   1  20
ATOM     20  N   UNL     1       1.685   7.300  20.609  0.00  0.00    +0.000 N 
ATOM     21  H   UNL     1       1.340   7.126  21.560  0.00  0.00    +0.000 HD
BRANCH  20  22
ATOM     22  C   UNL     1       1.444   8.592  19.991  0.00  0.00    +0.000 C 
BRANCH  22  23
ATOM     23  C   UNL     1       0.779   9.573  20.965  0.00  0.00    +0.000 C 
BRANCH  23  24
ATOM     24  C   UNL     1      -0.188   8.881  21.951  0.00  0.00    +0.000 C 
BRANCH  24  26
ATOM     25  C   UNL     1      -1.084  11.021  22.952  0.00  0.00    +0.000 C 
ATOM     26  C   UNL     1      -0.416   9.683  23.245  0.00  0.00    +0.000 C 
ENDBRANCH  24  26
ENDBRANCH  23  24
ENDBRANCH  22  23
ENDBRANCH  20  22
ENDBRANCH   1  20
TORSDOF 6
ENDMDL
MODEL 9
REMARK VINA RESULT:      -7.4      4.079      6.491
REMARK  Name = 
REMARK  8 active torsions:
REMARK  status: ('A' for Active; 'I' for Inactive)
REMARK    1  A    between atoms: C_1  and  C_2
REMARK    2  A    between atoms: C_2  and  C_3
REMARK    3  A    between atoms: C_3  and  C_4
REMARK    4  A    between atoms: C_4  and  C_5
REMARK    5  A    between atoms: C_5  and  N_6
REMARK    6  A    between atoms: N_6  and  C_7
REMARK    7  A    between atoms: N_10  and  C_11
REMARK    8  A    between atoms: C_16  and  C_17
REMARK                            x       y       z     vdW  Elec       q    Type
REMARK                         _______ _______ _______ _____ _____    ______ ____
ROOT
ATOM      1  C   UNL     1       4.060   5.853  18.233  0.00  0.00    +0.000 A 
ATOM      2  N   UNL     1       3.342   7.008  18.194  0.00  0.00    +0.000 NA
ATOM      3  C   UNL     1       2.307   7.240  19.030  0.00  0.00    +0.000 A 
ATOM      4  N   UNL     1       1.606   8.471  18.967  0.00  0.00    +0.000 N 
ATOM      5  N   UNL     1       1.922   6.280  19.908  0.00  0.00    +0.000 NA
ATOM      6  C   UNL     1       2.556   5.085  19.971  0.00  0.00    +0.000 A 
ATOM      7  C   UNL     1       2.087   4.109  20.855  0.00  0.00    +0.000 A 
ATOM      8  C   UNL     1       2.724   2.872  20.934  0.00  0.00    +0.000 A 
ATOM      9  C   UNL     1       3.840   2.609  20.137  0.00  0.00    +0.000 A 
ATOM     10  C   UNL     1       4.317   3.575  19.244  0.00  0.00    +0.000 A 
ATOM     11  C   UNL     1       3.672   4.830  19.139  0.00  0.00    +0.000 A 
ATOM     12  H   UNL     1       1.581   8.979  18.071  0.00  0.00    +0.000 HD
ENDROOT
BRANCH   4  13
ATOM     13  C   UNL     1       1.011   9.050  20.127  0.00  0.00    +0.000 A 
ATOM     14  C   UNL     1       1.480   8.682  21.406  0.00  0.00    +0.000 A 
ATOM     15  C   UNL     1       0.947   9.256  22.554  0.00  0.00    +0.000 A 
ATOM     16  C   UNL     1      -0.072  10.198  22.449  0.00  0.00    +0.000 A 
ATOM     17  C   UNL     1      -0.554  10.576  21.194  0.00  0.00    +0.000 A 
ATOM     18  C   UNL     1      -0.015  10.019  20.020  0.00  0.00    +0.000 A 
ATOM     19  C   UNL     1      -0.560  10.436  18.681  0.00  0.00    +0.000 C 
ENDBRANCH   4  13
BRANCH   1  20
ATOM     20  N   UNL     1       5.147   5.712  17.328  0.00  0.00    +0.000 N 
ATOM     21  H   UNL     1       5.175   4.935  16.658  0.00  0.00    +0.000 HD
BRANCH  20  22
ATOM     22  C   UNL     1       6.195   6.717  17.291  0.00  0.00    +0.000 C 
BRANCH  22  23
ATOM     23  C   UNL     1       7.431   6.280  18.087  0.00  0.00    +0.000 C 
BRANCH  23  24
ATOM     24  C   UNL     1       8.304   7.468  18.546  0.00  0.00    +0.000 C 
BRANCH  24  26
ATOM     25  C   UNL     1       8.773   9.946  18.389  0.00  0.00    +0.000 C 
ATOM     26  C   UNL     1       8.003   8.775  17.790  0.00  0.00    +0.000 C 
ENDBRANCH  24  26
ENDBRANCH  23  24
ENDBRANCH  22  23
ENDBRANCH  20  22
ENDBRANCH   1  20
TORSDOF 6
ENDMDL
