MODEL 1
REMARK VINA RESULT:      -8.2      0.000      0.000
REMARK  Name = 
REMARK  7 active torsions:
REMARK  status: ('A' for Active; 'I' for Inactive)
REMARK    1  A    between atoms: C_2  and  C_3
REMARK    2  A    between atoms: C_9  and  N_10
REMARK    3  A    between atoms: N_18  and  CA_19
REMARK    4  A    between atoms: CA_19  and  C_20
REMARK    5  A    between atoms: CA_19  and  C_22
REMARK    6  A    between atoms: C_20  and  O_21
REMARK    7  A    between atoms: C_25  and  C_26
REMARK                            x       y       z     vdW  Elec       q    Type
REMARK                         _______ _______ _______ _____ _____    ______ ____
ROOT
ATOM      1  N   UNL     1       1.837   7.436  20.123  0.00  0.00    +0.000 N 
ATOM      2  C   UNL     1       1.236   6.600  21.166  0.00  0.00    +0.000 C 
ATOM      3  C   UNL     1       0.874   5.242  20.565  0.00  0.00    +0.000 C 
ATOM      4  C   UNL     1       1.962   4.675  19.697  0.00  0.00    +0.000 A 
ATOM      5  N   UNL     1       1.844   3.368  19.378  0.00  0.00    +0.000 NA
ATOM      6  C   UNL     1       2.822   2.855  18.627  0.00  0.00    +0.000 A 
ATOM      7  N   UNL     1       3.907   3.509  18.195  0.00  0.00    +0.000 NA
ATOM      8  C   UNL     1       4.010   4.803  18.546  0.00  0.00    +0.000 A 
ATOM      9  N   UNL     1       5.159   5.517  18.178  0.00  0.00    +0.000 N 
ATOM     10  C   UNL     1       3.010   5.464  19.248  0.00  0.00    +0.000 A 
ATOM     11  C   UNL     1       3.123   6.917  19.615  0.00  0.00    +0.000 C 
ATOM     12  H   UNL     1       4.935   6.072  17.356  0.00  0.00    +0.000 HD
ENDROOT
BRANCH   1  19
ATOM     13  C   UNL     1       0.911   9.685  20.668  0.00  0.00    +0.000 A 
ATOM     14  C   UNL     1       0.441  10.930  20.201  0.00  0.00    +0.000 A 
ATOM     15  C   UNL     1       0.446  11.224  18.845  0.00  0.00    +0.000 A 
ATOM     16 CL   UNL     1      -0.112  12.751  18.292  0.00  0.00    +0.000 Cl
ATOM     17  C   UNL     1       0.904  10.284  17.938  0.00  0.00    +0.000 A 
ATOM     18  C   UNL     1       1.355   9.041  18.399  0.00  0.00    +0.000 A 
ATOM     19  C   UNL     1       1.383   8.697  19.770  0.00  0.00    +0.000 A 
BRANCH  13  21
ATOM     20  N   UNL     1       0.931   9.418  23.251  0.00  0.00    +0.000 NA
ATOM     21  C   UNL     1       0.930   9.519  22.094  0.00  0.00    +0.000 C 
ENDBRANCH  13  21
ENDBRANCH   1  19
BRANCH   9  22
ATOM     22  CA  UNL     1       6.383   4.723  17.968  0.00  0.00    +0.000 C 
BRANCH  22  23
ATOM     23  C   UNL     1       6.640   4.636  16.467  0.00  0.00    +0.000 A 
ATOM     24  C   UNL     1       5.974   3.723  15.637  0.00  0.00    +0.000 A 
ATOM     25  C   UNL     1       6.222   3.709  14.267  0.00  0.00    +0.000 A 
ATOM     26  C   UNL     1       7.133   4.616  13.739  0.00  0.00    +0.000 A 
ATOM     27  N   UNL     1       7.785   5.523  14.519  0.00  0.00    +0.000 NA
ATOM     28  C   UNL     1       7.524   5.514  15.849  0.00  0.00    +0.000 A 
BRANCH  26  29
ATOM     29  C   UNL     1       7.410   4.595  12.251  0.00  0.00    +0.000 C 
ATOM     30  F   UNL     1       6.298   4.288  11.519  0.00  0.00    +0.000 F 
ATOM     31  F   UNL     1       7.834   5.803  11.778  0.00  0.00    +0.000 F 
ENDBRANCH  26  29
ENDBRANCH  22  23
BRANCH  22  32
ATOM     32  C   UNL     1       7.627   5.335  18.682  0.00  0.00    +0.000 C 
BRANCH  32  33
ATOM     33  O   UNL     1       7.524   5.360  20.110  0.00  0.00    +0.000 OA
ATOM     34  H   UNL     1       8.311   5.815  20.453  0.00  0.00    +0.000 HD
ENDBRANCH  32  33
ENDBRANCH  22  32
ENDBRANCH   9  22
TORSDOF 7
ENDMDL
MODEL 2
REMARK VINA RESULT:      -7.9      1.137      1.953
REMARK  Name = 
REMARK  7 active torsions:
REMARK  status: ('A' for Active; 'I' for Inactive)
REMARK    1  A    between atoms: C_2  and  C_3
REMARK    2  A    between atoms: C_9  and  N_10
REMARK    3  A    between atoms: N_18  and  CA_19
REMARK    4  A    between atoms: CA_19  and  C_20
REMARK    5  A    between atoms: CA_19  and  C_22
REMARK    6  A    between atoms: C_20  and  O_21
REMARK    7  A    between atoms: C_25  and  C_26
REMARK                            x       y       z     vdW  Elec       q    Type
REMARK                         _______ _______ _______ _____ _____    ______ ____
ROOT
ATOM      1  N   UNL     1       1.971   6.631  20.252  0.00  0.00    +0.000 N 
ATOM      2  C   UNL     1       1.396   5.639  21.165  0.00  0.00    +0.000 C 
ATOM      3  C   UNL     1       1.014   4.393  20.366  0.00  0.00    +0.000 C 
ATOM      4  C   UNL     1       2.077   3.973  19.390  0.00  0.00    +0.000 A 
ATOM      5  N   UNL     1       1.947   2.733  18.871  0.00  0.00    +0.000 NA
ATOM      6  C   UNL     1       2.903   2.348  18.022  0.00  0.00    +0.000 A 
ATOM      7  N   UNL     1       3.977   3.064  17.669  0.00  0.00    +0.000 NA
ATOM      8  C   UNL     1       4.093   4.286  18.218  0.00  0.00    +0.000 A 
ATOM      9  N   UNL     1       5.234   5.051  17.937  0.00  0.00    +0.000 N 
ATOM     10  C   UNL     1       3.114   4.825  19.043  0.00  0.00    +0.000 A 
ATOM     11  C   UNL     1       3.241   6.202  19.633  0.00  0.00    +0.000 C 
ATOM     12  H   UNL     1       4.988   5.729  17.220  0.00  0.00    +0.000 HD
ENDROOT
BRANCH   1  19
ATOM     13  C   UNL     1       1.748   8.778  19.006  0.00  0.00    +0.000 A 
ATOM     14  C   UNL     1       1.259  10.101  18.979  0.00  0.00    +0.000 A 
ATOM     15  C   UNL     1       0.513  10.600  20.038  0.00  0.00    +0.000 A 
ATOM     16 CL   UNL     1      -0.092  12.206  19.985  0.00  0.00    +0.000 Cl
ATOM     17  C   UNL     1       0.258   9.799  21.138  0.00  0.00    +0.000 A 
ATOM     18  C   UNL     1       0.758   8.492  21.173  0.00  0.00    +0.000 A 
ATOM     19  C   UNL     1       1.510   7.931  20.116  0.00  0.00    +0.000 A 
BRANCH  13  21
ATOM     20  N   UNL     1       2.990   7.961  16.876  0.00  0.00    +0.000 NA
ATOM     21  C   UNL     1       2.441   8.345  17.825  0.00  0.00    +0.000 C 
ENDBRANCH  13  21
ENDBRANCH   1  19
BRANCH   9  22
ATOM     22  CA  UNL     1       6.449   4.302  17.571  0.00  0.00    +0.000 C 
BRANCH  22  23
ATOM     23  C   UNL     1       6.631   4.406  16.060  0.00  0.00    +0.000 A 
ATOM     24  C   UNL     1       5.877   3.647  15.154  0.00  0.00    +0.000 A 
ATOM     25  C   UNL     1       6.061   3.804  13.783  0.00  0.00    +0.000 A 
ATOM     26  C   UNL     1       6.997   4.727  13.331  0.00  0.00    +0.000 A 
ATOM     27  N   UNL     1       7.734   5.488  14.188  0.00  0.00    +0.000 NA
ATOM     28  C   UNL     1       7.535   5.313  15.516  0.00  0.00    +0.000 A 
BRANCH  26  29
ATOM     29  C   UNL     1       7.204   4.892  11.840  0.00  0.00    +0.000 C 
ATOM     30  F   UNL     1       8.020   5.946  11.541  0.00  0.00    +0.000 F 
ATOM     31  F   UNL     1       7.794   3.803  11.269  0.00  0.00    +0.000 F 
ENDBRANCH  26  29
ENDBRANCH  22  23
BRANCH  22  32
ATOM     32  C   UNL     1       7.724   4.835  18.293  0.00  0.00    +0.000 C 
BRANCH  32  33
ATOM     33  O   UNL     1       7.597   6.174  18.787  0.00  0.00    +0.000 OA
ATOM     34  H   UNL     1       8.380   6.362  19.330  0.00  0.00    +0.000 HD
ENDBRANCH  32  33
ENDBRANCH  22  32
ENDBRANCH   9  22
TORSDOF 7
ENDMDL
MODEL 3
REMARK VINA RESULT:      -7.7      0.733      1.091
REMARK  Name = 
REMARK  7 active torsions:
REMARK  status: ('A' for Active; 'I' for Inactive)
REMARK    1  A    between atoms: C_2  and  C_3
REMARK    2  A    between atoms: C_9  and  N_10
REMARK    3  A    between atoms: N_18  and  CA_19
REMARK    4  A    between atoms: CA_19  and  C_20
REMARK    5  A    between atoms: CA_19  and  C_22
REMARK    6  A    between atoms: C_20  and  O_21
REMARK    7  A    between atoms: C_25  and  C_26
REMARK                            x       y       z     vdW  Elec       q    Type
REMARK                         _______ _______ _______ _____ _____    ______ ____
ROOT
ATOM      1  N   UNL     1       1.939   7.306  20.040  0.00  0.00    +0.000 N 
ATOM      2  C   UNL     1       1.420   6.494  21.145  0.00  0.00    +0.000 C 
ATOM      3  C   UNL     1       1.001   5.128  20.602  0.00  0.00    +0.000 C 
ATOM      4  C   UNL     1       2.012   4.536  19.660  0.00  0.00    +0.000 A 
ATOM      5  N   UNL     1       1.861   3.224  19.377  0.00  0.00    +0.000 NA
ATOM      6  C   UNL     1       2.772   2.690  18.560  0.00  0.00    +0.000 A 
ATOM      7  N   UNL     1       3.821   3.327  18.027  0.00  0.00    +0.000 NA
ATOM      8  C   UNL     1       3.960   4.627  18.343  0.00  0.00    +0.000 A 
ATOM      9  N   UNL     1       5.080   5.325  17.869  0.00  0.00    +0.000 N 
ATOM     10  C   UNL     1       3.024   5.309  19.111  0.00  0.00    +0.000 A 
ATOM     11  C   UNL     1       3.176   6.768  19.439  0.00  0.00    +0.000 C 
ATOM     12  H   UNL     1       4.792   5.866  17.057  0.00  0.00    +0.000 HD
ENDROOT
BRANCH   1  19
ATOM     13  C   UNL     1       1.016   9.549  20.611  0.00  0.00    +0.000 A 
ATOM     14  C   UNL     1       0.521  10.791  20.158  0.00  0.00    +0.000 A 
ATOM     15  C   UNL     1       0.481  11.082  18.802  0.00  0.00    +0.000 A 
ATOM     16 CL   UNL     1      -0.106  12.604  18.266  0.00  0.00    +0.000 Cl
ATOM     17  C   UNL     1       0.915  10.144  17.882  0.00  0.00    +0.000 A 
ATOM     18  C   UNL     1       1.389   8.905  18.330  0.00  0.00    +0.000 A 
ATOM     19  C   UNL     1       1.465   8.563  19.700  0.00  0.00    +0.000 A 
BRANCH  13  21
ATOM     20  N   UNL     1       1.171   9.246  23.186  0.00  0.00    +0.000 NA
ATOM     21  C   UNL     1       1.082   9.386  22.036  0.00  0.00    +0.000 C 
ENDBRANCH  13  21
ENDBRANCH   1  19
BRANCH   9  22
ATOM     22  CA  UNL     1       6.278   4.518  17.576  0.00  0.00    +0.000 C 
BRANCH  22  23
ATOM     23  C   UNL     1       6.442   4.447  16.061  0.00  0.00    +0.000 A 
ATOM     24  C   UNL     1       7.384   5.218  15.365  0.00  0.00    +0.000 A 
ATOM     25  C   UNL     1       7.515   5.091  13.985  0.00  0.00    +0.000 A 
ATOM     26  C   UNL     1       6.702   4.185  13.314  0.00  0.00    +0.000 A 
ATOM     27  N   UNL     1       5.788   3.413  13.965  0.00  0.00    +0.000 NA
ATOM     28  C   UNL     1       5.682   3.559  15.308  0.00  0.00    +0.000 A 
BRANCH  26  29
ATOM     29  C   UNL     1       6.838   4.052  11.811  0.00  0.00    +0.000 C 
ATOM     30  F   UNL     1       7.515   5.101  11.256  0.00  0.00    +0.000 F 
ATOM     31  F   UNL     1       7.532   2.937  11.443  0.00  0.00    +0.000 F 
ENDBRANCH  26  29
ENDBRANCH  22  23
BRANCH  22  32
ATOM     32  C   UNL     1       7.571   5.105  18.220  0.00  0.00    +0.000 C 
BRANCH  32  33
ATOM     33  O   UNL     1       7.447   5.387  19.619  0.00  0.00    +0.000 OA
ATOM     34  H   UNL     1       6.631   5.896  19.745  0.00  0.00    +0.000 HD
ENDBRANCH  32  33
ENDBRANCH  22  32
ENDBRANCH   9  22
TORSDOF 7
ENDMDL
MODEL 4
REMARK VINA RESULT:      -7.5      6.357      9.461
REMARK  Name = 
REMARK  7 active torsions:
REMARK  status: ('A' for Active; 'I' for Inactive)
REMARK    1  A    between atoms: C_2  and  C_3
REMARK    2  A    between atoms: C_9  and  N_10
REMARK    3  A    between atoms: N_18  and  CA_19
REMARK    4  A    between atoms: CA_19  and  C_20
REMARK    5  A    between atoms: CA_19  and  C_22
REMARK    6  A    between atoms: C_20  and  O_21
REMARK    7  A    between atoms: C_25  and  C_26
REMARK                            x       y       z     vdW  Elec       q    Type
REMARK                         _______ _______ _______ _____ _____    ______ ____
ROOT
ATOM      1  N   UNL     1       0.584  11.329  18.811  0.00  0.00    +0.000 N 
ATOM      2  C   UNL     1      -0.813  11.622  18.477  0.00  0.00    +0.000 C 
ATOM      3  C   UNL     1      -1.342  12.678  19.445  0.00  0.00    +0.000 C 
ATOM      4  C   UNL     1      -0.379  13.813  19.660  0.00  0.00    +0.000 A 
ATOM      5  N   UNL     1      -0.885  14.914  20.255  0.00  0.00    +0.000 NA
ATOM      6  C   UNL     1      -0.038  15.932  20.425  0.00  0.00    +0.000 A 
ATOM      7  N   UNL     1       1.242  15.964  20.037  0.00  0.00    +0.000 NA
ATOM      8  C   UNL     1       1.714  14.862  19.427  0.00  0.00    +0.000 A 
ATOM      9  N   UNL     1       3.028  14.866  18.939  0.00  0.00    +0.000 N 
ATOM     10  C   UNL     1       0.950  13.711  19.277  0.00  0.00    +0.000 A 
ATOM     11  C   UNL     1       1.493  12.476  18.616  0.00  0.00    +0.000 C 
ATOM     12  H   UNL     1       3.615  14.376  19.610  0.00  0.00    +0.000 HD
ENDROOT
BRANCH   1  19
ATOM     13  C   UNL     1       1.080   9.435  20.354  0.00  0.00    +0.000 A 
ATOM     14  C   UNL     1       1.636   8.151  20.532  0.00  0.00    +0.000 A 
ATOM     15  C   UNL     1       2.178   7.461  19.457  0.00  0.00    +0.000 A 
ATOM     16 CL   UNL     1       2.835   5.890  19.684  0.00  0.00    +0.000 Cl
ATOM     17  C   UNL     1       2.189   8.041  18.201  0.00  0.00    +0.000 A 
ATOM     18  C   UNL     1       1.653   9.323  18.026  0.00  0.00    +0.000 A 
ATOM     19  C   UNL     1       1.077  10.062  19.084  0.00  0.00    +0.000 A 
BRANCH  13  21
ATOM     20  N   UNL     1       0.017  10.479  22.481  0.00  0.00    +0.000 NA
ATOM     21  C   UNL     1       0.479  10.023  21.518  0.00  0.00    +0.000 C 
ENDBRANCH  13  21
ENDBRANCH   1  19
BRANCH   9  22
ATOM     22  CA  UNL     1       3.594  16.183  18.596  0.00  0.00    +0.000 C 
BRANCH  22  23
ATOM     23  C   UNL     1       5.102  16.023  18.435  0.00  0.00    +0.000 A 
ATOM     24  C   UNL     1       6.017  16.984  18.886  0.00  0.00    +0.000 A 
ATOM     25  C   UNL     1       7.386  16.773  18.743  0.00  0.00    +0.000 A 
ATOM     26  C   UNL     1       7.826  15.594  18.153  0.00  0.00    +0.000 A 
ATOM     27  N   UNL     1       6.961  14.637  17.717  0.00  0.00    +0.000 NA
ATOM     28  C   UNL     1       5.635  14.869  17.869  0.00  0.00    +0.000 A 
BRANCH  26  29
ATOM     29  C   UNL     1       9.315  15.368  17.989  0.00  0.00    +0.000 C 
ATOM     30  F   UNL     1       9.610  14.079  17.646  0.00  0.00    +0.000 F 
ATOM     31  F   UNL     1       9.857  16.139  17.002  0.00  0.00    +0.000 F 
ENDBRANCH  26  29
ENDBRANCH  22  23
BRANCH  22  32
ATOM     32  C   UNL     1       2.984  16.778  17.290  0.00  0.00    +0.000 C 
BRANCH  32  33
ATOM     33  O   UNL     1       2.021  17.815  17.517  0.00  0.00    +0.000 OA
ATOM     34  H   UNL     1       1.139  17.419  17.430  0.00  0.00    +0.000 HD
ENDBRANCH  32  33
ENDBRANCH  22  32
ENDBRANCH   9  22
TORSDOF 7
ENDMDL
MODEL 5
REMARK VINA RESULT:      -7.5      6.485      9.508
REMARK  Name = 
REMARK  7 active torsions:
REMARK  status: ('A' for Active; 'I' for Inactive)
REMARK    1  A    between atoms: C_2  and  C_3
REMARK    2  A    between atoms: C_9  and  N_10
REMARK    3  A    between atoms: N_18  and  CA_19
REMARK    4  A    between atoms: CA_19  and  C_20
REMARK    5  A    between atoms: CA_19  and  C_22
REMARK    6  A    between atoms: C_20  and  O_21
REMARK    7  A    between atoms: C_25  and  C_26
REMARK                            x       y       z     vdW  Elec       q    Type
REMARK                         _______ _______ _______ _____ _____    ______ ____
ROOT
ATOM      1  N   UNL     1       0.590  11.264  18.883  0.00  0.00    +0.000 N 
ATOM      2  C   UNL     1      -0.808  11.561  18.556  0.00  0.00    +0.000 C 
ATOM      3  C   UNL     1      -1.330  12.617  19.529  0.00  0.00    +0.000 C 
ATOM      4  C   UNL     1      -0.364  13.748  19.744  0.00  0.00    +0.000 A 
ATOM      5  N   UNL     1      -0.864  14.849  20.344  0.00  0.00    +0.000 NA
ATOM      6  C   UNL     1      -0.014  15.864  20.514  0.00  0.00    +0.000 A 
ATOM      7  N   UNL     1       1.265  15.894  20.121  0.00  0.00    +0.000 NA
ATOM      8  C   UNL     1       1.731  14.792  19.506  0.00  0.00    +0.000 A 
ATOM      9  N   UNL     1       3.043  14.795  19.011  0.00  0.00    +0.000 N 
ATOM     10  C   UNL     1       0.964  13.644  19.355  0.00  0.00    +0.000 A 
ATOM     11  C   UNL     1       1.501  12.410  18.687  0.00  0.00    +0.000 C 
ATOM     12  H   UNL     1       3.632  14.302  19.679  0.00  0.00    +0.000 HD
ENDROOT
BRANCH   1  19
ATOM     13  C   UNL     1       1.083   9.363  20.417  0.00  0.00    +0.000 A 
ATOM     14  C   UNL     1       1.637   8.077  20.589  0.00  0.00    +0.000 A 
ATOM     15  C   UNL     1       2.178   7.391  19.511  0.00  0.00    +0.000 A 
ATOM     16 CL   UNL     1       2.832   5.818  19.730  0.00  0.00    +0.000 Cl
ATOM     17  C   UNL     1       2.190   7.977  18.257  0.00  0.00    +0.000 A 
ATOM     18  C   UNL     1       1.656   9.260  18.089  0.00  0.00    +0.000 A 
ATOM     19  C   UNL     1       1.081   9.996  19.150  0.00  0.00    +0.000 A 
BRANCH  13  21
ATOM     20  N   UNL     1       0.031  10.421  22.542  0.00  0.00    +0.000 NA
ATOM     21  C   UNL     1       0.483   9.945  21.584  0.00  0.00    +0.000 C 
ENDBRANCH  13  21
ENDBRANCH   1  19
BRANCH   9  22
ATOM     22  CA  UNL     1       3.611  16.112  18.670  0.00  0.00    +0.000 C 
BRANCH  22  23
ATOM     23  C   UNL     1       5.114  15.943  18.473  0.00  0.00    +0.000 A 
ATOM     24  C   UNL     1       5.676  14.805  17.876  0.00  0.00    +0.000 A 
ATOM     25  C   UNL     1       7.052  14.716  17.690  0.00  0.00    +0.000 A 
ATOM     26  C   UNL     1       7.856  15.774  18.102  0.00  0.00    +0.000 A 
ATOM     27  N   UNL     1       7.337  16.896  18.673  0.00  0.00    +0.000 NA
ATOM     28  C   UNL     1       5.994  16.955  18.841  0.00  0.00    +0.000 A 
BRANCH  26  29
ATOM     29  C   UNL     1       9.355  15.674  17.909  0.00  0.00    +0.000 C 
ATOM     30  F   UNL     1      10.040  16.560  18.690  0.00  0.00    +0.000 F 
ATOM     31  F   UNL     1       9.845  14.444  18.240  0.00  0.00    +0.000 F 
ENDBRANCH  26  29
ENDBRANCH  22  23
BRANCH  22  32
ATOM     32  C   UNL     1       2.976  16.725  17.385  0.00  0.00    +0.000 C 
BRANCH  32  33
ATOM     33  O   UNL     1       2.069  17.804  17.642  0.00  0.00    +0.000 OA
ATOM     34  H   UNL     1       1.802  17.746  18.574  0.00  0.00    +0.000 HD
ENDBRANCH  32  33
ENDBRANCH  22  32
ENDBRANCH   9  22
TORSDOF 7
ENDMDL
MODEL 6
REMARK VINA RESULT:      -7.3      6.393      9.375
REMARK  Name = 
REMARK  7 active torsions:
REMARK  status: ('A' for Active; 'I' for Inactive)
REMARK    1  A    between atoms: C_2  and  C_3
REMARK    2  A    between atoms: C_9  and  N_10
REMARK    3  A    between atoms: N_18  and  CA_19
REMARK    4  A    between atoms: CA_19  and  C_20
REMARK    5  A    between atoms: CA_19  and  C_22
REMARK    6  A    between atoms: C_20  and  O_21
REMARK    7  A    between atoms: C_25  and  C_26
REMARK                            x       y       z     vdW  Elec       q    Type
REMARK                         _______ _______ _______ _____ _____    ______ ____
ROOT
ATOM      1  N   UNL     1       0.707  11.372  20.091  0.00  0.00    +0.000 N 
ATOM      2  C   UNL     1      -0.621  11.804  20.537  0.00  0.00    +0.000 C 
ATOM      3  C   UNL     1      -0.461  12.747  21.728  0.00  0.00    +0.000 C 
ATOM      4  C   UNL     1       0.621  13.771  21.525  0.00  0.00    +0.000 A 
ATOM      5  N   UNL     1       0.623  14.810  22.388  0.00  0.00    +0.000 NA
ATOM      6  C   UNL     1       1.569  15.733  22.194  0.00  0.00    +0.000 A 
ATOM      7  N   UNL     1       2.482  15.731  21.217  0.00  0.00    +0.000 NA
ATOM      8  C   UNL     1       2.443  14.696  20.358  0.00  0.00    +0.000 A 
ATOM      9  N   UNL     1       3.332  14.679  19.274  0.00  0.00    +0.000 N 
ATOM     10  C   UNL     1       1.562  13.633  20.515  0.00  0.00    +0.000 A 
ATOM     11  C   UNL     1       1.542  12.469  19.565  0.00  0.00    +0.000 C 
ATOM     12  H   UNL     1       4.104  14.060  19.511  0.00  0.00    +0.000 HD
ENDROOT
BRANCH   1  19
ATOM     13  C   UNL     1       1.162   9.103  21.019  0.00  0.00    +0.000 A 
ATOM     14  C   UNL     1       1.608   7.784  20.790  0.00  0.00    +0.000 A 
ATOM     15  C   UNL     1       1.980   7.375  19.518  0.00  0.00    +0.000 A 
ATOM     16 CL   UNL     1       2.503   5.762  19.250  0.00  0.00    +0.000 Cl
ATOM     17  C   UNL     1       1.929   8.271  18.464  0.00  0.00    +0.000 A 
ATOM     18  C   UNL     1       1.504   9.585  18.693  0.00  0.00    +0.000 A 
ATOM     19  C   UNL     1       1.100  10.048  19.966  0.00  0.00    +0.000 A 
BRANCH  13  21
ATOM     20  N   UNL     1       0.393   9.662  23.436  0.00  0.00    +0.000 NA
ATOM     21  C   UNL     1       0.730   9.393  22.357  0.00  0.00    +0.000 C 
ENDBRANCH  13  21
ENDBRANCH   1  19
BRANCH   9  22
ATOM     22  CA  UNL     1       3.821  15.989  18.809  0.00  0.00    +0.000 C 
BRANCH  22  23
ATOM     23  C   UNL     1       5.319  15.871  18.549  0.00  0.00    +0.000 A 
ATOM     24  C   UNL     1       5.900  14.728  17.979  0.00  0.00    +0.000 A 
ATOM     25  C   UNL     1       7.269  14.685  17.733  0.00  0.00    +0.000 A 
ATOM     26  C   UNL     1       8.046  15.792  18.055  0.00  0.00    +0.000 A 
ATOM     27  N   UNL     1       7.508  16.920  18.597  0.00  0.00    +0.000 NA
ATOM     28  C   UNL     1       6.172  16.934  18.826  0.00  0.00    +0.000 A 
BRANCH  26  29
ATOM     29  C   UNL     1       9.537  15.742  17.796  0.00  0.00    +0.000 C 
ATOM     30  F   UNL     1       9.959  14.497  17.422  0.00  0.00    +0.000 F 
ATOM     31  F   UNL     1       9.922  16.573  16.784  0.00  0.00    +0.000 F 
ENDBRANCH  26  29
ENDBRANCH  22  23
BRANCH  22  32
ATOM     32  C   UNL     1       3.098  16.476  17.516  0.00  0.00    +0.000 C 
BRANCH  32  33
ATOM     33  O   UNL     1       2.180  17.554  17.734  0.00  0.00    +0.000 OA
ATOM     34  H   UNL     1       1.645  17.331  18.513  0.00  0.00    +0.000 HD
ENDBRANCH  32  33
ENDBRANCH  22  32
ENDBRANCH   9  22
TORSDOF 7
ENDMDL
MODEL 7
REMARK VINA RESULT:      -7.3      4.925      8.739
REMARK  Name = 
REMARK  7 active torsions:
REMARK  status: ('A' for Active; 'I' for Inactive)
REMARK    1  A    between atoms: C_2  and  C_3
REMARK    2  A    between atoms: C_9  and  N_10
REMARK    3  A    between atoms: N_18  and  CA_19
REMARK    4  A    between atoms: CA_19  and  C_20
REMARK    5  A    between atoms: CA_19  and  C_22
REMARK    6  A    between atoms: C_20  and  O_21
REMARK    7  A    between atoms: C_25  and  C_26
REMARK                            x       y       z     vdW  Elec       q    Type
REMARK                         _______ _______ _______ _____ _____    ______ ____
ROOT
ATOM      1  N   UNL     1       2.505   6.368  18.506  0.00  0.00    +0.000 N 
ATOM      2  C   UNL     1       1.792   5.463  19.413  0.00  0.00    +0.000 C 
ATOM      3  C   UNL     1       1.847   6.037  20.828  0.00  0.00    +0.000 C 
ATOM      4  C   UNL     1       1.559   7.511  20.876  0.00  0.00    +0.000 A 
ATOM      5  N   UNL     1       1.297   8.024  22.097  0.00  0.00    +0.000 NA
ATOM      6  C   UNL     1       1.017   9.329  22.140  0.00  0.00    +0.000 A 
ATOM      7  N   UNL     1       0.947  10.153  21.088  0.00  0.00    +0.000 NA
ATOM      8  C   UNL     1       1.191   9.612  19.881  0.00  0.00    +0.000 A 
ATOM      9  N   UNL     1       1.064  10.414  18.738  0.00  0.00    +0.000 N 
ATOM     10  C   UNL     1       1.580   8.287  19.726  0.00  0.00    +0.000 A 
ATOM     11  C   UNL     1       1.873   7.696  18.376  0.00  0.00    +0.000 C 
ATOM     12  H   UNL     1       1.996  10.709  18.457  0.00  0.00    +0.000 HD
ENDROOT
BRANCH   1  19
ATOM     13  C   UNL     1       3.753   4.686  17.155  0.00  0.00    +0.000 A 
ATOM     14  C   UNL     1       4.868   4.393  16.342  0.00  0.00    +0.000 A 
ATOM     15  C   UNL     1       5.786   5.383  16.019  0.00  0.00    +0.000 A 
ATOM     16 CL   UNL     1       7.129   5.017  15.013  0.00  0.00    +0.000 Cl
ATOM     17  C   UNL     1       5.616   6.666  16.508  0.00  0.00    +0.000 A 
ATOM     18  C   UNL     1       4.519   6.953  17.329  0.00  0.00    +0.000 A 
ATOM     19  C   UNL     1       3.548   5.986  17.677  0.00  0.00    +0.000 A 
BRANCH  13  21
ATOM     20  N   UNL     1       2.102   2.712  17.504  0.00  0.00    +0.000 NA
ATOM     21  C   UNL     1       2.830   3.605  17.361  0.00  0.00    +0.000 C 
ENDBRANCH  13  21
ENDBRANCH   1  19
BRANCH   9  22
ATOM     22  CA  UNL     1       0.149  11.564  18.845  0.00  0.00    +0.000 C 
BRANCH  22  23
ATOM     23  C   UNL     1       0.966  12.839  18.664  0.00  0.00    +0.000 A 
ATOM     24  C   UNL     1       2.314  12.824  18.277  0.00  0.00    +0.000 A 
ATOM     25  C   UNL     1       3.006  14.018  18.095  0.00  0.00    +0.000 A 
ATOM     26  C   UNL     1       2.336  15.220  18.296  0.00  0.00    +0.000 A 
ATOM     27  N   UNL     1       1.024  15.265  18.659  0.00  0.00    +0.000 NA
ATOM     28  C   UNL     1       0.377  14.088  18.830  0.00  0.00    +0.000 A 
BRANCH  26  29
ATOM     29  C   UNL     1       3.091  16.520  18.107  0.00  0.00    +0.000 C 
ATOM     30  F   UNL     1       4.438  16.327  17.990  0.00  0.00    +0.000 F 
ATOM     31  F   UNL     1       2.720  17.181  16.972  0.00  0.00    +0.000 F 
ENDBRANCH  26  29
ENDBRANCH  22  23
BRANCH  22  32
ATOM     32  C   UNL     1      -0.999  11.519  17.790  0.00  0.00    +0.000 C 
BRANCH  32  33
ATOM     33  O   UNL     1      -1.120  10.261  17.115  0.00  0.00    +0.000 OA
ATOM     34  H   UNL     1      -1.476   9.620  17.752  0.00  0.00    +0.000 HD
ENDBRANCH  32  33
ENDBRANCH  22  32
ENDBRANCH   9  22
TORSDOF 7
ENDMDL
MODEL 8
REMARK VINA RESULT:      -7.2      4.752      7.562
REMARK  Name = 
REMARK  7 active torsions:
REMARK  status: ('A' for Active; 'I' for Inactive)
REMARK    1  A    between atoms: C_2  and  C_3
REMARK    2  A    between atoms: C_9  and  N_10
REMARK    3  A    between atoms: N_18  and  CA_19
REMARK    4  A    between atoms: CA_19  and  C_20
REMARK    5  A    between atoms: CA_19  and  C_22
REMARK    6  A    between atoms: C_20  and  O_21
REMARK    7  A    between atoms: C_25  and  C_26
REMARK                            x       y       z     vdW  Elec       q    Type
REMARK                         _______ _______ _______ _____ _____    ______ ____
ROOT
ATOM      1  N   UNL     1       2.162  14.149  19.680  0.00  0.00    +0.000 N 
ATOM      2  C   UNL     1       0.971  15.000  19.742  0.00  0.00    +0.000 C 
ATOM      3  C   UNL     1      -0.067  14.474  18.752  0.00  0.00    +0.000 C 
ATOM      4  C   UNL     1      -0.222  12.979  18.803  0.00  0.00    +0.000 A 
ATOM      5  N   UNL     1      -1.311  12.475  18.185  0.00  0.00    +0.000 NA
ATOM      6  C   UNL     1      -1.464  11.150  18.250  0.00  0.00    +0.000 A 
ATOM      7  N   UNL     1      -0.657  10.296  18.889  0.00  0.00    +0.000 NA
ATOM      8  C   UNL     1       0.408  10.827  19.515  0.00  0.00    +0.000 A 
ATOM      9  N   UNL     1       1.249   9.985  20.258  0.00  0.00    +0.000 N 
ATOM     10  C   UNL     1       0.716  12.180  19.439  0.00  0.00    +0.000 A 
ATOM     11  C   UNL     1       1.922  12.760  20.122  0.00  0.00    +0.000 C 
ATOM     12  H   UNL     1       2.067   9.778  19.690  0.00  0.00    +0.000 HD
ENDROOT
BRANCH   1  19
ATOM     13  C   UNL     1       4.381  15.008  20.424  0.00  0.00    +0.000 A 
ATOM     14  C   UNL     1       5.656  15.496  20.068  0.00  0.00    +0.000 A 
ATOM     15  C   UNL     1       6.032  15.581  18.734  0.00  0.00    +0.000 A 
ATOM     16 CL   UNL     1       7.594  16.159  18.315  0.00  0.00    +0.000 Cl
ATOM     17  C   UNL     1       5.146  15.199  17.742  0.00  0.00    +0.000 A 
ATOM     18  C   UNL     1       3.874  14.732  18.094  0.00  0.00    +0.000 A 
ATOM     19  C   UNL     1       3.446  14.612  19.436  0.00  0.00    +0.000 A 
BRANCH  13  21
ATOM     20  N   UNL     1       3.932  14.831  22.975  0.00  0.00    +0.000 NA
ATOM     21  C   UNL     1       4.128  14.891  21.832  0.00  0.00    +0.000 C 
ENDBRANCH  13  21
ENDBRANCH   1  19
BRANCH   9  22
ATOM     22  CA  UNL     1       0.638   8.752  20.786  0.00  0.00    +0.000 C 
BRANCH  22  23
ATOM     23  C   UNL     1       1.472   7.569  20.307  0.00  0.00    +0.000 A 
ATOM     24  C   UNL     1       1.453   6.321  20.947  0.00  0.00    +0.000 A 
ATOM     25  C   UNL     1       2.209   5.264  20.449  0.00  0.00    +0.000 A 
ATOM     26  C   UNL     1       2.976   5.465  19.306  0.00  0.00    +0.000 A 
ATOM     27  N   UNL     1       3.004   6.662  18.656  0.00  0.00    +0.000 NA
ATOM     28  C   UNL     1       2.258   7.673  19.163  0.00  0.00    +0.000 A 
BRANCH  26  29
ATOM     29  C   UNL     1       3.806   4.318  18.769  0.00  0.00    +0.000 C 
ATOM     30  F   UNL     1       4.583   3.742  19.733  0.00  0.00    +0.000 F 
ATOM     31  F   UNL     1       3.040   3.306  18.268  0.00  0.00    +0.000 F 
ENDBRANCH  26  29
ENDBRANCH  22  23
BRANCH  22  32
ATOM     32  C   UNL     1       0.553   8.742  22.343  0.00  0.00    +0.000 C 
BRANCH  32  33
ATOM     33  O   UNL     1      -0.755   9.025  22.856  0.00  0.00    +0.000 OA
ATOM     34  H   UNL     1      -0.649   9.624  23.612  0.00  0.00    +0.000 HD
ENDBRANCH  32  33
ENDBRANCH  22  32
ENDBRANCH   9  22
TORSDOF 7
ENDMDL
MODEL 9
REMARK VINA RESULT:      -7.2      6.037      8.952
REMARK  Name = 
REMARK  7 active torsions:
REMARK  status: ('A' for Active; 'I' for Inactive)
REMARK    1  A    between atoms: C_2  and  C_3
REMARK    2  A    between atoms: C_9  and  N_10
REMARK    3  A    between atoms: N_18  and  CA_19
REMARK    4  A    between atoms: CA_19  and  C_20
REMARK    5  A    between atoms: CA_19  and  C_22
REMARK    6  A    between atoms: C_20  and  O_21
REMARK    7  A    between atoms: C_25  and  C_26
REMARK                            x       y       z     vdW  Elec       q    Type
REMARK                         _______ _______ _______ _____ _____    ______ ____
ROOT
ATOM      1  N   UNL     1       0.841  10.351  18.833  0.00  0.00    +0.000 N 
ATOM      2  C   UNL     1      -0.543  10.614  18.426  0.00  0.00    +0.000 C 
ATOM      3  C   UNL     1      -1.157  11.632  19.385  0.00  0.00    +0.000 C 
ATOM      4  C   UNL     1      -0.241  12.786  19.683  0.00  0.00    +0.000 A 
ATOM      5  N   UNL     1      -0.811  13.858  20.272  0.00  0.00    +0.000 NA
ATOM      6  C   UNL     1      -0.005  14.894  20.516  0.00  0.00    +0.000 A 
ATOM      7  N   UNL     1       1.294  14.970  20.204  0.00  0.00    +0.000 NA
ATOM      8  C   UNL     1       1.832  13.897  19.597  0.00  0.00    +0.000 A 
ATOM      9  N   UNL     1       3.171  13.949  19.186  0.00  0.00    +0.000 N 
ATOM     10  C   UNL     1       1.111  12.730  19.376  0.00  0.00    +0.000 A 
ATOM     11  C   UNL     1       1.726  11.527  18.719  0.00  0.00    +0.000 C 
ATOM     12  H   UNL     1       3.732  13.459  19.880  0.00  0.00    +0.000 HD
ENDROOT
BRANCH   1  19
ATOM     13  C   UNL     1       1.280   8.424  20.352  0.00  0.00    +0.000 A 
ATOM     14  C   UNL     1       1.863   7.152  20.534  0.00  0.00    +0.000 A 
ATOM     15  C   UNL     1       2.508   6.515  19.483  0.00  0.00    +0.000 A 
ATOM     16 CL   UNL     1       3.197   4.958  19.713  0.00  0.00    +0.000 Cl
ATOM     17  C   UNL     1       2.595   7.135  18.250  0.00  0.00    +0.000 A 
ATOM     18  C   UNL     1       2.032   8.405  18.073  0.00  0.00    +0.000 A 
ATOM     19  C   UNL     1       1.353   9.092  19.106  0.00  0.00    +0.000 A 
BRANCH  13  21
ATOM     20  N   UNL     1       0.004   9.351  22.415  0.00  0.00    +0.000 NA
ATOM     21  C   UNL     1       0.574   8.955  21.484  0.00  0.00    +0.000 C 
ENDBRANCH  13  21
ENDBRANCH   1  19
BRANCH   9  22
ATOM     22  CA  UNL     1       3.718  15.289  18.908  0.00  0.00    +0.000 C 
BRANCH  22  23
ATOM     23  C   UNL     1       5.239  15.184  18.883  0.00  0.00    +0.000 A 
ATOM     24  C   UNL     1       6.035  15.460  20.004  0.00  0.00    +0.000 A 
ATOM     25  C   UNL     1       7.418  15.316  19.937  0.00  0.00    +0.000 A 
ATOM     26  C   UNL     1       7.992  14.890  18.744  0.00  0.00    +0.000 A 
ATOM     27  N   UNL     1       7.244  14.602  17.644  0.00  0.00    +0.000 NA
ATOM     28  C   UNL     1       5.900  14.751  17.738  0.00  0.00    +0.000 A 
BRANCH  26  29
ATOM     29  C   UNL     1       9.498  14.742  18.668  0.00  0.00    +0.000 C 
ATOM     30  F   UNL     1       9.876  13.584  18.050  0.00  0.00    +0.000 F 
ATOM     31  F   UNL     1      10.087  15.744  17.952  0.00  0.00    +0.000 F 
ENDBRANCH  26  29
ENDBRANCH  22  23
BRANCH  22  32
ATOM     32  C   UNL     1       3.208  15.878  17.557  0.00  0.00    +0.000 C 
BRANCH  32  33
ATOM     33  O   UNL     1       3.165  17.310  17.526  0.00  0.00    +0.000 OA
ATOM     34  H   UNL     1       2.914  17.576  16.627  0.00  0.00    +0.000 HD
ENDBRANCH  32  33
ENDBRANCH  22  32
ENDBRANCH   9  22
TORSDOF 7
ENDMDL
