MODEL 1
REMARK VINA RESULT:      -7.4      0.000      0.000
REMARK  Name = 
REMARK  4 active torsions:
REMARK  status: ('A' for Active; 'I' for Inactive)
REMARK    1  A    between atoms: C_1  and  C_2
REMARK    2  A    between atoms: C_8  and  C_9
REMARK    3  A    between atoms: C_9  and  C_10
REMARK    4  A    between atoms: C_16  and  C_17
REMARK                            x       y       z     vdW  Elec       q    Type
REMARK                         _______ _______ _______ _____ _____    ______ ____
ROOT
ATOM      1  C   UNL     1       0.255   8.516  21.547  0.00  0.00    +0.000 C 
ATOM      2  C   UNL     1       1.010   8.919  20.306  0.00  0.00    +0.000 A 
ATOM      3  C   UNL     1       1.097  10.221  19.952  0.00  0.00    +0.000 A 
ATOM      4  C   UNL     1       1.821  10.660  18.764  0.00  0.00    +0.000 A 
ATOM      5 BR   UNL     1       1.930  12.487  18.430  0.00  0.00    +0.000 Br
ATOM      6  C   UNL     1       2.416   9.740  17.985  0.00  0.00    +0.000 A 
ATOM      7  N   UNL     1       2.371   8.398  18.350  0.00  0.00    +0.000 N 
ATOM      8  C   UNL     1       3.022   7.292  17.807  0.00  0.00    +0.000 A 
ATOM      9  C   UNL     1       2.765   6.262  18.713  0.00  0.00    +0.000 A 
ATOM     10  N   UNL     1       1.871   6.675  19.674  0.00  0.00    +0.000 NA
ATOM     11  C   UNL     1       1.695   7.959  19.485  0.00  0.00    +0.000 A 
ENDROOT
BRANCH   9  12
ATOM     12  C   UNL     1       3.358   4.879  18.873  0.00  0.00    +0.000 C 
ATOM     13  C   UNL     1       2.941   3.967  17.706  0.00  0.00    +0.000 C 
ATOM     14  C   UNL     1       3.362   2.511  17.904  0.00  0.00    +0.000 C 
ATOM     15  C   UNL     1       2.855   1.951  19.227  0.00  0.00    +0.000 C 
ATOM     16  C   UNL     1       3.329   2.805  20.397  0.00  0.00    +0.000 C 
ATOM     17  C   UNL     1       2.914   4.265  20.227  0.00  0.00    +0.000 C 
ENDBRANCH   9  12
BRANCH   8  18
ATOM     18  C   UNL     1       3.978   7.386  16.651  0.00  0.00    +0.000 C 
BRANCH  18  19
ATOM     19  C   UNL     1       5.213   6.497  16.639  0.00  0.00    +0.000 A 
ATOM     20  C   UNL     1       6.176   6.662  17.657  0.00  0.00    +0.000 A 
ATOM     21  C   UNL     1       7.223   5.747  17.829  0.00  0.00    +0.000 A 
ATOM     22  C   UNL     1       7.329   4.648  16.986  0.00  0.00    +0.000 A 
ATOM     23  C   UNL     1       6.402   4.481  15.954  0.00  0.00    +0.000 A 
ATOM     24  C   UNL     1       5.353   5.397  15.782  0.00  0.00    +0.000 A 
ENDBRANCH  18  19
ENDBRANCH   8  18
TORSDOF 3
ENDMDL
MODEL 2
REMARK VINA RESULT:      -7.4      0.814      1.306
REMARK  Name = 
REMARK  4 active torsions:
REMARK  status: ('A' for Active; 'I' for Inactive)
REMARK    1  A    between atoms: C_1  and  C_2
REMARK    2  A    between atoms: C_8  and  C_9
REMARK    3  A    between atoms: C_9  and  C_10
REMARK    4  A    between atoms: C_16  and  C_17
REMARK                            x       y       z     vdW  Elec       q    Type
REMARK                         _______ _______ _______ _____ _____    ______ ____
ROOT
ATOM      1  C   UNL     1       0.178   9.287  22.038  0.00  0.00    +0.000 C 
ATOM      2  C   UNL     1       0.889   9.433  20.717  0.00  0.00    +0.000 A 
ATOM      3  C   UNL     1       1.082  10.657  20.177  0.00  0.00    +0.000 A 
ATOM      4  C   UNL     1       1.769  10.849  18.904  0.00  0.00    +0.000 A 
ATOM      5 BR   UNL     1       2.037  12.592  18.308  0.00  0.00    +0.000 Br
ATOM      6  C   UNL     1       2.218   9.773  18.236  0.00  0.00    +0.000 A 
ATOM      7  N   UNL     1       2.063   8.506  18.790  0.00  0.00    +0.000 N 
ATOM      8  C   UNL     1       2.565   7.273  18.379  0.00  0.00    +0.000 A 
ATOM      9  C   UNL     1       2.265   6.410  19.435  0.00  0.00    +0.000 A 
ATOM     10  N   UNL     1       1.481   7.044  20.370  0.00  0.00    +0.000 NA
ATOM     11  C   UNL     1       1.421   8.301  20.008  0.00  0.00    +0.000 A 
ENDROOT
BRANCH   9  12
ATOM     12  C   UNL     1       2.727   5.007  19.761  0.00  0.00    +0.000 C 
ATOM     13  C   UNL     1       2.263   4.013  18.681  0.00  0.00    +0.000 C 
ATOM     14  C   UNL     1       2.546   2.556  19.047  0.00  0.00    +0.000 C 
ATOM     15  C   UNL     1       1.954   2.188  20.401  0.00  0.00    +0.000 C 
ATOM     16  C   UNL     1       2.470   3.119  21.492  0.00  0.00    +0.000 C 
ATOM     17  C   UNL     1       2.192   4.582  21.154  0.00  0.00    +0.000 C 
ENDBRANCH   9  12
BRANCH   8  18
ATOM     18  C   UNL     1       3.451   7.105  17.176  0.00  0.00    +0.000 C 
BRANCH  18  19
ATOM     19  C   UNL     1       4.694   6.234  17.289  0.00  0.00    +0.000 A 
ATOM     20  C   UNL     1       4.865   5.177  16.371  0.00  0.00    +0.000 A 
ATOM     21  C   UNL     1       6.073   4.473  16.282  0.00  0.00    +0.000 A 
ATOM     22  C   UNL     1       7.135   4.811  17.110  0.00  0.00    +0.000 A 
ATOM     23  C   UNL     1       6.977   5.837  18.046  0.00  0.00    +0.000 A 
ATOM     24  C   UNL     1       5.767   6.542  18.135  0.00  0.00    +0.000 A 
ENDBRANCH  18  19
ENDBRANCH   8  18
TORSDOF 3
ENDMDL
MODEL 3
REMARK VINA RESULT:      -7.3      1.213      1.397
REMARK  Name = 
REMARK  4 active torsions:
REMARK  status: ('A' for Active; 'I' for Inactive)
REMARK    1  A    between atoms: C_1  and  C_2
REMARK    2  A    between atoms: C_8  and  C_9
REMARK    3  A    between atoms: C_9  and  C_10
REMARK    4  A    between atoms: C_16  and  C_17
REMARK                            x       y       z     vdW  Elec       q    Type
REMARK                         _______ _______ _______ _____ _____    ______ ____
ROOT
ATOM      1  C   UNL     1       0.027   9.230  21.793  0.00  0.00    +0.000 C 
ATOM      2  C   UNL     1       0.850   9.321  20.533  0.00  0.00    +0.000 A 
ATOM      3  C   UNL     1       1.108  10.523  19.971  0.00  0.00    +0.000 A 
ATOM      4  C   UNL     1       1.904  10.663  18.756  0.00  0.00    +0.000 A 
ATOM      5 BR   UNL     1       2.252  12.380  18.129  0.00  0.00    +0.000 Br
ATOM      6  C   UNL     1       2.391   9.558  18.165  0.00  0.00    +0.000 A 
ATOM      7  N   UNL     1       2.168   8.313  18.745  0.00  0.00    +0.000 N 
ATOM      8  C   UNL     1       2.683   7.059  18.419  0.00  0.00    +0.000 A 
ATOM      9  C   UNL     1       2.279   6.238  19.473  0.00  0.00    +0.000 A 
ATOM     10  N   UNL     1       1.428   6.914  20.316  0.00  0.00    +0.000 NA
ATOM     11  C   UNL     1       1.421   8.159  19.910  0.00  0.00    +0.000 A 
ENDROOT
BRANCH   9  12
ATOM     12  C   UNL     1       2.688   4.840  19.883  0.00  0.00    +0.000 C 
ATOM     13  C   UNL     1       2.233   3.807  18.836  0.00  0.00    +0.000 C 
ATOM     14  C   UNL     1       2.460   2.363  19.282  0.00  0.00    +0.000 C 
ATOM     15  C   UNL     1       1.810   2.078  20.630  0.00  0.00    +0.000 C 
ATOM     16  C   UNL     1       2.315   3.047  21.692  0.00  0.00    +0.000 C 
ATOM     17  C   UNL     1       2.092   4.499  21.274  0.00  0.00    +0.000 C 
ENDBRANCH   9  12
BRANCH   8  18
ATOM     18  C   UNL     1       3.664   6.838  17.302  0.00  0.00    +0.000 C 
BRANCH  18  19
ATOM     19  C   UNL     1       5.116   6.535  17.644  0.00  0.00    +0.000 A 
ATOM     20  C   UNL     1       6.124   7.368  17.113  0.00  0.00    +0.000 A 
ATOM     21  C   UNL     1       7.451   7.279  17.550  0.00  0.00    +0.000 A 
ATOM     22  C   UNL     1       7.800   6.353  18.525  0.00  0.00    +0.000 A 
ATOM     23  C   UNL     1       6.823   5.500  19.044  0.00  0.00    +0.000 A 
ATOM     24  C   UNL     1       5.492   5.590  18.607  0.00  0.00    +0.000 A 
ENDBRANCH  18  19
ENDBRANCH   8  18
TORSDOF 3
ENDMDL
MODEL 4
REMARK VINA RESULT:      -7.2      1.667      4.382
REMARK  Name = 
REMARK  4 active torsions:
REMARK  status: ('A' for Active; 'I' for Inactive)
REMARK    1  A    between atoms: C_1  and  C_2
REMARK    2  A    between atoms: C_8  and  C_9
REMARK    3  A    between atoms: C_9  and  C_10
REMARK    4  A    between atoms: C_16  and  C_17
REMARK                            x       y       z     vdW  Elec       q    Type
REMARK                         _______ _______ _______ _____ _____    ______ ____
ROOT
ATOM      1  C   UNL     1       1.555  10.534  17.725  0.00  0.00    +0.000 C 
ATOM      2  C   UNL     1       1.520   9.536  18.855  0.00  0.00    +0.000 A 
ATOM      3  C   UNL     1       0.688   9.721  19.904  0.00  0.00    +0.000 A 
ATOM      4  C   UNL     1       0.615   8.779  21.017  0.00  0.00    +0.000 A 
ATOM      5 BR   UNL     1      -0.628   9.110  22.362  0.00  0.00    +0.000 Br
ATOM      6  C   UNL     1       1.408   7.695  21.007  0.00  0.00    +0.000 A 
ATOM      7  N   UNL     1       2.246   7.466  19.920  0.00  0.00    +0.000 N 
ATOM      8  C   UNL     1       3.036   6.361  19.606  0.00  0.00    +0.000 A 
ATOM      9  C   UNL     1       3.473   6.611  18.304  0.00  0.00    +0.000 A 
ATOM     10  N   UNL     1       3.103   7.873  17.902  0.00  0.00    +0.000 NA
ATOM     11  C   UNL     1       2.324   8.345  18.843  0.00  0.00    +0.000 A 
ENDROOT
BRANCH   9  12
ATOM     12  C   UNL     1       4.151   5.732  17.275  0.00  0.00    +0.000 C 
ATOM     13  C   UNL     1       5.316   4.950  17.905  0.00  0.00    +0.000 C 
ATOM     14  C   UNL     1       6.148   4.183  16.878  0.00  0.00    +0.000 C 
ATOM     15  C   UNL     1       6.655   5.095  15.767  0.00  0.00    +0.000 C 
ATOM     16  C   UNL     1       5.499   5.814  15.084  0.00  0.00    +0.000 C 
ATOM     17  C   UNL     1       4.656   6.596  16.089  0.00  0.00    +0.000 C 
ENDBRANCH   9  12
BRANCH   8  18
ATOM     18  C   UNL     1       3.097   5.124  20.457  0.00  0.00    +0.000 C 
BRANCH  18  19
ATOM     19  C   UNL     1       2.529   3.822  19.911  0.00  0.00    +0.000 A 
ATOM     20  C   UNL     1       1.142   3.739  19.664  0.00  0.00    +0.000 A 
ATOM     21  C   UNL     1       0.586   2.657  18.971  0.00  0.00    +0.000 A 
ATOM     22  C   UNL     1       1.404   1.634  18.510  0.00  0.00    +0.000 A 
ATOM     23  C   UNL     1       2.777   1.683  18.768  0.00  0.00    +0.000 A 
ATOM     24  C   UNL     1       3.334   2.767  19.462  0.00  0.00    +0.000 A 
ENDBRANCH  18  19
ENDBRANCH   8  18
TORSDOF 3
ENDMDL
MODEL 5
REMARK VINA RESULT:      -6.7      4.082      7.597
REMARK  Name = 
REMARK  4 active torsions:
REMARK  status: ('A' for Active; 'I' for Inactive)
REMARK    1  A    between atoms: C_1  and  C_2
REMARK    2  A    between atoms: C_8  and  C_9
REMARK    3  A    between atoms: C_9  and  C_10
REMARK    4  A    between atoms: C_16  and  C_17
REMARK                            x       y       z     vdW  Elec       q    Type
REMARK                         _______ _______ _______ _____ _____    ______ ____
ROOT
ATOM      1  C   UNL     1       3.516  14.367  19.165  0.00  0.00    +0.000 C 
ATOM      2  C   UNL     1       2.010  14.410  19.212  0.00  0.00    +0.000 A 
ATOM      3  C   UNL     1       1.352  15.569  18.987  0.00  0.00    +0.000 A 
ATOM      4  C   UNL     1      -0.104  15.659  19.017  0.00  0.00    +0.000 A 
ATOM      5 BR   UNL     1      -0.889  17.297  18.614  0.00  0.00    +0.000 Br
ATOM      6  C   UNL     1      -0.820  14.554  19.287  0.00  0.00    +0.000 A 
ATOM      7  N   UNL     1      -0.166  13.342  19.485  0.00  0.00    +0.000 N 
ATOM      8  C   UNL     1      -0.676  12.052  19.626  0.00  0.00    +0.000 A 
ATOM      9  C   UNL     1       0.451  11.230  19.577  0.00  0.00    +0.000 A 
ATOM     10  N   UNL     1       1.601  11.984  19.569  0.00  0.00    +0.000 NA
ATOM     11  C   UNL     1       1.221  13.232  19.451  0.00  0.00    +0.000 A 
ENDROOT
BRANCH   9  12
ATOM     12  C   UNL     1       0.608   9.733  19.426  0.00  0.00    +0.000 C 
ATOM     13  C   UNL     1       1.109   9.100  20.736  0.00  0.00    +0.000 C 
ATOM     14  C   UNL     1       1.456   7.618  20.591  0.00  0.00    +0.000 C 
ATOM     15  C   UNL     1       2.456   7.380  19.467  0.00  0.00    +0.000 C 
ATOM     16  C   UNL     1       1.933   7.934  18.147  0.00  0.00    +0.000 C 
ATOM     17  C   UNL     1       1.586   9.417  18.263  0.00  0.00    +0.000 C 
ENDBRANCH   9  12
BRANCH   8  18
ATOM     18  C   UNL     1      -2.144  11.737  19.558  0.00  0.00    +0.000 C 
BRANCH  18  19
ATOM     19  C   UNL     1      -2.735  11.251  18.243  0.00  0.00    +0.000 A 
ATOM     20  C   UNL     1      -4.057  11.623  17.917  0.00  0.00    +0.000 A 
ATOM     21  C   UNL     1      -4.588  11.392  16.642  0.00  0.00    +0.000 A 
ATOM     22  C   UNL     1      -3.810  10.783  15.666  0.00  0.00    +0.000 A 
ATOM     23  C   UNL     1      -2.508  10.382  15.976  0.00  0.00    +0.000 A 
ATOM     24  C   UNL     1      -1.976  10.614  17.253  0.00  0.00    +0.000 A 
ENDBRANCH  18  19
ENDBRANCH   8  18
TORSDOF 3
ENDMDL
MODEL 6
REMARK VINA RESULT:      -6.6      2.594      5.307
REMARK  Name = 
REMARK  4 active torsions:
REMARK  status: ('A' for Active; 'I' for Inactive)
REMARK    1  A    between atoms: C_1  and  C_2
REMARK    2  A    between atoms: C_8  and  C_9
REMARK    3  A    between atoms: C_9  and  C_10
REMARK    4  A    between atoms: C_16  and  C_17
REMARK                            x       y       z     vdW  Elec       q    Type
REMARK                         _______ _______ _______ _____ _____    ______ ____
ROOT
ATOM      1  C   UNL     1       1.332   3.264  21.811  0.00  0.00    +0.000 C 
ATOM      2  C   UNL     1       2.166   3.546  20.587  0.00  0.00    +0.000 A 
ATOM      3  C   UNL     1       2.636   2.529  19.831  0.00  0.00    +0.000 A 
ATOM      4  C   UNL     1       3.442   2.753  18.635  0.00  0.00    +0.000 A 
ATOM      5 BR   UNL     1       3.963   1.270  17.640  0.00  0.00    +0.000 Br
ATOM      6  C   UNL     1       3.738   4.014  18.275  0.00  0.00    +0.000 A 
ATOM      7  N   UNL     1       3.235   5.077  19.017  0.00  0.00    +0.000 N 
ATOM      8  C   UNL     1       3.269   6.448  18.769  0.00  0.00    +0.000 A 
ATOM      9  C   UNL     1       2.423   6.994  19.736  0.00  0.00    +0.000 A 
ATOM     10  N   UNL     1       2.019   6.027  20.627  0.00  0.00    +0.000 NA
ATOM     11  C   UNL     1       2.455   4.886  20.155  0.00  0.00    +0.000 A 
ENDROOT
BRANCH   9  12
ATOM     12  C   UNL     1       1.818   8.372  19.894  0.00  0.00    +0.000 C 
ATOM     13  C   UNL     1       0.758   8.379  21.009  0.00  0.00    +0.000 C 
ATOM     14  C   UNL     1      -0.013   9.697  21.094  0.00  0.00    +0.000 C 
ATOM     15  C   UNL     1      -0.642  10.070  19.758  0.00  0.00    +0.000 C 
ATOM     16  C   UNL     1       0.414  10.142  18.661  0.00  0.00    +0.000 C 
ATOM     17  C   UNL     1       1.194   8.834  18.551  0.00  0.00    +0.000 C 
ENDBRANCH   9  12
BRANCH   8  18
ATOM     18  C   UNL     1       3.894   7.046  17.540  0.00  0.00    +0.000 C 
BRANCH  18  19
ATOM     19  C   UNL     1       5.148   6.406  16.962  0.00  0.00    +0.000 A 
ATOM     20  C   UNL     1       6.281   6.269  17.791  0.00  0.00    +0.000 A 
ATOM     21  C   UNL     1       7.388   5.507  17.397  0.00  0.00    +0.000 A 
ATOM     22  C   UNL     1       7.386   4.867  16.164  0.00  0.00    +0.000 A 
ATOM     23  C   UNL     1       6.286   5.013  15.316  0.00  0.00    +0.000 A 
ATOM     24  C   UNL     1       5.176   5.776  15.711  0.00  0.00    +0.000 A 
ENDBRANCH  18  19
ENDBRANCH   8  18
TORSDOF 3
ENDMDL
MODEL 7
REMARK VINA RESULT:      -6.6      4.500      8.031
REMARK  Name = 
REMARK  4 active torsions:
REMARK  status: ('A' for Active; 'I' for Inactive)
REMARK    1  A    between atoms: C_1  and  C_2
REMARK    2  A    between atoms: C_8  and  C_9
REMARK    3  A    between atoms: C_9  and  C_10
REMARK    4  A    between atoms: C_16  and  C_17
REMARK                            x       y       z     vdW  Elec       q    Type
REMARK                         _______ _______ _______ _____ _____    ______ ____
ROOT
ATOM      1  C   UNL     1      -5.653  12.084  18.589  0.00  0.00    +0.000 C 
ATOM      2  C   UNL     1      -4.392  11.557  17.952  0.00  0.00    +0.000 A 
ATOM      3  C   UNL     1      -4.404  11.117  16.674  0.00  0.00    +0.000 A 
ATOM      4  C   UNL     1      -3.209  10.604  16.013  0.00  0.00    +0.000 A 
ATOM      5 BR   UNL     1      -3.343  10.102  14.227  0.00  0.00    +0.000 Br
ATOM      6  C   UNL     1      -2.054  10.556  16.700  0.00  0.00    +0.000 A 
ATOM      7  N   UNL     1      -2.010  11.037  18.005  0.00  0.00    +0.000 N 
ATOM      8  C   UNL     1      -0.925  11.234  18.858  0.00  0.00    +0.000 A 
ATOM      9  C   UNL     1      -1.462  11.934  19.940  0.00  0.00    +0.000 A 
ATOM     10  N   UNL     1      -2.831  12.020  19.830  0.00  0.00    +0.000 NA
ATOM     11  C   UNL     1      -3.136  11.540  18.650  0.00  0.00    +0.000 A 
ENDROOT
BRANCH   9  12
ATOM     12  C   UNL     1      -0.817  12.672  21.092  0.00  0.00    +0.000 C 
ATOM     13  C   UNL     1      -1.791  12.799  22.276  0.00  0.00    +0.000 C 
ATOM     14  C   UNL     1      -1.258  13.688  23.399  0.00  0.00    +0.000 C 
ATOM     15  C   UNL     1      -0.859  15.066  22.887  0.00  0.00    +0.000 C 
ATOM     16  C   UNL     1       0.167  14.953  21.766  0.00  0.00    +0.000 C 
ATOM     17  C   UNL     1      -0.345  14.075  20.626  0.00  0.00    +0.000 C 
ENDBRANCH   9  12
BRANCH   8  18
ATOM     18  C   UNL     1       0.496  10.953  18.460  0.00  0.00    +0.000 C 
BRANCH  18  19
ATOM     19  C   UNL     1       1.186   9.713  19.008  0.00  0.00    +0.000 A 
ATOM     20  C   UNL     1       0.907   9.313  20.333  0.00  0.00    +0.000 A 
ATOM     21  C   UNL     1       1.338   8.076  20.829  0.00  0.00    +0.000 A 
ATOM     22  C   UNL     1       2.058   7.213  20.013  0.00  0.00    +0.000 A 
ATOM     23  C   UNL     1       2.369   7.602  18.708  0.00  0.00    +0.000 A 
ATOM     24  C   UNL     1       1.937   8.840  18.209  0.00  0.00    +0.000 A 
ENDBRANCH  18  19
ENDBRANCH   8  18
TORSDOF 3
ENDMDL
MODEL 8
REMARK VINA RESULT:      -6.6      5.913      9.971
REMARK  Name = 
REMARK  4 active torsions:
REMARK  status: ('A' for Active; 'I' for Inactive)
REMARK    1  A    between atoms: C_1  and  C_2
REMARK    2  A    between atoms: C_8  and  C_9
REMARK    3  A    between atoms: C_9  and  C_10
REMARK    4  A    between atoms: C_16  and  C_17
REMARK                            x       y       z     vdW  Elec       q    Type
REMARK                         _______ _______ _______ _____ _____    ______ ____
ROOT
ATOM      1  C   UNL     1      -6.919  12.482  17.886  0.00  0.00    +0.000 C 
ATOM      2  C   UNL     1      -5.479  12.035  17.836  0.00  0.00    +0.000 A 
ATOM      3  C   UNL     1      -4.991  11.427  16.732  0.00  0.00    +0.000 A 
ATOM      4  C   UNL     1      -3.605  10.982  16.635  0.00  0.00    +0.000 A 
ATOM      5 BR   UNL     1      -3.038  10.227  15.031  0.00  0.00    +0.000 Br
ATOM      6  C   UNL     1      -2.784  11.173  17.682  0.00  0.00    +0.000 A 
ATOM      7  N   UNL     1      -3.254  11.830  18.814  0.00  0.00    +0.000 N 
ATOM      8  C   UNL     1      -2.576  12.277  19.947  0.00  0.00    +0.000 A 
ATOM      9  C   UNL     1      -3.519  13.045  20.631  0.00  0.00    +0.000 A 
ATOM     10  N   UNL     1      -4.754  12.943  20.033  0.00  0.00    +0.000 NA
ATOM     11  C   UNL     1      -4.570  12.272  18.923  0.00  0.00    +0.000 A 
ENDROOT
BRANCH   9  12
ATOM     12  C   UNL     1      -3.394  14.010  21.790  0.00  0.00    +0.000 C 
ATOM     13  C   UNL     1      -3.541  13.273  23.133  0.00  0.00    +0.000 C 
ATOM     14  C   UNL     1      -3.601  14.219  24.332  0.00  0.00    +0.000 C 
ATOM     15  C   UNL     1      -4.699  15.263  24.173  0.00  0.00    +0.000 C 
ATOM     16  C   UNL     1      -4.516  16.052  22.883  0.00  0.00    +0.000 C 
ATOM     17  C   UNL     1      -4.461  15.129  21.667  0.00  0.00    +0.000 C 
ENDBRANCH   9  12
BRANCH   8  18
ATOM     18  C   UNL     1      -1.092  12.125  20.130  0.00  0.00    +0.000 C 
BRANCH  18  19
ATOM     19  C   UNL     1      -0.562  10.928  20.906  0.00  0.00    +0.000 A 
ATOM     20  C   UNL     1       0.302  10.025  20.250  0.00  0.00    +0.000 A 
ATOM     21  C   UNL     1       0.989   9.028  20.954  0.00  0.00    +0.000 A 
ATOM     22  C   UNL     1       0.826   8.911  22.328  0.00  0.00    +0.000 A 
ATOM     23  C   UNL     1      -0.046   9.777  22.993  0.00  0.00    +0.000 A 
ATOM     24  C   UNL     1      -0.735  10.776  22.288  0.00  0.00    +0.000 A 
ENDBRANCH  18  19
ENDBRANCH   8  18
TORSDOF 3
ENDMDL
MODEL 9
REMARK VINA RESULT:      -6.5      1.754      4.550
REMARK  Name = 
REMARK  4 active torsions:
REMARK  status: ('A' for Active; 'I' for Inactive)
REMARK    1  A    between atoms: C_1  and  C_2
REMARK    2  A    between atoms: C_8  and  C_9
REMARK    3  A    between atoms: C_9  and  C_10
REMARK    4  A    between atoms: C_16  and  C_17
REMARK                            x       y       z     vdW  Elec       q    Type
REMARK                         _______ _______ _______ _____ _____    ______ ____
ROOT
ATOM      1  C   UNL     1       1.475  10.706  17.635  0.00  0.00    +0.000 C 
ATOM      2  C   UNL     1       1.577   9.605  18.660  0.00  0.00    +0.000 A 
ATOM      3  C   UNL     1       0.742   9.581  19.723  0.00  0.00    +0.000 A 
ATOM      4  C   UNL     1       0.798   8.534  20.737  0.00  0.00    +0.000 A 
ATOM      5 BR   UNL     1      -0.459   8.574  22.109  0.00  0.00    +0.000 Br
ATOM      6  C   UNL     1       1.719   7.562  20.620  0.00  0.00    +0.000 A 
ATOM      7  N   UNL     1       2.565   7.545  19.516  0.00  0.00    +0.000 N 
ATOM      8  C   UNL     1       3.481   6.583  19.093  0.00  0.00    +0.000 A 
ATOM      9  C   UNL     1       3.868   7.011  17.823  0.00  0.00    +0.000 A 
ATOM     10  N   UNL     1       3.340   8.251  17.548  0.00  0.00    +0.000 NA
ATOM     11  C   UNL     1       2.521   8.528  18.531  0.00  0.00    +0.000 A 
ENDROOT
BRANCH   9  12
ATOM     12  C   UNL     1       4.635   6.328  16.712  0.00  0.00    +0.000 C 
ATOM     13  C   UNL     1       4.288   4.830  16.647  0.00  0.00    +0.000 C 
ATOM     14  C   UNL     1       5.162   4.054  15.663  0.00  0.00    +0.000 C 
ATOM     15  C   UNL     1       6.646   4.246  15.953  0.00  0.00    +0.000 C 
ATOM     16  C   UNL     1       7.015   5.725  15.940  0.00  0.00    +0.000 C 
ATOM     17  C   UNL     1       6.160   6.522  16.922  0.00  0.00    +0.000 C 
ENDBRANCH   9  12
BRANCH   8  18
ATOM     18  C   UNL     1       3.703   5.285  19.818  0.00  0.00    +0.000 C 
BRANCH  18  19
ATOM     19  C   UNL     1       2.535   4.325  19.990  0.00  0.00    +0.000 A 
ATOM     20  C   UNL     1       1.846   3.885  18.840  0.00  0.00    +0.000 A 
ATOM     21  C   UNL     1       0.906   2.849  18.902  0.00  0.00    +0.000 A 
ATOM     22  C   UNL     1       0.634   2.230  20.116  0.00  0.00    +0.000 A 
ATOM     23  C   UNL     1       1.285   2.669  21.271  0.00  0.00    +0.000 A 
ATOM     24  C   UNL     1       2.227   3.707  21.209  0.00  0.00    +0.000 A 
ENDBRANCH  18  19
ENDBRANCH   8  18
TORSDOF 3
ENDMDL
