MODEL 1
REMARK VINA RESULT:      -6.9      0.000      0.000
REMARK  Name = 
REMARK  6 active torsions:
REMARK  status: ('A' for Active; 'I' for Inactive)
REMARK    1  A    between atoms: C_1  and  C_2
REMARK    2  A    between atoms: C_2  and  C_3
REMARK    3  A    between atoms: C_2  and  C_4
REMARK    4  A    between atoms: C_6  and  C_7
REMARK    5  A    between atoms: C_18  and  O_19
REMARK    6  A    between atoms: C_21  and  O_22
REMARK                            x       y       z     vdW  Elec       q    Type
REMARK                         _______ _______ _______ _____ _____    ______ ____
ROOT
ATOM      1  C   UNL     1       5.965   4.197  14.305  0.00  0.00    +0.000 A 
ATOM      2  C   UNL     1       5.044   3.538  15.136  0.00  0.00    +0.000 A 
ATOM      3  C   UNL     1       5.126   3.638  16.533  0.00  0.00    +0.000 A 
ATOM      4  C   UNL     1       6.246   4.246  17.105  0.00  0.00    +0.000 A 
ATOM      5  C   UNL     1       7.191   4.882  16.304  0.00  0.00    +0.000 A 
ATOM      6  C   UNL     1       7.032   4.873  14.916  0.00  0.00    +0.000 A 
ENDROOT
BRANCH   3   7
ATOM      7  C   UNL     1       4.038   3.125  17.410  0.00  0.00    +0.000 C 
ATOM      8  O   UNL     1       4.164   1.970  17.822  0.00  0.00    +0.000 OA
ATOM      9  N   UNL     1       2.986   3.963  17.780  0.00  0.00    +0.000 N 
ATOM     10  C   UNL     1       1.876   3.419  18.585  0.00  0.00    +0.000 C 
ATOM     11  C   UNL     1       1.745   4.121  19.952  0.00  0.00    +0.000 C 
ATOM     12  C   UNL     1       1.873   5.601  19.762  0.00  0.00    +0.000 A 
ATOM     13  S   UNL     1       1.416   6.740  20.934  0.00  0.00    +0.000 S 
ATOM     14  C   UNL     1       1.956   8.040  19.956  0.00  0.00    +0.000 A 
ATOM     15  C   UNL     1       2.466   7.605  18.752  0.00  0.00    +0.000 A 
ATOM     16  C   UNL     1       2.420   6.181  18.636  0.00  0.00    +0.000 A 
ATOM     17  C   UNL     1       2.914   5.395  17.466  0.00  0.00    +0.000 C 
ENDBRANCH   3   7
BRANCH   1  19
ATOM     18  C   UNL     1       7.049   3.320  12.252  0.00  0.00    +0.000 C 
ATOM     19  C   UNL     1       5.858   4.116  12.788  0.00  0.00    +0.000 C 
ATOM     20  C   UNL     1       4.541   3.523  12.267  0.00  0.00    +0.000 C 
ENDBRANCH   1  19
BRANCH   4  21
ATOM     21  O   UNL     1       6.483   4.246  18.454  0.00  0.00    +0.000 OA
ATOM     22  H   UNL     1       6.996   5.059  18.663  0.00  0.00    +0.000 HD
ENDBRANCH   4  21
BRANCH   6  23
ATOM     23  O   UNL     1       7.949   5.509  14.127  0.00  0.00    +0.000 OA
ATOM     24  H   UNL     1       8.822   5.454  14.552  0.00  0.00    +0.000 HD
ENDBRANCH   6  23
TORSDOF 4
ENDMDL
MODEL 2
REMARK VINA RESULT:      -6.9      2.129      3.403
REMARK  Name = 
REMARK  6 active torsions:
REMARK  status: ('A' for Active; 'I' for Inactive)
REMARK    1  A    between atoms: C_1  and  C_2
REMARK    2  A    between atoms: C_2  and  C_3
REMARK    3  A    between atoms: C_2  and  C_4
REMARK    4  A    between atoms: C_6  and  C_7
REMARK    5  A    between atoms: C_18  and  O_19
REMARK    6  A    between atoms: C_21  and  O_22
REMARK                            x       y       z     vdW  Elec       q    Type
REMARK                         _______ _______ _______ _____ _____    ______ ____
ROOT
ATOM      1  C   UNL     1       5.548   3.644  12.790  0.00  0.00    +0.000 A 
ATOM      2  C   UNL     1       4.982   4.228  13.936  0.00  0.00    +0.000 A 
ATOM      3  C   UNL     1       5.725   5.094  14.751  0.00  0.00    +0.000 A 
ATOM      4  C   UNL     1       7.097   5.230  14.525  0.00  0.00    +0.000 A 
ATOM      5  C   UNL     1       7.690   4.639  13.414  0.00  0.00    +0.000 A 
ATOM      6  C   UNL     1       6.910   3.872  12.544  0.00  0.00    +0.000 A 
ENDROOT
BRANCH   3   7
ATOM      7  C   UNL     1       5.077   5.880  15.837  0.00  0.00    +0.000 C 
ATOM      8  O   UNL     1       4.894   7.079  15.613  0.00  0.00    +0.000 OA
ATOM      9  N   UNL     1       4.649   5.241  17.002  0.00  0.00    +0.000 N 
ATOM     10  C   UNL     1       4.080   6.044  18.100  0.00  0.00    +0.000 C 
ATOM     11  C   UNL     1       2.619   5.660  18.411  0.00  0.00    +0.000 C 
ATOM     12  C   UNL     1       2.495   4.167  18.436  0.00  0.00    +0.000 A 
ATOM     13  S   UNL     1       1.169   3.347  19.104  0.00  0.00    +0.000 S 
ATOM     14  C   UNL     1       1.810   1.826  18.642  0.00  0.00    +0.000 A 
ATOM     15  C   UNL     1       3.022   1.950  17.999  0.00  0.00    +0.000 A 
ATOM     16  C   UNL     1       3.425   3.315  17.875  0.00  0.00    +0.000 A 
ATOM     17  C   UNL     1       4.676   3.789  17.210  0.00  0.00    +0.000 C 
ENDBRANCH   3   7
BRANCH   1  19
ATOM     18  C   UNL     1       4.032   3.580  10.826  0.00  0.00    +0.000 C 
ATOM     19  C   UNL     1       4.733   2.729  11.886  0.00  0.00    +0.000 C 
ATOM     20  C   UNL     1       5.536   1.602  11.221  0.00  0.00    +0.000 C 
ENDBRANCH   1  19
BRANCH   4  21
ATOM     21  O   UNL     1       7.923   5.927  15.366  0.00  0.00    +0.000 OA
ATOM     22  H   UNL     1       7.397   6.166  16.164  0.00  0.00    +0.000 HD
ENDBRANCH   4  21
BRANCH   6  23
ATOM     23  O   UNL     1       7.487   3.303  11.443  0.00  0.00    +0.000 OA
ATOM     24  H   UNL     1       8.435   3.175  11.614  0.00  0.00    +0.000 HD
ENDBRANCH   6  23
TORSDOF 4
ENDMDL
MODEL 3
REMARK VINA RESULT:      -6.8      2.609      4.168
REMARK  Name = 
REMARK  6 active torsions:
REMARK  status: ('A' for Active; 'I' for Inactive)
REMARK    1  A    between atoms: C_1  and  C_2
REMARK    2  A    between atoms: C_2  and  C_3
REMARK    3  A    between atoms: C_2  and  C_4
REMARK    4  A    between atoms: C_6  and  C_7
REMARK    5  A    between atoms: C_18  and  O_19
REMARK    6  A    between atoms: C_21  and  O_22
REMARK                            x       y       z     vdW  Elec       q    Type
REMARK                         _______ _______ _______ _____ _____    ______ ____
ROOT
ATOM      1  C   UNL     1       6.095   5.271  17.929  0.00  0.00    +0.000 A 
ATOM      2  C   UNL     1       5.097   5.736  18.802  0.00  0.00    +0.000 A 
ATOM      3  C   UNL     1       3.799   5.206  18.768  0.00  0.00    +0.000 A 
ATOM      4  C   UNL     1       3.446   4.340  17.730  0.00  0.00    +0.000 A 
ATOM      5  C   UNL     1       4.408   3.886  16.833  0.00  0.00    +0.000 A 
ATOM      6  C   UNL     1       5.725   4.335  16.952  0.00  0.00    +0.000 A 
ENDROOT
BRANCH   3   7
ATOM      7  C   UNL     1       2.801   5.535  19.823  0.00  0.00    +0.000 C 
ATOM      8  O   UNL     1       2.884   4.897  20.875  0.00  0.00    +0.000 OA
ATOM      9  N   UNL     1       1.884   6.567  19.619  0.00  0.00    +0.000 N 
ATOM     10  C   UNL     1       0.853   6.830  20.640  0.00  0.00    +0.000 C 
ATOM     11  C   UNL     1       0.970   8.247  21.239  0.00  0.00    +0.000 C 
ATOM     12  C   UNL     1       1.196   9.233  20.135  0.00  0.00    +0.000 A 
ATOM     13  S   UNL     1       1.001  10.909  20.320  0.00  0.00    +0.000 S 
ATOM     14  C   UNL     1       1.511  11.198  18.709  0.00  0.00    +0.000 A 
ATOM     15  C   UNL     1       1.812  10.029  18.044  0.00  0.00    +0.000 A 
ATOM     16  C   UNL     1       1.631   8.880  18.873  0.00  0.00    +0.000 A 
ATOM     17  C   UNL     1       1.892   7.468  18.461  0.00  0.00    +0.000 C 
ENDBRANCH   3   7
BRANCH   1  19
ATOM     18  C   UNL     1       7.499   7.271  17.495  0.00  0.00    +0.000 C 
ATOM     19  C   UNL     1       7.513   5.823  17.986  0.00  0.00    +0.000 C 
ATOM     20  C   UNL     1       8.182   5.734  19.365  0.00  0.00    +0.000 C 
ENDBRANCH   1  19
BRANCH   4  21
ATOM     21  O   UNL     1       2.163   3.903  17.531  0.00  0.00    +0.000 OA
ATOM     22  H   UNL     1       2.086   3.015  17.950  0.00  0.00    +0.000 HD
ENDBRANCH   4  21
BRANCH   6  23
ATOM     23  O   UNL     1       6.676   3.879  16.081  0.00  0.00    +0.000 OA
ATOM     24  H   UNL     1       6.272   3.766  15.205  0.00  0.00    +0.000 HD
ENDBRANCH   6  23
TORSDOF 4
ENDMDL
MODEL 4
REMARK VINA RESULT:      -6.7      1.030      1.333
REMARK  Name = 
REMARK  6 active torsions:
REMARK  status: ('A' for Active; 'I' for Inactive)
REMARK    1  A    between atoms: C_1  and  C_2
REMARK    2  A    between atoms: C_2  and  C_3
REMARK    3  A    between atoms: C_2  and  C_4
REMARK    4  A    between atoms: C_6  and  C_7
REMARK    5  A    between atoms: C_18  and  O_19
REMARK    6  A    between atoms: C_21  and  O_22
REMARK                            x       y       z     vdW  Elec       q    Type
REMARK                         _______ _______ _______ _____ _____    ______ ____
ROOT
ATOM      1  C   UNL     1       6.260   4.162  14.951  0.00  0.00    +0.000 A 
ATOM      2  C   UNL     1       5.496   3.692  16.032  0.00  0.00    +0.000 A 
ATOM      3  C   UNL     1       5.598   4.280  17.302  0.00  0.00    +0.000 A 
ATOM      4  C   UNL     1       6.606   5.219  17.537  0.00  0.00    +0.000 A 
ATOM      5  C   UNL     1       7.397   5.681  16.490  0.00  0.00    +0.000 A 
ATOM      6  C   UNL     1       7.204   5.169  15.205  0.00  0.00    +0.000 A 
ENDROOT
BRANCH   3   7
ATOM      7  C   UNL     1       4.645   3.934  18.393  0.00  0.00    +0.000 C 
ATOM      8  O   UNL     1       5.004   3.053  19.177  0.00  0.00    +0.000 OA
ATOM      9  N   UNL     1       3.451   4.643  18.528  0.00  0.00    +0.000 N 
ATOM     10  C   UNL     1       2.483   4.239  19.564  0.00  0.00    +0.000 C 
ATOM     11  C   UNL     1       2.231   5.355  20.598  0.00  0.00    +0.000 C 
ATOM     12  C   UNL     1       2.058   6.661  19.885  0.00  0.00    +0.000 A 
ATOM     13  S   UNL     1       1.397   8.046  20.609  0.00  0.00    +0.000 S 
ATOM     14  C   UNL     1       1.655   8.973  19.191  0.00  0.00    +0.000 A 
ATOM     15  C   UNL     1       2.226   8.229  18.182  0.00  0.00    +0.000 A 
ATOM     16  C   UNL     1       2.464   6.879  18.583  0.00  0.00    +0.000 A 
ATOM     17  C   UNL     1       3.091   5.823  17.732  0.00  0.00    +0.000 C 
ENDBRANCH   3   7
BRANCH   1  19
ATOM     18  C   UNL     1       4.704   3.781  13.056  0.00  0.00    +0.000 C 
ATOM     19  C   UNL     1       6.127   3.547  13.565  0.00  0.00    +0.000 C 
ATOM     20  C   UNL     1       7.150   4.051  12.537  0.00  0.00    +0.000 C 
ENDBRANCH   1  19
BRANCH   4  21
ATOM     21  O   UNL     1       6.876   5.722  18.782  0.00  0.00    +0.000 OA
ATOM     22  H   UNL     1       6.116   6.291  19.041  0.00  0.00    +0.000 HD
ENDBRANCH   4  21
BRANCH   6  23
ATOM     23  O   UNL     1       7.969   5.632  14.171  0.00  0.00    +0.000 OA
ATOM     24  H   UNL     1       8.092   4.916  13.525  0.00  0.00    +0.000 HD
ENDBRANCH   6  23
TORSDOF 4
ENDMDL
MODEL 5
REMARK VINA RESULT:      -6.5      8.742     10.907
REMARK  Name = 
REMARK  6 active torsions:
REMARK  status: ('A' for Active; 'I' for Inactive)
REMARK    1  A    between atoms: C_1  and  C_2
REMARK    2  A    between atoms: C_2  and  C_3
REMARK    3  A    between atoms: C_2  and  C_4
REMARK    4  A    between atoms: C_6  and  C_7
REMARK    5  A    between atoms: C_18  and  O_19
REMARK    6  A    between atoms: C_21  and  O_22
REMARK                            x       y       z     vdW  Elec       q    Type
REMARK                         _______ _______ _______ _____ _____    ______ ____
ROOT
ATOM      1  C   UNL     1       0.112  10.926  20.828  0.00  0.00    +0.000 A 
ATOM      2  C   UNL     1      -1.122  10.691  20.199  0.00  0.00    +0.000 A 
ATOM      3  C   UNL     1      -1.468  11.353  19.012  0.00  0.00    +0.000 A 
ATOM      4  C   UNL     1      -0.657  12.393  18.552  0.00  0.00    +0.000 A 
ATOM      5  C   UNL     1       0.558  12.667  19.174  0.00  0.00    +0.000 A 
ATOM      6  C   UNL     1       0.944  11.919  20.288  0.00  0.00    +0.000 A 
ENDROOT
BRANCH   3   7
ATOM      7  C   UNL     1      -2.671  10.956  18.228  0.00  0.00    +0.000 C 
ATOM      8  O   UNL     1      -2.514  10.054  17.402  0.00  0.00    +0.000 OA
ATOM      9  N   UNL     1      -3.905  11.549  18.495  0.00  0.00    +0.000 N 
ATOM     10  C   UNL     1      -5.070  11.202  17.659  0.00  0.00    +0.000 C 
ATOM     11  C   UNL     1      -6.204  10.550  18.476  0.00  0.00    +0.000 C 
ATOM     12  C   UNL     1      -6.400  11.315  19.749  0.00  0.00    +0.000 A 
ATOM     13  S   UNL     1      -7.774  11.164  20.733  0.00  0.00    +0.000 S 
ATOM     14  C   UNL     1      -7.130  12.252  21.889  0.00  0.00    +0.000 A 
ATOM     15  C   UNL     1      -5.891  12.729  21.518  0.00  0.00    +0.000 A 
ATOM     16  C   UNL     1      -5.461  12.183  20.270  0.00  0.00    +0.000 A 
ATOM     17  C   UNL     1      -4.158  12.479  19.602  0.00  0.00    +0.000 C 
ENDBRANCH   3   7
BRANCH   1  19
ATOM     18  C   UNL     1      -0.687  10.189  23.058  0.00  0.00    +0.000 C 
ATOM     19  C   UNL     1       0.504  10.185  22.099  0.00  0.00    +0.000 C 
ATOM     20  C   UNL     1       1.006   8.751  21.879  0.00  0.00    +0.000 C 
ENDBRANCH   1  19
BRANCH   4  21
ATOM     21  O   UNL     1      -1.002  13.193  17.495  0.00  0.00    +0.000 OA
ATOM     22  H   UNL     1      -0.168  13.517  17.086  0.00  0.00    +0.000 HD
ENDBRANCH   4  21
BRANCH   6  23
ATOM     23  O   UNL     1       2.143  12.176  20.892  0.00  0.00    +0.000 OA
ATOM     24  H   UNL     1       2.341  11.458  21.517  0.00  0.00    +0.000 HD
ENDBRANCH   6  23
TORSDOF 4
ENDMDL
MODEL 6
REMARK VINA RESULT:      -6.2     10.154     11.957
REMARK  Name = 
REMARK  6 active torsions:
REMARK  status: ('A' for Active; 'I' for Inactive)
REMARK    1  A    between atoms: C_1  and  C_2
REMARK    2  A    between atoms: C_2  and  C_3
REMARK    3  A    between atoms: C_2  and  C_4
REMARK    4  A    between atoms: C_6  and  C_7
REMARK    5  A    between atoms: C_18  and  O_19
REMARK    6  A    between atoms: C_21  and  O_22
REMARK                            x       y       z     vdW  Elec       q    Type
REMARK                         _______ _______ _______ _____ _____    ______ ____
ROOT
ATOM      1  C   UNL     1      10.973  13.394  18.063  0.00  0.00    +0.000 A 
ATOM      2  C   UNL     1      10.345  14.219  19.010  0.00  0.00    +0.000 A 
ATOM      3  C   UNL     1      10.079  15.569  18.733  0.00  0.00    +0.000 A 
ATOM      4  C   UNL     1      10.614  16.143  17.577  0.00  0.00    +0.000 A 
ATOM      5  C   UNL     1      11.268  15.354  16.635  0.00  0.00    +0.000 A 
ATOM      6  C   UNL     1      11.422  13.986  16.873  0.00  0.00    +0.000 A 
ENDROOT
BRANCH   3   7
ATOM      7  C   UNL     1       9.228  16.391  19.637  0.00  0.00    +0.000 C 
ATOM      8  O   UNL     1       9.748  17.404  20.111  0.00  0.00    +0.000 OA
ATOM      9  N   UNL     1       7.896  16.037  19.855  0.00  0.00    +0.000 N 
ATOM     10  C   UNL     1       7.088  16.815  20.812  0.00  0.00    +0.000 C 
ATOM     11  C   UNL     1       5.875  17.491  20.141  0.00  0.00    +0.000 C 
ATOM     12  C   UNL     1       5.208  16.513  19.225  0.00  0.00    +0.000 A 
ATOM     13  S   UNL     1       3.645  16.729  18.599  0.00  0.00    +0.000 S 
ATOM     14  C   UNL     1       3.759  15.287  17.679  0.00  0.00    +0.000 A 
ATOM     15  C   UNL     1       4.967  14.650  17.861  0.00  0.00    +0.000 A 
ATOM     16  C   UNL     1       5.816  15.364  18.761  0.00  0.00    +0.000 A 
ATOM     17  C   UNL     1       7.199  14.954  19.152  0.00  0.00    +0.000 C 
ENDBRANCH   3   7
BRANCH   1  19
ATOM     18  C   UNL     1      12.006  11.803  19.663  0.00  0.00    +0.000 C 
ATOM     19  C   UNL     1      11.233  11.921  18.349  0.00  0.00    +0.000 C 
ATOM     20  C   UNL     1       9.975  11.042  18.390  0.00  0.00    +0.000 C 
ENDBRANCH   1  19
BRANCH   4  21
ATOM     21  O   UNL     1      10.538  17.485  17.311  0.00  0.00    +0.000 OA
ATOM     22  H   UNL     1      11.363  17.738  16.837  0.00  0.00    +0.000 HD
ENDBRANCH   4  21
BRANCH   6  23
ATOM     23  O   UNL     1      12.050  13.206  15.943  0.00  0.00    +0.000 OA
ATOM     24  H   UNL     1      12.876  13.640  15.673  0.00  0.00    +0.000 HD
ENDBRANCH   6  23
TORSDOF 4
ENDMDL
MODEL 7
REMARK VINA RESULT:      -6.1      3.610      5.321
REMARK  Name = 
REMARK  6 active torsions:
REMARK  status: ('A' for Active; 'I' for Inactive)
REMARK    1  A    between atoms: C_1  and  C_2
REMARK    2  A    between atoms: C_2  and  C_3
REMARK    3  A    between atoms: C_2  and  C_4
REMARK    4  A    between atoms: C_6  and  C_7
REMARK    5  A    between atoms: C_18  and  O_19
REMARK    6  A    between atoms: C_21  and  O_22
REMARK                            x       y       z     vdW  Elec       q    Type
REMARK                         _______ _______ _______ _____ _____    ______ ____
ROOT
ATOM      1  C   UNL     1       3.025   3.496  19.357  0.00  0.00    +0.000 A 
ATOM      2  C   UNL     1       2.700   4.793  18.925  0.00  0.00    +0.000 A 
ATOM      3  C   UNL     1       3.692   5.678  18.477  0.00  0.00    +0.000 A 
ATOM      4  C   UNL     1       5.036   5.330  18.639  0.00  0.00    +0.000 A 
ATOM      5  C   UNL     1       5.387   4.063  19.093  0.00  0.00    +0.000 A 
ATOM      6  C   UNL     1       4.383   3.150  19.425  0.00  0.00    +0.000 A 
ENDROOT
BRANCH   3   7
ATOM      7  C   UNL     1       3.339   6.967  17.820  0.00  0.00    +0.000 C 
ATOM      8  O   UNL     1       3.457   7.008  16.594  0.00  0.00    +0.000 OA
ATOM      9  N   UNL     1       2.837   8.024  18.581  0.00  0.00    +0.000 N 
ATOM     10  C   UNL     1       2.565   9.318  17.930  0.00  0.00    +0.000 C 
ATOM     11  C   UNL     1       1.078   9.716  18.015  0.00  0.00    +0.000 C 
ATOM     12  C   UNL     1       0.576   9.459  19.403  0.00  0.00    +0.000 A 
ATOM     13  S   UNL     1      -0.871  10.103  20.012  0.00  0.00    +0.000 S 
ATOM     14  C   UNL     1      -0.674   9.276  21.500  0.00  0.00    +0.000 A 
ATOM     15  C   UNL     1       0.486   8.532  21.529  0.00  0.00    +0.000 A 
ATOM     16  C   UNL     1       1.217   8.635  20.306  0.00  0.00    +0.000 A 
ATOM     17  C   UNL     1       2.503   7.935  20.007  0.00  0.00    +0.000 C 
ENDBRANCH   3   7
BRANCH   1  19
ATOM     18  C   UNL     1       1.464   2.939  21.204  0.00  0.00    +0.000 C 
ATOM     19  C   UNL     1       1.947   2.523  19.814  0.00  0.00    +0.000 C 
ATOM     20  C   UNL     1       0.756   2.387  18.854  0.00  0.00    +0.000 C 
ENDBRANCH   1  19
BRANCH   4  21
ATOM     21  O   UNL     1       6.063   6.197  18.376  0.00  0.00    +0.000 OA
ATOM     22  H   UNL     1       5.950   6.517  17.452  0.00  0.00    +0.000 HD
ENDBRANCH   4  21
BRANCH   6  23
ATOM     23  O   UNL     1       4.724   1.898  19.857  0.00  0.00    +0.000 OA
ATOM     24  H   UNL     1       5.650   1.908  20.151  0.00  0.00    +0.000 HD
ENDBRANCH   6  23
TORSDOF 4
ENDMDL
MODEL 8
REMARK VINA RESULT:      -6.1      9.955     11.761
REMARK  Name = 
REMARK  6 active torsions:
REMARK  status: ('A' for Active; 'I' for Inactive)
REMARK    1  A    between atoms: C_1  and  C_2
REMARK    2  A    between atoms: C_2  and  C_3
REMARK    3  A    between atoms: C_2  and  C_4
REMARK    4  A    between atoms: C_6  and  C_7
REMARK    5  A    between atoms: C_18  and  O_19
REMARK    6  A    between atoms: C_21  and  O_22
REMARK                            x       y       z     vdW  Elec       q    Type
REMARK                         _______ _______ _______ _____ _____    ______ ____
ROOT
ATOM      1  C   UNL     1       9.915  12.090  18.509  0.00  0.00    +0.000 A 
ATOM      2  C   UNL     1       8.957  13.091  18.740  0.00  0.00    +0.000 A 
ATOM      3  C   UNL     1       9.028  14.329  18.083  0.00  0.00    +0.000 A 
ATOM      4  C   UNL     1      10.167  14.636  17.335  0.00  0.00    +0.000 A 
ATOM      5  C   UNL     1      11.147  13.673  17.114  0.00  0.00    +0.000 A 
ATOM      6  C   UNL     1      11.004  12.404  17.681  0.00  0.00    +0.000 A 
ENDROOT
BRANCH   3   7
ATOM      7  C   UNL     1       7.909  15.309  18.156  0.00  0.00    +0.000 C 
ATOM      8  O   UNL     1       6.966  15.123  17.384  0.00  0.00    +0.000 OA
ATOM      9  N   UNL     1       7.933  16.326  19.111  0.00  0.00    +0.000 N 
ATOM     10  C   UNL     1       6.857  17.335  19.121  0.00  0.00    +0.000 C 
ATOM     11  C   UNL     1       6.058  17.326  20.440  0.00  0.00    +0.000 C 
ATOM     12  C   UNL     1       7.009  17.239  21.593  0.00  0.00    +0.000 A 
ATOM     13  S   UNL     1       6.573  17.583  23.197  0.00  0.00    +0.000 S 
ATOM     14  C   UNL     1       8.136  17.169  23.765  0.00  0.00    +0.000 A 
ATOM     15  C   UNL     1       8.975  16.787  22.741  0.00  0.00    +0.000 A 
ATOM     16  C   UNL     1       8.321  16.826  21.472  0.00  0.00    +0.000 A 
ATOM     17  C   UNL     1       8.944  16.451  20.167  0.00  0.00    +0.000 C 
ENDBRANCH   3   7
BRANCH   1  19
ATOM     18  C   UNL     1       9.459  10.952  20.666  0.00  0.00    +0.000 C 
ATOM     19  C   UNL     1       9.821  10.735  19.197  0.00  0.00    +0.000 C 
ATOM     20  C   UNL     1       8.840   9.750  18.545  0.00  0.00    +0.000 C 
ENDBRANCH   1  19
BRANCH   4  21
ATOM     21  O   UNL     1      10.389  15.875  16.795  0.00  0.00    +0.000 OA
ATOM     22  H   UNL     1      10.667  16.470  17.528  0.00  0.00    +0.000 HD
ENDBRANCH   4  21
BRANCH   6  23
ATOM     23  O   UNL     1      11.956  11.450  17.454  0.00  0.00    +0.000 OA
ATOM     24  H   UNL     1      11.781  11.029  16.596  0.00  0.00    +0.000 HD
ENDBRANCH   6  23
TORSDOF 4
ENDMDL
MODEL 9
REMARK VINA RESULT:      -6.0      9.056     11.793
REMARK  Name = 
REMARK  6 active torsions:
REMARK  status: ('A' for Active; 'I' for Inactive)
REMARK    1  A    between atoms: C_1  and  C_2
REMARK    2  A    between atoms: C_2  and  C_3
REMARK    3  A    between atoms: C_2  and  C_4
REMARK    4  A    between atoms: C_6  and  C_7
REMARK    5  A    between atoms: C_18  and  O_19
REMARK    6  A    between atoms: C_21  and  O_22
REMARK                            x       y       z     vdW  Elec       q    Type
REMARK                         _______ _______ _______ _____ _____    ______ ____
ROOT
ATOM      1  C   UNL     1      -4.915  11.884  18.620  0.00  0.00    +0.000 A 
ATOM      2  C   UNL     1      -3.610  11.485  18.952  0.00  0.00    +0.000 A 
ATOM      3  C   UNL     1      -2.663  11.200  17.957  0.00  0.00    +0.000 A 
ATOM      4  C   UNL     1      -3.077  11.132  16.624  0.00  0.00    +0.000 A 
ATOM      5  C   UNL     1      -4.374  11.494  16.270  0.00  0.00    +0.000 A 
ATOM      6  C   UNL     1      -5.273  11.888  17.263  0.00  0.00    +0.000 A 
ENDROOT
BRANCH   3   7
ATOM      7  C   UNL     1      -1.228  10.987  18.293  0.00  0.00    +0.000 C 
ATOM      8  O   UNL     1      -0.723   9.932  17.902  0.00  0.00    +0.000 OA
ATOM      9  N   UNL     1      -0.510  11.984  18.954  0.00  0.00    +0.000 N 
ATOM     10  C   UNL     1       0.888  11.728  19.349  0.00  0.00    +0.000 C 
ATOM     11  C   UNL     1       1.875  12.701  18.673  0.00  0.00    +0.000 C 
ATOM     12  C   UNL     1       1.324  14.091  18.741  0.00  0.00    +0.000 A 
ATOM     13  S   UNL     1       2.252  15.484  18.461  0.00  0.00    +0.000 S 
ATOM     14  C   UNL     1       0.885  16.498  18.656  0.00  0.00    +0.000 A 
ATOM     15  C   UNL     1      -0.256  15.780  18.942  0.00  0.00    +0.000 A 
ATOM     16  C   UNL     1      -0.004  14.374  18.991  0.00  0.00    +0.000 A 
ATOM     17  C   UNL     1      -1.031  13.322  19.255  0.00  0.00    +0.000 C 
ENDBRANCH   3   7
BRANCH   1  19
ATOM     18  C   UNL     1      -6.793  10.989  19.972  0.00  0.00    +0.000 C 
ATOM     19  C   UNL     1      -5.934  12.224  19.698  0.00  0.00    +0.000 C 
ATOM     20  C   UNL     1      -5.333  12.756  21.007  0.00  0.00    +0.000 C 
ENDBRANCH   1  19
BRANCH   4  21
ATOM     21  O   UNL     1      -2.258  10.707  15.613  0.00  0.00    +0.000 OA
ATOM     22  H   UNL     1      -2.495   9.773  15.415  0.00  0.00    +0.000 HD
ENDBRANCH   4  21
BRANCH   6  23
ATOM     23  O   UNL     1      -6.543  12.259  16.917  0.00  0.00    +0.000 OA
ATOM     24  H   UNL     1      -6.560  13.218  16.763  0.00  0.00    +0.000 HD
ENDBRANCH   6  23
TORSDOF 4
ENDMDL
