MODEL 1
REMARK VINA RESULT:      -7.3      0.000      0.000
REMARK  Name = 
REMARK  7 active torsions:
REMARK  status: ('A' for Active; 'I' for Inactive)
REMARK    1  A    between atoms: C_1  and  O_2
REMARK    2  A    between atoms: O_2  and  C_3
REMARK    3  A    between atoms: C_8  and  C_9
REMARK    4  A    between atoms: N_10  and  N_11
REMARK    5  A    between atoms: C_15  and  O_16
REMARK    6  A    between atoms: O_16  and  C_17
REMARK    7  A    between atoms: C_17  and  C_18
REMARK                            x       y       z     vdW  Elec       q    Type
REMARK                         _______ _______ _______ _____ _____    ______ ____
ROOT
ATOM      1  C   UNL     1       4.244   6.081  17.440  0.00  0.00    +0.000 A 
ATOM      2  C   UNL     1       5.219   7.041  17.748  0.00  0.00    +0.000 A 
ATOM      3  C   UNL     1       6.502   6.929  17.226  0.00  0.00    +0.000 A 
ATOM      4 BR   UNL     1       7.812   8.218  17.667  0.00  0.00    +0.000 Br
ATOM      5  C   UNL     1       6.827   5.882  16.376  0.00  0.00    +0.000 A 
ATOM      6  C   UNL     1       5.860   4.918  16.055  0.00  0.00    +0.000 A 
ATOM      7  C   UNL     1       4.574   4.968  16.625  0.00  0.00    +0.000 A 
ENDROOT
BRANCH   1   9
ATOM      8  C   UNL     1       2.833   6.480  19.316  0.00  0.00    +0.000 C 
ATOM      9  O   UNL     1       2.959   6.141  17.935  0.00  0.00    +0.000 OA
ENDBRANCH   1   9
BRANCH   6  10
ATOM     10  C   UNL     1       6.279   3.877  15.100  0.00  0.00    +0.000 C 
ATOM     11  N   UNL     1       5.961   3.984  13.850  0.00  0.00    +0.000 NA
BRANCH  11  12
ATOM     12  N   UNL     1       6.495   3.050  13.013  0.00  0.00    +0.000 N 
ATOM     13  C   UNL     1       5.812   2.634  11.908  0.00  0.00    +0.000 C 
ATOM     14  N   UNL     1       4.598   2.973  11.639  0.00  0.00    +0.000 NA
ATOM     15  N   UNL     1       6.491   1.815  11.078  0.00  0.00    +0.000 N 
ATOM     16  H   UNL     1       7.504   3.001  12.908  0.00  0.00    +0.000 HD
ATOM     17  H   UNL     1       4.346   3.599  12.422  0.00  0.00    +0.000 HD
ATOM     18  H   UNL     1       6.958   1.052  11.549  0.00  0.00    +0.000 HD
ATOM     19  H   UNL     1       5.839   1.454  10.384  0.00  0.00    +0.000 HD
ENDBRANCH  11  12
ENDBRANCH   6  10
BRANCH   7  20
ATOM     20  O   UNL     1       3.581   4.029  16.462  0.00  0.00    +0.000 OA
BRANCH  20  21
ATOM     21  C   UNL     1       3.701   2.804  17.192  0.00  0.00    +0.000 C 
BRANCH  21  22
ATOM     22  C   UNL     1       3.029   2.827  18.542  0.00  0.00    +0.000 A 
ATOM     23  C   UNL     1       1.624   2.821  18.612  0.00  0.00    +0.000 A 
ATOM     24  C   UNL     1       0.975   2.710  19.842  0.00  0.00    +0.000 A 
ATOM     25  C   UNL     1       1.727   2.595  21.008  0.00  0.00    +0.000 A 
ATOM     26 CL   UNL     1       0.932   2.453  22.526  0.00  0.00    +0.000 Cl
ATOM     27  C   UNL     1       3.120   2.583  20.952  0.00  0.00    +0.000 A 
ATOM     28  C   UNL     1       3.769   2.692  19.721  0.00  0.00    +0.000 A 
ENDBRANCH  21  22
ENDBRANCH  20  21
ENDBRANCH   7  20
TORSDOF 6
ENDMDL
MODEL 2
REMARK VINA RESULT:      -6.9      4.480      6.473
REMARK  Name = 
REMARK  7 active torsions:
REMARK  status: ('A' for Active; 'I' for Inactive)
REMARK    1  A    between atoms: C_1  and  O_2
REMARK    2  A    between atoms: O_2  and  C_3
REMARK    3  A    between atoms: C_8  and  C_9
REMARK    4  A    between atoms: N_10  and  N_11
REMARK    5  A    between atoms: C_15  and  O_16
REMARK    6  A    between atoms: O_16  and  C_17
REMARK    7  A    between atoms: C_17  and  C_18
REMARK                            x       y       z     vdW  Elec       q    Type
REMARK                         _______ _______ _______ _____ _____    ______ ____
ROOT
ATOM      1  C   UNL     1       1.789   7.000  20.358  0.00  0.00    +0.000 A 
ATOM      2  C   UNL     1       1.519   5.696  20.800  0.00  0.00    +0.000 A 
ATOM      3  C   UNL     1       2.017   4.603  20.102  0.00  0.00    +0.000 A 
ATOM      4 BR   UNL     1       1.629   2.851  20.697  0.00  0.00    +0.000 Br
ATOM      5  C   UNL     1       2.806   4.786  18.975  0.00  0.00    +0.000 A 
ATOM      6  C   UNL     1       3.086   6.085  18.525  0.00  0.00    +0.000 A 
ATOM      7  C   UNL     1       2.538   7.207  19.172  0.00  0.00    +0.000 A 
ENDROOT
BRANCH   1   9
ATOM      8  C   UNL     1      -0.089   8.149  21.266  0.00  0.00    +0.000 C 
ATOM      9  O   UNL     1       1.315   8.118  21.009  0.00  0.00    +0.000 OA
ENDBRANCH   1   9
BRANCH   6  10
ATOM     10  C   UNL     1       3.979   6.183  17.356  0.00  0.00    +0.000 C 
ATOM     11  N   UNL     1       4.716   5.173  17.021  0.00  0.00    +0.000 NA
BRANCH  11  12
ATOM     12  N   UNL     1       5.413   5.300  15.856  0.00  0.00    +0.000 N 
ATOM     13  C   UNL     1       6.770   5.164  15.840  0.00  0.00    +0.000 C 
ATOM     14  N   UNL     1       7.496   5.042  16.898  0.00  0.00    +0.000 NA
ATOM     15  N   UNL     1       7.341   5.169  14.618  0.00  0.00    +0.000 N 
ATOM     16  H   UNL     1       4.968   5.031  14.983  0.00  0.00    +0.000 HD
ATOM     17  H   UNL     1       6.805   5.058  17.666  0.00  0.00    +0.000 HD
ATOM     18  H   UNL     1       7.025   5.922  14.022  0.00  0.00    +0.000 HD
ATOM     19  H   UNL     1       8.351   5.217  14.739  0.00  0.00    +0.000 HD
ENDBRANCH  11  12
ENDBRANCH   6  10
BRANCH   7  20
ATOM     20  O   UNL     1       2.663   8.516  18.764  0.00  0.00    +0.000 OA
BRANCH  20  21
ATOM     21  C   UNL     1       1.791   8.974  17.726  0.00  0.00    +0.000 C 
BRANCH  21  22
ATOM     22  C   UNL     1       0.761   9.973  18.189  0.00  0.00    +0.000 A 
ATOM     23  C   UNL     1      -0.595   9.753  17.885  0.00  0.00    +0.000 A 
ATOM     24  C   UNL     1      -1.584  10.587  18.410  0.00  0.00    +0.000 A 
ATOM     25  C   UNL     1      -1.223  11.638  19.248  0.00  0.00    +0.000 A 
ATOM     26 CL   UNL     1      -2.438  12.665  19.901  0.00  0.00    +0.000 Cl
ATOM     27  C   UNL     1       0.115  11.857  19.571  0.00  0.00    +0.000 A 
ATOM     28  C   UNL     1       1.104  11.022  19.048  0.00  0.00    +0.000 A 
ENDBRANCH  21  22
ENDBRANCH  20  21
ENDBRANCH   7  20
TORSDOF 6
ENDMDL
MODEL 3
REMARK VINA RESULT:      -6.9      4.500      6.548
REMARK  Name = 
REMARK  7 active torsions:
REMARK  status: ('A' for Active; 'I' for Inactive)
REMARK    1  A    between atoms: C_1  and  O_2
REMARK    2  A    between atoms: O_2  and  C_3
REMARK    3  A    between atoms: C_8  and  C_9
REMARK    4  A    between atoms: N_10  and  N_11
REMARK    5  A    between atoms: C_15  and  O_16
REMARK    6  A    between atoms: O_16  and  C_17
REMARK    7  A    between atoms: C_17  and  C_18
REMARK                            x       y       z     vdW  Elec       q    Type
REMARK                         _______ _______ _______ _____ _____    ______ ____
ROOT
ATOM      1  C   UNL     1       1.994   6.940  20.221  0.00  0.00    +0.000 A 
ATOM      2  C   UNL     1       1.676   5.668  20.721  0.00  0.00    +0.000 A 
ATOM      3  C   UNL     1       2.067   4.527  20.030  0.00  0.00    +0.000 A 
ATOM      4 BR   UNL     1       1.614   2.821  20.704  0.00  0.00    +0.000 Br
ATOM      5  C   UNL     1       2.794   4.631  18.853  0.00  0.00    +0.000 A 
ATOM      6  C   UNL     1       3.122   5.897  18.345  0.00  0.00    +0.000 A 
ATOM      7  C   UNL     1       2.680   7.068  18.986  0.00  0.00    +0.000 A 
ENDROOT
BRANCH   1   9
ATOM      8  C   UNL     1       0.295   8.145  21.376  0.00  0.00    +0.000 C 
ATOM      9  O   UNL     1       1.626   8.104  20.862  0.00  0.00    +0.000 OA
ENDBRANCH   1   9
BRANCH   6  10
ATOM     10  C   UNL     1       3.946   5.907  17.123  0.00  0.00    +0.000 C 
ATOM     11  N   UNL     1       5.143   6.397  17.157  0.00  0.00    +0.000 NA
BRANCH  11  12
ATOM     12  N   UNL     1       5.883   6.251  16.021  0.00  0.00    +0.000 N 
ATOM     13  C   UNL     1       6.953   5.406  15.992  0.00  0.00    +0.000 C 
ATOM     14  N   UNL     1       7.421   4.797  17.028  0.00  0.00    +0.000 NA
ATOM     15  N   UNL     1       7.526   5.233  14.783  0.00  0.00    +0.000 N 
ATOM     16  H   UNL     1       5.429   6.361  15.119  0.00  0.00    +0.000 HD
ATOM     17  H   UNL     1       6.792   5.101  17.789  0.00  0.00    +0.000 HD
ATOM     18  H   UNL     1       7.707   6.096  14.289  0.00  0.00    +0.000 HD
ATOM     19  H   UNL     1       8.393   4.714  14.913  0.00  0.00    +0.000 HD
ENDBRANCH  11  12
ENDBRANCH   6  10
BRANCH   7  20
ATOM     20  O   UNL     1       2.856   8.355  18.530  0.00  0.00    +0.000 OA
BRANCH  20  21
ATOM     21  C   UNL     1       1.901   8.863  17.594  0.00  0.00    +0.000 C 
BRANCH  21  22
ATOM     22  C   UNL     1       0.929   9.852  18.187  0.00  0.00    +0.000 A 
ATOM     23  C   UNL     1       1.424  10.990  18.850  0.00  0.00    +0.000 A 
ATOM     24  C   UNL     1       0.555  11.987  19.294  0.00  0.00    +0.000 A 
ATOM     25  C   UNL     1      -0.813  11.857  19.069  0.00  0.00    +0.000 A 
ATOM     26 CL   UNL     1      -1.887  13.086  19.609  0.00  0.00    +0.000 Cl
ATOM     27  C   UNL     1      -1.316  10.744  18.398  0.00  0.00    +0.000 A 
ATOM     28  C   UNL     1      -0.446   9.746  17.952  0.00  0.00    +0.000 A 
ENDBRANCH  21  22
ENDBRANCH  20  21
ENDBRANCH   7  20
TORSDOF 6
ENDMDL
MODEL 4
REMARK VINA RESULT:      -6.7      6.070      8.072
REMARK  Name = 
REMARK  7 active torsions:
REMARK  status: ('A' for Active; 'I' for Inactive)
REMARK    1  A    between atoms: C_1  and  O_2
REMARK    2  A    between atoms: O_2  and  C_3
REMARK    3  A    between atoms: C_8  and  C_9
REMARK    4  A    between atoms: N_10  and  N_11
REMARK    5  A    between atoms: C_15  and  O_16
REMARK    6  A    between atoms: O_16  and  C_17
REMARK    7  A    between atoms: C_17  and  C_18
REMARK                            x       y       z     vdW  Elec       q    Type
REMARK                         _______ _______ _______ _____ _____    ______ ____
ROOT
ATOM      1  C   UNL     1       2.822   6.069  19.802  0.00  0.00    +0.000 A 
ATOM      2  C   UNL     1       3.723   5.602  18.833  0.00  0.00    +0.000 A 
ATOM      3  C   UNL     1       3.941   6.331  17.671  0.00  0.00    +0.000 A 
ATOM      4 BR   UNL     1       5.141   5.679  16.365  0.00  0.00    +0.000 Br
ATOM      5  C   UNL     1       3.291   7.539  17.465  0.00  0.00    +0.000 A 
ATOM      6  C   UNL     1       2.391   8.020  18.427  0.00  0.00    +0.000 A 
ATOM      7  C   UNL     1       2.099   7.269  19.580  0.00  0.00    +0.000 A 
ENDROOT
BRANCH   1   9
ATOM      8  C   UNL     1       2.324   3.982  20.836  0.00  0.00    +0.000 C 
ATOM      9  O   UNL     1       2.563   5.383  20.969  0.00  0.00    +0.000 OA
ENDBRANCH   1   9
BRANCH   6  10
ATOM     10  C   UNL     1       1.793   9.338  18.150  0.00  0.00    +0.000 C 
ATOM     11  N   UNL     1       0.519   9.438  17.945  0.00  0.00    +0.000 NA
BRANCH  11  12
ATOM     12  N   UNL     1       0.028  10.704  17.825  0.00  0.00    +0.000 N 
ATOM     13  C   UNL     1      -1.305  10.917  17.630  0.00  0.00    +0.000 C 
ATOM     14  N   UNL     1      -2.164   9.979  17.419  0.00  0.00    +0.000 NA
ATOM     15  N   UNL     1      -1.700  12.207  17.665  0.00  0.00    +0.000 N 
ATOM     16  H   UNL     1       0.492  11.462  18.317  0.00  0.00    +0.000 HD
ATOM     17  H   UNL     1      -1.593   9.119  17.459  0.00  0.00    +0.000 HD
ATOM     18  H   UNL     1      -1.128  12.825  17.106  0.00  0.00    +0.000 HD
ATOM     19  H   UNL     1      -2.670  12.251  17.359  0.00  0.00    +0.000 HD
ENDBRANCH  11  12
ENDBRANCH   6  10
BRANCH   7  20
ATOM     20  O   UNL     1       1.166   7.592  20.540  0.00  0.00    +0.000 OA
BRANCH  20  21
ATOM     21  C   UNL     1       1.575   8.469  21.594  0.00  0.00    +0.000 C 
BRANCH  21  22
ATOM     22  C   UNL     1       0.606   9.593  21.865  0.00  0.00    +0.000 A 
ATOM     23  C   UNL     1      -0.338   9.453  22.898  0.00  0.00    +0.000 A 
ATOM     24  C   UNL     1      -1.158  10.523  23.259  0.00  0.00    +0.000 A 
ATOM     25  C   UNL     1      -1.032  11.740  22.596  0.00  0.00    +0.000 A 
ATOM     26 CL   UNL     1      -2.037  13.063  23.041  0.00  0.00    +0.000 Cl
ATOM     27  C   UNL     1      -0.089  11.898  21.582  0.00  0.00    +0.000 A 
ATOM     28  C   UNL     1       0.733  10.829  21.222  0.00  0.00    +0.000 A 
ENDBRANCH  21  22
ENDBRANCH  20  21
ENDBRANCH   7  20
TORSDOF 6
ENDMDL
MODEL 5
REMARK VINA RESULT:      -6.6      6.148      8.193
REMARK  Name = 
REMARK  7 active torsions:
REMARK  status: ('A' for Active; 'I' for Inactive)
REMARK    1  A    between atoms: C_1  and  O_2
REMARK    2  A    between atoms: O_2  and  C_3
REMARK    3  A    between atoms: C_8  and  C_9
REMARK    4  A    between atoms: N_10  and  N_11
REMARK    5  A    between atoms: C_15  and  O_16
REMARK    6  A    between atoms: O_16  and  C_17
REMARK    7  A    between atoms: C_17  and  C_18
REMARK                            x       y       z     vdW  Elec       q    Type
REMARK                         _______ _______ _______ _____ _____    ______ ____
ROOT
ATOM      1  C   UNL     1       2.616   6.060  19.992  0.00  0.00    +0.000 A 
ATOM      2  C   UNL     1       3.485   5.517  19.034  0.00  0.00    +0.000 A 
ATOM      3  C   UNL     1       3.746   6.206  17.856  0.00  0.00    +0.000 A 
ATOM      4 BR   UNL     1       4.904   5.452  16.565  0.00  0.00    +0.000 Br
ATOM      5  C   UNL     1       3.172   7.446  17.623  0.00  0.00    +0.000 A 
ATOM      6  C   UNL     1       2.304   8.003  18.574  0.00  0.00    +0.000 A 
ATOM      7  C   UNL     1       1.967   7.297  19.743  0.00  0.00    +0.000 A 
ENDROOT
BRANCH   1   9
ATOM      8  C   UNL     1       1.951   4.042  21.067  0.00  0.00    +0.000 C 
ATOM      9  O   UNL     1       2.317   5.418  21.174  0.00  0.00    +0.000 OA
ENDBRANCH   1   9
BRANCH   6  10
ATOM     10  C   UNL     1       1.788   9.349  18.267  0.00  0.00    +0.000 C 
ATOM     11  N   UNL     1       0.537   9.508  17.975  0.00  0.00    +0.000 NA
BRANCH  11  12
ATOM     12  N   UNL     1       0.114  10.796  17.832  0.00  0.00    +0.000 N 
ATOM     13  C   UNL     1      -1.217  11.092  17.803  0.00  0.00    +0.000 C 
ATOM     14  N   UNL     1      -2.153  10.206  17.776  0.00  0.00    +0.000 NA
ATOM     15  N   UNL     1      -1.522  12.406  17.799  0.00  0.00    +0.000 N 
ATOM     16  H   UNL     1       0.689  11.548  18.202  0.00  0.00    +0.000 HD
ATOM     17  H   UNL     1      -1.637   9.312  17.800  0.00  0.00    +0.000 HD
ATOM     18  H   UNL     1      -0.995  12.946  17.125  0.00  0.00    +0.000 HD
ATOM     19  H   UNL     1      -2.520  12.501  17.623  0.00  0.00    +0.000 HD
ENDBRANCH  11  12
ENDBRANCH   6  10
BRANCH   7  20
ATOM     20  O   UNL     1       1.057   7.698  20.695  0.00  0.00    +0.000 OA
BRANCH  20  21
ATOM     21  C   UNL     1       1.535   8.515  21.768  0.00  0.00    +0.000 C 
BRANCH  21  22
ATOM     22  C   UNL     1       0.650   9.695  22.080  0.00  0.00    +0.000 A 
ATOM     23  C   UNL     1       0.722  10.842  21.270  0.00  0.00    +0.000 A 
ATOM     24  C   UNL     1      -0.174  11.897  21.451  0.00  0.00    +0.000 A 
ATOM     25  C   UNL     1      -1.152  11.806  22.438  0.00  0.00    +0.000 A 
ATOM     26 CL   UNL     1      -2.261  13.101  22.662  0.00  0.00    +0.000 Cl
ATOM     27  C   UNL     1      -1.246  10.668  23.237  0.00  0.00    +0.000 A 
ATOM     28  C   UNL     1      -0.351   9.612  23.054  0.00  0.00    +0.000 A 
ENDBRANCH  21  22
ENDBRANCH  20  21
ENDBRANCH   7  20
TORSDOF 6
ENDMDL
MODEL 6
REMARK VINA RESULT:      -6.6      4.619      6.726
REMARK  Name = 
REMARK  7 active torsions:
REMARK  status: ('A' for Active; 'I' for Inactive)
REMARK    1  A    between atoms: C_1  and  O_2
REMARK    2  A    between atoms: O_2  and  C_3
REMARK    3  A    between atoms: C_8  and  C_9
REMARK    4  A    between atoms: N_10  and  N_11
REMARK    5  A    between atoms: C_15  and  O_16
REMARK    6  A    between atoms: O_16  and  C_17
REMARK    7  A    between atoms: C_17  and  C_18
REMARK                            x       y       z     vdW  Elec       q    Type
REMARK                         _______ _______ _______ _____ _____    ______ ____
ROOT
ATOM      1  C   UNL     1       1.573   9.332  19.178  0.00  0.00    +0.000 A 
ATOM      2  C   UNL     1       0.866   9.788  20.301  0.00  0.00    +0.000 A 
ATOM      3  C   UNL     1       0.585   8.922  21.350  0.00  0.00    +0.000 A 
ATOM      4 BR   UNL     1      -0.386   9.544  22.848  0.00  0.00    +0.000 Br
ATOM      5  C   UNL     1       1.018   7.605  21.311  0.00  0.00    +0.000 A 
ATOM      6  C   UNL     1       1.729   7.137  20.196  0.00  0.00    +0.000 A 
ATOM      7  C   UNL     1       1.967   7.973  19.090  0.00  0.00    +0.000 A 
ENDROOT
BRANCH   1   9
ATOM      8  C   UNL     1       2.027  11.536  18.398  0.00  0.00    +0.000 C 
ATOM      9  O   UNL     1       1.873  10.147  18.108  0.00  0.00    +0.000 OA
ENDBRANCH   1   9
BRANCH   6  10
ATOM     10  C   UNL     1       2.199   5.742  20.269  0.00  0.00    +0.000 C 
ATOM     11  N   UNL     1       1.354   4.770  20.142  0.00  0.00    +0.000 NA
BRANCH  11  12
ATOM     12  N   UNL     1       1.886   3.516  20.092  0.00  0.00    +0.000 N 
ATOM     13  C   UNL     1       1.842   2.788  18.939  0.00  0.00    +0.000 C 
ATOM     14  N   UNL     1       1.206   3.151  17.878  0.00  0.00    +0.000 NA
ATOM     15  N   UNL     1       2.519   1.621  18.961  0.00  0.00    +0.000 N 
ATOM     16  H   UNL     1       2.682   3.294  20.682  0.00  0.00    +0.000 HD
ATOM     17  H   UNL     1       0.804   4.066  18.142  0.00  0.00    +0.000 HD
ATOM     18  H   UNL     1       2.333   1.055  19.778  0.00  0.00    +0.000 HD
ATOM     19  H   UNL     1       2.290   1.103  18.115  0.00  0.00    +0.000 HD
ENDBRANCH  11  12
ENDBRANCH   6  10
BRANCH   7  20
ATOM     20  O   UNL     1       2.564   7.598  17.908  0.00  0.00    +0.000 OA
BRANCH  20  21
ATOM     21  C   UNL     1       3.970   7.333  17.930  0.00  0.00    +0.000 C 
BRANCH  21  22
ATOM     22  C   UNL     1       4.420   6.327  16.900  0.00  0.00    +0.000 A 
ATOM     23  C   UNL     1       5.076   6.776  15.740  0.00  0.00    +0.000 A 
ATOM     24  C   UNL     1       5.619   5.865  14.833  0.00  0.00    +0.000 A 
ATOM     25  C   UNL     1       5.517   4.500  15.087  0.00  0.00    +0.000 A 
ATOM     26 CL   UNL     1       6.189   3.373  13.975  0.00  0.00    +0.000 Cl
ATOM     27  C   UNL     1       4.885   4.041  16.240  0.00  0.00    +0.000 A 
ATOM     28  C   UNL     1       4.343   4.952  17.149  0.00  0.00    +0.000 A 
ENDBRANCH  21  22
ENDBRANCH  20  21
ENDBRANCH   7  20
TORSDOF 6
ENDMDL
MODEL 7
REMARK VINA RESULT:      -6.6      6.918      8.785
REMARK  Name = 
REMARK  7 active torsions:
REMARK  status: ('A' for Active; 'I' for Inactive)
REMARK    1  A    between atoms: C_1  and  O_2
REMARK    2  A    between atoms: O_2  and  C_3
REMARK    3  A    between atoms: C_8  and  C_9
REMARK    4  A    between atoms: N_10  and  N_11
REMARK    5  A    between atoms: C_15  and  O_16
REMARK    6  A    between atoms: O_16  and  C_17
REMARK    7  A    between atoms: C_17  and  C_18
REMARK                            x       y       z     vdW  Elec       q    Type
REMARK                         _______ _______ _______ _____ _____    ______ ____
ROOT
ATOM      1  C   UNL     1      -0.176  10.812  21.376  0.00  0.00    +0.000 A 
ATOM      2  C   UNL     1      -0.869  12.001  21.652  0.00  0.00    +0.000 A 
ATOM      3  C   UNL     1      -1.663  12.591  20.676  0.00  0.00    +0.000 A 
ATOM      4 BR   UNL     1      -2.574  14.203  21.055  0.00  0.00    +0.000 Br
ATOM      5  C   UNL     1      -1.799  12.002  19.428  0.00  0.00    +0.000 A 
ATOM      6  C   UNL     1      -1.115  10.811  19.140  0.00  0.00    +0.000 A 
ATOM      7  C   UNL     1      -0.250  10.230  20.085  0.00  0.00    +0.000 A 
ENDROOT
BRANCH   1   9
ATOM      8  C   UNL     1      -0.042   9.545  23.388  0.00  0.00    +0.000 C 
ATOM      9  O   UNL     1       0.629  10.188  22.304  0.00  0.00    +0.000 OA
ENDBRANCH   1   9
BRANCH   6  10
ATOM     10  C   UNL     1      -1.366  10.228  17.809  0.00  0.00    +0.000 C 
ATOM     11  N   UNL     1      -2.574   9.930  17.454  0.00  0.00    +0.000 NA
BRANCH  11  12
ATOM     12  N   UNL     1      -2.735   9.518  16.165  0.00  0.00    +0.000 N 
ATOM     13  C   UNL     1      -3.065  10.410  15.186  0.00  0.00    +0.000 C 
ATOM     14  N   UNL     1      -3.371  11.643  15.406  0.00  0.00    +0.000 NA
ATOM     15  N   UNL     1      -3.061   9.922  13.928  0.00  0.00    +0.000 N 
ATOM     16  H   UNL     1      -2.192   8.729  15.827  0.00  0.00    +0.000 HD
ATOM     17  H   UNL     1      -3.278  11.733  16.431  0.00  0.00    +0.000 HD
ATOM     18  H   UNL     1      -3.554   9.044  13.829  0.00  0.00    +0.000 HD
ATOM     19  H   UNL     1      -3.467  10.625  13.313  0.00  0.00    +0.000 HD
ENDBRANCH  11  12
ENDBRANCH   6  10
BRANCH   7  20
ATOM     20  O   UNL     1       0.543   9.123  19.881  0.00  0.00    +0.000 OA
BRANCH  20  21
ATOM     21  C   UNL     1       1.485   9.172  18.804  0.00  0.00    +0.000 C 
BRANCH  21  22
ATOM     22  C   UNL     1       2.393   7.970  18.731  0.00  0.00    +0.000 A 
ATOM     23  C   UNL     1       2.286   6.967  19.710  0.00  0.00    +0.000 A 
ATOM     24  C   UNL     1       3.019   5.784  19.597  0.00  0.00    +0.000 A 
ATOM     25  C   UNL     1       3.855   5.595  18.500  0.00  0.00    +0.000 A 
ATOM     26 CL   UNL     1       4.755   4.138  18.354  0.00  0.00    +0.000 Cl
ATOM     27  C   UNL     1       3.958   6.574  17.514  0.00  0.00    +0.000 A 
ATOM     28  C   UNL     1       3.223   7.757  17.625  0.00  0.00    +0.000 A 
ENDBRANCH  21  22
ENDBRANCH  20  21
ENDBRANCH   7  20
TORSDOF 6
ENDMDL
MODEL 8
REMARK VINA RESULT:      -6.6      4.352      6.477
REMARK  Name = 
REMARK  7 active torsions:
REMARK  status: ('A' for Active; 'I' for Inactive)
REMARK    1  A    between atoms: C_1  and  O_2
REMARK    2  A    between atoms: O_2  and  C_3
REMARK    3  A    between atoms: C_8  and  C_9
REMARK    4  A    between atoms: N_10  and  N_11
REMARK    5  A    between atoms: C_15  and  O_16
REMARK    6  A    between atoms: O_16  and  C_17
REMARK    7  A    between atoms: C_17  and  C_18
REMARK                            x       y       z     vdW  Elec       q    Type
REMARK                         _______ _______ _______ _____ _____    ______ ____
ROOT
ATOM      1  C   UNL     1       1.810   8.944  18.974  0.00  0.00    +0.000 A 
ATOM      2  C   UNL     1       1.057   9.406  20.063  0.00  0.00    +0.000 A 
ATOM      3  C   UNL     1       0.751   8.553  21.116  0.00  0.00    +0.000 A 
ATOM      4 BR   UNL     1      -0.283   9.184  22.567  0.00  0.00    +0.000 Br
ATOM      5  C   UNL     1       1.207   7.243  21.115  0.00  0.00    +0.000 A 
ATOM      6  C   UNL     1       1.965   6.768  20.035  0.00  0.00    +0.000 A 
ATOM      7  C   UNL     1       2.229   7.590  18.924  0.00  0.00    +0.000 A 
ENDROOT
BRANCH   1   9
ATOM      8  C   UNL     1       2.068  11.153  18.124  0.00  0.00    +0.000 C 
ATOM      9  O   UNL     1       2.136   9.745  17.901  0.00  0.00    +0.000 OA
ENDBRANCH   1   9
BRANCH   6  10
ATOM     10  C   UNL     1       2.454   5.383  20.149  0.00  0.00    +0.000 C 
ATOM     11  N   UNL     1       1.831   4.427  19.538  0.00  0.00    +0.000 NA
BRANCH  11  12
ATOM     12  N   UNL     1       2.421   3.199  19.588  0.00  0.00    +0.000 N 
ATOM     13  C   UNL     1       2.564   2.450  18.457  0.00  0.00    +0.000 C 
ATOM     14  N   UNL     1       2.059   2.764  17.313  0.00  0.00    +0.000 NA
ATOM     15  N   UNL     1       3.283   1.317  18.596  0.00  0.00    +0.000 N 
ATOM     16  H   UNL     1       3.140   3.025  20.283  0.00  0.00    +0.000 HD
ATOM     17  H   UNL     1       1.585   3.663  17.500  0.00  0.00    +0.000 HD
ATOM     18  H   UNL     1       3.015   0.757  19.395  0.00  0.00    +0.000 HD
ATOM     19  H   UNL     1       3.192   0.774  17.739  0.00  0.00    +0.000 HD
ENDBRANCH  11  12
ENDBRANCH   6  10
BRANCH   7  20
ATOM     20  O   UNL     1       2.875   7.205  17.770  0.00  0.00    +0.000 OA
BRANCH  20  21
ATOM     21  C   UNL     1       4.302   7.102  17.812  0.00  0.00    +0.000 C 
BRANCH  21  22
ATOM     22  C   UNL     1       4.880   6.189  16.759  0.00  0.00    +0.000 A 
ATOM     23  C   UNL     1       4.955   4.808  17.012  0.00  0.00    +0.000 A 
ATOM     24  C   UNL     1       5.362   3.924  16.011  0.00  0.00    +0.000 A 
ATOM     25  C   UNL     1       5.686   4.416  14.750  0.00  0.00    +0.000 A 
ATOM     26 CL   UNL     1       6.183   3.330  13.512  0.00  0.00    +0.000 Cl
ATOM     27  C   UNL     1       5.599   5.780  14.480  0.00  0.00    +0.000 A 
ATOM     28  C   UNL     1       5.191   6.664  15.480  0.00  0.00    +0.000 A 
ENDBRANCH  21  22
ENDBRANCH  20  21
ENDBRANCH   7  20
TORSDOF 6
ENDMDL
MODEL 9
REMARK VINA RESULT:      -6.6      4.144      5.902
REMARK  Name = 
REMARK  7 active torsions:
REMARK  status: ('A' for Active; 'I' for Inactive)
REMARK    1  A    between atoms: C_1  and  O_2
REMARK    2  A    between atoms: O_2  and  C_3
REMARK    3  A    between atoms: C_8  and  C_9
REMARK    4  A    between atoms: N_10  and  N_11
REMARK    5  A    between atoms: C_15  and  O_16
REMARK    6  A    between atoms: O_16  and  C_17
REMARK    7  A    between atoms: C_17  and  C_18
REMARK                            x       y       z     vdW  Elec       q    Type
REMARK                         _______ _______ _______ _____ _____    ______ ____
ROOT
ATOM      1  C   UNL     1       4.229   3.838  17.553  0.00  0.00    +0.000 A 
ATOM      2  C   UNL     1       4.632   3.640  16.224  0.00  0.00    +0.000 A 
ATOM      3  C   UNL     1       5.753   4.293  15.727  0.00  0.00    +0.000 A 
ATOM      4 BR   UNL     1       6.271   4.032  13.928  0.00  0.00    +0.000 Br
ATOM      5  C   UNL     1       6.500   5.128  16.544  0.00  0.00    +0.000 A 
ATOM      6  C   UNL     1       6.111   5.333  17.876  0.00  0.00    +0.000 A 
ATOM      7  C   UNL     1       4.942   4.739  18.385  0.00  0.00    +0.000 A 
ENDROOT
BRANCH   1   9
ATOM      8  C   UNL     1       3.216   1.808  18.278  0.00  0.00    +0.000 C 
ATOM      9  O   UNL     1       3.122   3.221  18.095  0.00  0.00    +0.000 OA
ENDBRANCH   1   9
BRANCH   6  10
ATOM     10  C   UNL     1       6.999   6.190  18.683  0.00  0.00    +0.000 C 
ATOM     11  N   UNL     1       7.907   6.905  18.102  0.00  0.00    +0.000 NA
BRANCH  11  12
ATOM     12  N   UNL     1       8.596   7.765  18.904  0.00  0.00    +0.000 N 
ATOM     13  C   UNL     1       8.602   9.104  18.644  0.00  0.00    +0.000 C 
ATOM     14  N   UNL     1       8.087   9.638  17.590  0.00  0.00    +0.000 NA
ATOM     15  N   UNL     1       9.197   9.876  19.578  0.00  0.00    +0.000 N 
ATOM     16  H   UNL     1       8.704   7.543  19.889  0.00  0.00    +0.000 HD
ATOM     17  H   UNL     1       7.701   8.829  17.076  0.00  0.00    +0.000 HD
ATOM     18  H   UNL     1      10.105   9.539  19.868  0.00  0.00    +0.000 HD
ATOM     19  H   UNL     1       9.274  10.821  19.207  0.00  0.00    +0.000 HD
ENDBRANCH  11  12
ENDBRANCH   6  10
BRANCH   7  20
ATOM     20  O   UNL     1       4.412   4.944  19.639  0.00  0.00    +0.000 OA
BRANCH  20  21
ATOM     21  C   UNL     1       2.999   5.153  19.736  0.00  0.00    +0.000 C 
BRANCH  21  22
ATOM     22  C   UNL     1       2.575   6.583  19.513  0.00  0.00    +0.000 A 
ATOM     23  C   UNL     1       2.720   7.152  18.234  0.00  0.00    +0.000 A 
ATOM     24  C   UNL     1       2.217   8.425  17.963  0.00  0.00    +0.000 A 
ATOM     25  C   UNL     1       1.560   9.132  18.966  0.00  0.00    +0.000 A 
ATOM     26 CL   UNL     1       0.934  10.700  18.636  0.00  0.00    +0.000 Cl
ATOM     27  C   UNL     1       1.394   8.574  20.232  0.00  0.00    +0.000 A 
ATOM     28  C   UNL     1       1.895   7.299  20.503  0.00  0.00    +0.000 A 
ENDBRANCH  21  22
ENDBRANCH  20  21
ENDBRANCH   7  20
TORSDOF 6
ENDMDL
