MODEL 1
REMARK VINA RESULT:      -8.3      0.000      0.000
REMARK  Name = 
REMARK  4 active torsions:
REMARK  status: ('A' for Active; 'I' for Inactive)
REMARK    1  A    between atoms: C_1  and  C_2
REMARK    2  A    between atoms: C_2  and  C_4
REMARK    3  A    between atoms: C_10  and  C_11
REMARK    4  A    between atoms: C_15  and  C_16
REMARK                            x       y       z     vdW  Elec       q    Type
REMARK                         _______ _______ _______ _____ _____    ______ ____
ROOT
ATOM      1  C   UNL     1       5.827   3.594  12.629  0.00  0.00    +0.000 A 
ATOM      2  C   UNL     1       7.132   4.133  12.363  0.00  0.00    +0.000 A 
ATOM      3  C   UNL     1       7.851   4.940  13.280  0.00  0.00    +0.000 A 
ATOM      4  C   UNL     1       7.182   5.166  14.494  0.00  0.00    +0.000 A 
ATOM      5  N   UNL     1       7.553   5.881  15.567  0.00  0.00    +0.000 NA
ATOM      6  O   UNL     1       6.526   5.768  16.489  0.00  0.00    +0.000 OA
ATOM      7  C   UNL     1       5.519   4.980  16.001  0.00  0.00    +0.000 A 
ATOM      8  C   UNL     1       5.881   4.595  14.736  0.00  0.00    +0.000 A 
ATOM      9  C   UNL     1       5.143   3.812  13.848  0.00  0.00    +0.000 A 
ENDROOT
BRANCH   7  10
ATOM     10  C   UNL     1       4.407   4.742  16.911  0.00  0.00    +0.000 A 
ATOM     11  C   UNL     1       3.695   5.814  17.468  0.00  0.00    +0.000 A 
ATOM     12  C   UNL     1       2.639   5.586  18.353  0.00  0.00    +0.000 A 
ATOM     13  C   UNL     1       2.279   4.283  18.694  0.00  0.00    +0.000 A 
ATOM     14  C   UNL     1       2.972   3.197  18.155  0.00  0.00    +0.000 A 
ATOM     15  C   UNL     1       2.611   1.786  18.516  0.00  0.00    +0.000 C 
ATOM     16  C   UNL     1       4.033   3.438  17.269  0.00  0.00    +0.000 A 
ENDBRANCH   7  10
BRANCH   1  18
ATOM     17  C   UNL     1       3.840   3.280  10.996  0.00  0.00    +0.000 C 
ATOM     18  C   UNL     1       5.110   2.757  11.614  0.00  0.00    +0.000 C 
ATOM     19  O   UNL     1       5.563   1.661  11.298  0.00  0.00    +0.000 OA
ENDBRANCH   1  18
TORSDOF 2
ENDMDL
MODEL 2
REMARK VINA RESULT:      -8.3      1.985      5.728
REMARK  Name = 
REMARK  4 active torsions:
REMARK  status: ('A' for Active; 'I' for Inactive)
REMARK    1  A    between atoms: C_1  and  C_2
REMARK    2  A    between atoms: C_2  and  C_4
REMARK    3  A    between atoms: C_10  and  C_11
REMARK    4  A    between atoms: C_15  and  C_16
REMARK                            x       y       z     vdW  Elec       q    Type
REMARK                         _______ _______ _______ _____ _____    ______ ____
ROOT
ATOM      1  C   UNL     1       3.439   3.903  17.950  0.00  0.00    +0.000 A 
ATOM      2  C   UNL     1       3.969   4.196  19.252  0.00  0.00    +0.000 A 
ATOM      3  C   UNL     1       5.321   4.550  19.489  0.00  0.00    +0.000 A 
ATOM      4  C   UNL     1       6.113   4.602  18.329  0.00  0.00    +0.000 A 
ATOM      5  N   UNL     1       7.416   4.885  18.182  0.00  0.00    +0.000 NA
ATOM      6  O   UNL     1       7.687   4.801  16.827  0.00  0.00    +0.000 OA
ATOM      7  C   UNL     1       6.557   4.475  16.125  0.00  0.00    +0.000 A 
ATOM      8  C   UNL     1       5.544   4.319  17.035  0.00  0.00    +0.000 A 
ATOM      9  C   UNL     1       4.224   3.953  16.774  0.00  0.00    +0.000 A 
ENDROOT
BRANCH   7  10
ATOM     10  C   UNL     1       6.710   4.416  14.678  0.00  0.00    +0.000 A 
ATOM     11  C   UNL     1       7.633   5.242  14.020  0.00  0.00    +0.000 A 
ATOM     12  C   UNL     1       7.768   5.195  12.631  0.00  0.00    +0.000 A 
ATOM     13  C   UNL     1       6.983   4.323  11.878  0.00  0.00    +0.000 A 
ATOM     14  C   UNL     1       6.055   3.491  12.508  0.00  0.00    +0.000 A 
ATOM     15  C   UNL     1       5.190   2.552  11.719  0.00  0.00    +0.000 C 
ATOM     16  C   UNL     1       5.925   3.547  13.904  0.00  0.00    +0.000 A 
ENDBRANCH   7  10
BRANCH   1  18
ATOM     17  C   UNL     1       1.458   2.324  18.496  0.00  0.00    +0.000 C 
ATOM     18  C   UNL     1       2.002   3.522  17.764  0.00  0.00    +0.000 C 
ATOM     19  O   UNL     1       1.285   4.188  17.022  0.00  0.00    +0.000 OA
ENDBRANCH   1  18
TORSDOF 2
ENDMDL
MODEL 3
REMARK VINA RESULT:      -8.1      0.487      1.612
REMARK  Name = 
REMARK  4 active torsions:
REMARK  status: ('A' for Active; 'I' for Inactive)
REMARK    1  A    between atoms: C_1  and  C_2
REMARK    2  A    between atoms: C_2  and  C_4
REMARK    3  A    between atoms: C_10  and  C_11
REMARK    4  A    between atoms: C_15  and  C_16
REMARK                            x       y       z     vdW  Elec       q    Type
REMARK                         _______ _______ _______ _____ _____    ______ ____
ROOT
ATOM      1  C   UNL     1       5.790   3.607  12.664  0.00  0.00    +0.000 A 
ATOM      2  C   UNL     1       7.113   4.110  12.415  0.00  0.00    +0.000 A 
ATOM      3  C   UNL     1       7.834   4.913  13.333  0.00  0.00    +0.000 A 
ATOM      4  C   UNL     1       7.148   5.175  14.530  0.00  0.00    +0.000 A 
ATOM      5  N   UNL     1       7.517   5.896  15.600  0.00  0.00    +0.000 NA
ATOM      6  O   UNL     1       6.470   5.823  16.504  0.00  0.00    +0.000 OA
ATOM      7  C   UNL     1       5.453   5.052  16.008  0.00  0.00    +0.000 A 
ATOM      8  C   UNL     1       5.829   4.638  14.756  0.00  0.00    +0.000 A 
ATOM      9  C   UNL     1       5.089   3.861  13.867  0.00  0.00    +0.000 A 
ENDROOT
BRANCH   7  10
ATOM     10  C   UNL     1       4.319   4.855  16.900  0.00  0.00    +0.000 A 
ATOM     11  C   UNL     1       3.619   3.640  16.914  0.00  0.00    +0.000 A 
ATOM     12  C   UNL     1       2.523   3.457  17.759  0.00  0.00    +0.000 A 
ATOM     13  C   UNL     1       2.109   4.486  18.603  0.00  0.00    +0.000 A 
ATOM     14  C   UNL     1       2.787   5.707  18.609  0.00  0.00    +0.000 A 
ATOM     15  C   UNL     1       2.354   6.833  19.501  0.00  0.00    +0.000 C 
ATOM     16  C   UNL     1       3.886   5.881  17.755  0.00  0.00    +0.000 A 
ENDBRANCH   7  10
BRANCH   1  18
ATOM     17  C   UNL     1       3.805   3.298  11.028  0.00  0.00    +0.000 C 
ATOM     18  C   UNL     1       5.072   2.772  11.648  0.00  0.00    +0.000 C 
ATOM     19  O   UNL     1       5.522   1.675  11.333  0.00  0.00    +0.000 OA
ENDBRANCH   1  18
TORSDOF 2
ENDMDL
MODEL 4
REMARK VINA RESULT:      -8.0      2.280      5.913
REMARK  Name = 
REMARK  4 active torsions:
REMARK  status: ('A' for Active; 'I' for Inactive)
REMARK    1  A    between atoms: C_1  and  C_2
REMARK    2  A    between atoms: C_2  and  C_4
REMARK    3  A    between atoms: C_10  and  C_11
REMARK    4  A    between atoms: C_15  and  C_16
REMARK                            x       y       z     vdW  Elec       q    Type
REMARK                         _______ _______ _______ _____ _____    ______ ____
ROOT
ATOM      1  C   UNL     1       4.015   5.774  18.031  0.00  0.00    +0.000 A 
ATOM      2  C   UNL     1       4.673   5.688  19.305  0.00  0.00    +0.000 A 
ATOM      3  C   UNL     1       6.007   5.239  19.472  0.00  0.00    +0.000 A 
ATOM      4  C   UNL     1       6.650   4.889  18.273  0.00  0.00    +0.000 A 
ATOM      5  N   UNL     1       7.889   4.421  18.059  0.00  0.00    +0.000 NA
ATOM      6  O   UNL     1       8.014   4.247  16.691  0.00  0.00    +0.000 OA
ATOM      7  C   UNL     1       6.861   4.613  16.048  0.00  0.00    +0.000 A 
ATOM      8  C   UNL     1       5.966   5.005  17.009  0.00  0.00    +0.000 A 
ATOM      9  C   UNL     1       4.651   5.427  16.816  0.00  0.00    +0.000 A 
ENDROOT
BRANCH   7  10
ATOM     10  C   UNL     1       6.896   4.528  14.594  0.00  0.00    +0.000 A 
ATOM     11  C   UNL     1       7.764   5.340  13.849  0.00  0.00    +0.000 A 
ATOM     12  C   UNL     1       7.786   5.268  12.455  0.00  0.00    +0.000 A 
ATOM     13  C   UNL     1       6.943   4.385  11.784  0.00  0.00    +0.000 A 
ATOM     14  C   UNL     1       6.068   3.566  12.501  0.00  0.00    +0.000 A 
ATOM     15  C   UNL     1       5.142   2.615  11.801  0.00  0.00    +0.000 C 
ATOM     16  C   UNL     1       6.051   3.647  13.902  0.00  0.00    +0.000 A 
ENDBRANCH   7  10
BRANCH   1  18
ATOM     17  C   UNL     1       2.308   7.722  17.954  0.00  0.00    +0.000 C 
ATOM     18  C   UNL     1       2.597   6.244  17.920  0.00  0.00    +0.000 C 
ATOM     19  O   UNL     1       1.690   5.425  17.800  0.00  0.00    +0.000 OA
ENDBRANCH   1  18
TORSDOF 2
ENDMDL
MODEL 5
REMARK VINA RESULT:      -8.0      2.032      5.655
REMARK  Name = 
REMARK  4 active torsions:
REMARK  status: ('A' for Active; 'I' for Inactive)
REMARK    1  A    between atoms: C_1  and  C_2
REMARK    2  A    between atoms: C_2  and  C_4
REMARK    3  A    between atoms: C_10  and  C_11
REMARK    4  A    between atoms: C_15  and  C_16
REMARK                            x       y       z     vdW  Elec       q    Type
REMARK                         _______ _______ _______ _____ _____    ______ ____
ROOT
ATOM      1  C   UNL     1       4.144   3.658  18.078  0.00  0.00    +0.000 A 
ATOM      2  C   UNL     1       4.490   4.432  19.238  0.00  0.00    +0.000 A 
ATOM      3  C   UNL     1       5.538   5.386  19.262  0.00  0.00    +0.000 A 
ATOM      4  C   UNL     1       6.217   5.526  18.040  0.00  0.00    +0.000 A 
ATOM      5  N   UNL     1       7.251   6.313  17.709  0.00  0.00    +0.000 NA
ATOM      6  O   UNL     1       7.525   6.063  16.374  0.00  0.00    +0.000 OA
ATOM      7  C   UNL     1       6.662   5.128  15.869  0.00  0.00    +0.000 A 
ATOM      8  C   UNL     1       5.831   4.746  16.890  0.00  0.00    +0.000 A 
ATOM      9  C   UNL     1       4.818   3.790  16.841  0.00  0.00    +0.000 A 
ENDROOT
BRANCH   7  10
ATOM     10  C   UNL     1       6.819   4.827  14.452  0.00  0.00    +0.000 A 
ATOM     11  C   UNL     1       7.765   5.510  13.674  0.00  0.00    +0.000 A 
ATOM     12  C   UNL     1       7.905   5.231  12.313  0.00  0.00    +0.000 A 
ATOM     13  C   UNL     1       7.101   4.266  11.709  0.00  0.00    +0.000 A 
ATOM     14  C   UNL     1       6.149   3.572  12.459  0.00  0.00    +0.000 A 
ATOM     15  C   UNL     1       5.265   2.537  11.829  0.00  0.00    +0.000 C 
ATOM     16  C   UNL     1       6.015   3.862  13.826  0.00  0.00    +0.000 A 
ENDBRANCH   7  10
BRANCH   1  18
ATOM     17  C   UNL     1       1.607   3.136  18.130  0.00  0.00    +0.000 C 
ATOM     18  C   UNL     1       3.033   2.654  18.118  0.00  0.00    +0.000 C 
ATOM     19  O   UNL     1       3.296   1.455  18.138  0.00  0.00    +0.000 OA
ENDBRANCH   1  18
TORSDOF 2
ENDMDL
MODEL 6
REMARK VINA RESULT:      -7.9      1.873      5.738
REMARK  Name = 
REMARK  4 active torsions:
REMARK  status: ('A' for Active; 'I' for Inactive)
REMARK    1  A    between atoms: C_1  and  C_2
REMARK    2  A    between atoms: C_2  and  C_4
REMARK    3  A    between atoms: C_10  and  C_11
REMARK    4  A    between atoms: C_15  and  C_16
REMARK                            x       y       z     vdW  Elec       q    Type
REMARK                         _______ _______ _______ _____ _____    ______ ____
ROOT
ATOM      1  C   UNL     1       3.570   3.497  18.106  0.00  0.00    +0.000 A 
ATOM      2  C   UNL     1       3.383   4.582  19.029  0.00  0.00    +0.000 A 
ATOM      3  C   UNL     1       3.935   5.875  18.845  0.00  0.00    +0.000 A 
ATOM      4  C   UNL     1       4.683   6.018  17.664  0.00  0.00    +0.000 A 
ATOM      5  N   UNL     1       5.346   7.079  17.183  0.00  0.00    +0.000 NA
ATOM      6  O   UNL     1       5.906   6.682  15.980  0.00  0.00    +0.000 OA
ATOM      7  C   UNL     1       5.589   5.378  15.705  0.00  0.00    +0.000 A 
ATOM      8  C   UNL     1       4.835   4.913  16.751  0.00  0.00    +0.000 A 
ATOM      9  C   UNL     1       4.319   3.628  16.913  0.00  0.00    +0.000 A 
ENDROOT
BRANCH   7  10
ATOM     10  C   UNL     1       6.077   4.867  14.431  0.00  0.00    +0.000 A 
ATOM     11  C   UNL     1       7.356   5.205  13.966  0.00  0.00    +0.000 A 
ATOM     12  C   UNL     1       7.818   4.727  12.738  0.00  0.00    +0.000 A 
ATOM     13  C   UNL     1       7.009   3.904  11.956  0.00  0.00    +0.000 A 
ATOM     14  C   UNL     1       5.730   3.553  12.395  0.00  0.00    +0.000 A 
ATOM     15  C   UNL     1       4.837   2.678  11.566  0.00  0.00    +0.000 C 
ATOM     16  C   UNL     1       5.275   4.041  13.629  0.00  0.00    +0.000 A 
ENDBRANCH   7  10
BRANCH   1  18
ATOM     17  C   UNL     1       1.504   2.043  18.681  0.00  0.00    +0.000 C 
ATOM     18  C   UNL     1       2.972   2.147  18.362  0.00  0.00    +0.000 C 
ATOM     19  O   UNL     1       3.681   1.146  18.308  0.00  0.00    +0.000 OA
ENDBRANCH   1  18
TORSDOF 2
ENDMDL
MODEL 7
REMARK VINA RESULT:      -7.7      2.867      7.091
REMARK  Name = 
REMARK  4 active torsions:
REMARK  status: ('A' for Active; 'I' for Inactive)
REMARK    1  A    between atoms: C_1  and  C_2
REMARK    2  A    between atoms: C_2  and  C_4
REMARK    3  A    between atoms: C_10  and  C_11
REMARK    4  A    between atoms: C_15  and  C_16
REMARK                            x       y       z     vdW  Elec       q    Type
REMARK                         _______ _______ _______ _____ _____    ______ ____
ROOT
ATOM      1  C   UNL     1       2.072   6.230  19.889  0.00  0.00    +0.000 A 
ATOM      2  C   UNL     1       1.366   5.251  20.669  0.00  0.00    +0.000 A 
ATOM      3  C   UNL     1       1.569   3.853  20.546  0.00  0.00    +0.000 A 
ATOM      4  C   UNL     1       2.538   3.495  19.594  0.00  0.00    +0.000 A 
ATOM      5  N   UNL     1       2.971   2.284  19.213  0.00  0.00    +0.000 NA
ATOM      6  O   UNL     1       3.940   2.497  18.246  0.00  0.00    +0.000 OA
ATOM      7  C   UNL     1       4.120   3.837  18.028  0.00  0.00    +0.000 A 
ATOM      8  C   UNL     1       3.241   4.504  18.842  0.00  0.00    +0.000 A 
ATOM      9  C   UNL     1       3.052   5.883  18.929  0.00  0.00    +0.000 A 
ENDROOT
BRANCH   7  10
ATOM     10  C   UNL     1       5.160   4.185  17.069  0.00  0.00    +0.000 A 
ATOM     11  C   UNL     1       6.287   4.918  17.468  0.00  0.00    +0.000 A 
ATOM     12  C   UNL     1       7.277   5.264  16.546  0.00  0.00    +0.000 A 
ATOM     13  C   UNL     1       7.155   4.883  15.211  0.00  0.00    +0.000 A 
ATOM     14  C   UNL     1       6.041   4.154  14.785  0.00  0.00    +0.000 A 
ATOM     15  C   UNL     1       5.882   3.743  13.351  0.00  0.00    +0.000 C 
ATOM     16  C   UNL     1       5.052   3.814  15.720  0.00  0.00    +0.000 A 
ENDBRANCH   7  10
BRANCH   1  18
ATOM     17  C   UNL     1       1.212   8.192  21.347  0.00  0.00    +0.000 C 
ATOM     18  C   UNL     1       1.805   7.695  20.055  0.00  0.00    +0.000 C 
ATOM     19  O   UNL     1       2.071   8.470  19.142  0.00  0.00    +0.000 OA
ENDBRANCH   1  18
TORSDOF 2
ENDMDL
MODEL 8
REMARK VINA RESULT:      -7.7      1.057      1.118
REMARK  Name = 
REMARK  4 active torsions:
REMARK  status: ('A' for Active; 'I' for Inactive)
REMARK    1  A    between atoms: C_1  and  C_2
REMARK    2  A    between atoms: C_2  and  C_4
REMARK    3  A    between atoms: C_10  and  C_11
REMARK    4  A    between atoms: C_15  and  C_16
REMARK                            x       y       z     vdW  Elec       q    Type
REMARK                         _______ _______ _______ _____ _____    ______ ____
ROOT
ATOM      1  C   UNL     1       5.971   3.529  12.436  0.00  0.00    +0.000 A 
ATOM      2  C   UNL     1       7.090   4.244  11.890  0.00  0.00    +0.000 A 
ATOM      3  C   UNL     1       7.894   5.139  12.639  0.00  0.00    +0.000 A 
ATOM      4  C   UNL     1       7.510   5.267  13.985  0.00  0.00    +0.000 A 
ATOM      5  N   UNL     1       8.027   6.022  14.965  0.00  0.00    +0.000 NA
ATOM      6  O   UNL     1       7.275   5.766  16.099  0.00  0.00    +0.000 OA
ATOM      7  C   UNL     1       6.294   4.848  15.833  0.00  0.00    +0.000 A 
ATOM      8  C   UNL     1       6.392   4.520  14.505  0.00  0.00    +0.000 A 
ATOM      9  C   UNL     1       5.574   3.647  13.790  0.00  0.00    +0.000 A 
ENDROOT
BRANCH   7  10
ATOM     10  C   UNL     1       5.473   4.456  16.971  0.00  0.00    +0.000 A 
ATOM     11  C   UNL     1       5.790   4.888  18.267  0.00  0.00    +0.000 A 
ATOM     12  C   UNL     1       5.012   4.499  19.359  0.00  0.00    +0.000 A 
ATOM     13  C   UNL     1       3.905   3.674  19.173  0.00  0.00    +0.000 A 
ATOM     14  C   UNL     1       3.567   3.228  17.893  0.00  0.00    +0.000 A 
ATOM     15  C   UNL     1       2.386   2.329  17.669  0.00  0.00    +0.000 C 
ATOM     16  C   UNL     1       4.357   3.622  16.803  0.00  0.00    +0.000 A 
ENDBRANCH   7  10
BRANCH   1  18
ATOM     17  C   UNL     1       3.828   3.083  11.049  0.00  0.00    +0.000 C 
ATOM     18  C   UNL     1       5.150   2.605  11.590  0.00  0.00    +0.000 C 
ATOM     19  O   UNL     1       5.562   1.475  11.345  0.00  0.00    +0.000 OA
ENDBRANCH   1  18
TORSDOF 2
ENDMDL
MODEL 9
REMARK VINA RESULT:      -7.7      3.923      6.232
REMARK  Name = 
REMARK  4 active torsions:
REMARK  status: ('A' for Active; 'I' for Inactive)
REMARK    1  A    between atoms: C_1  and  C_2
REMARK    2  A    between atoms: C_2  and  C_4
REMARK    3  A    between atoms: C_10  and  C_11
REMARK    4  A    between atoms: C_15  and  C_16
REMARK                            x       y       z     vdW  Elec       q    Type
REMARK                         _______ _______ _______ _____ _____    ______ ____
ROOT
ATOM      1  C   UNL     1       2.146   3.559  18.500  0.00  0.00    +0.000 A 
ATOM      2  C   UNL     1       3.267   3.076  17.743  0.00  0.00    +0.000 A 
ATOM      3  C   UNL     1       4.208   3.922  17.105  0.00  0.00    +0.000 A 
ATOM      4  C   UNL     1       3.960   5.294  17.282  0.00  0.00    +0.000 A 
ATOM      5  N   UNL     1       4.626   6.362  16.818  0.00  0.00    +0.000 NA
ATOM      6  O   UNL     1       3.961   7.479  17.294  0.00  0.00    +0.000 OA
ATOM      7  C   UNL     1       2.887   7.114  18.060  0.00  0.00    +0.000 A 
ATOM      8  C   UNL     1       2.835   5.744  18.063  0.00  0.00    +0.000 A 
ATOM      9  C   UNL     1       1.886   4.937  18.688  0.00  0.00    +0.000 A 
ENDROOT
BRANCH   7  10
ATOM     10  C   UNL     1       2.143   8.211  18.665  0.00  0.00    +0.000 A 
ATOM     11  C   UNL     1       1.829   9.359  17.923  0.00  0.00    +0.000 A 
ATOM     12  C   UNL     1       1.129  10.417  18.508  0.00  0.00    +0.000 A 
ATOM     13  C   UNL     1       0.732  10.343  19.842  0.00  0.00    +0.000 A 
ATOM     14  C   UNL     1       1.033   9.212  20.604  0.00  0.00    +0.000 A 
ATOM     15  C   UNL     1       0.627   9.114  22.045  0.00  0.00    +0.000 C 
ATOM     16  C   UNL     1       1.739   8.156  20.008  0.00  0.00    +0.000 A 
ENDBRANCH   7  10
BRANCH   1  18
ATOM     17  C   UNL     1       1.229   2.408  20.633  0.00  0.00    +0.000 C 
ATOM     18  C   UNL     1       1.177   2.614  19.142  0.00  0.00    +0.000 C 
ATOM     19  O   UNL     1       0.354   2.021  18.450  0.00  0.00    +0.000 OA
ENDBRANCH   1  18
TORSDOF 2
ENDMDL
