MODEL 1
REMARK VINA RESULT:      -8.6      0.000      0.000
REMARK  Name = 
REMARK  7 active torsions:
REMARK  status: ('A' for Active; 'I' for Inactive)
REMARK    1  A    between atoms: C_1  and  C_2
REMARK    2  A    between atoms: C_5  and  N_6
REMARK    3  A    between atoms: N_6  and  C_7
REMARK    4  A    between atoms: C_7  and  N_9
REMARK    5  A    between atoms: C_10  and  C_12
REMARK    6  A    between atoms: N_14  and  C_15
REMARK    7  A    between atoms: C_22  and  C_23
REMARK                            x       y       z     vdW  Elec       q    Type
REMARK                         _______ _______ _______ _____ _____    ______ ____
ROOT
ATOM      1  C   UNL     1       3.601   6.938  18.099  0.00  0.00    +0.000 A 
ATOM      2  C   UNL     1       3.057   8.131  18.533  0.00  0.00    +0.000 A 
ATOM      3  N   UNL     1       2.073   7.827  19.445  0.00  0.00    +0.000 N 
ATOM      4  N   UNL     1       1.996   6.491  19.656  0.00  0.00    +0.000 NA
ATOM      5  C   UNL     1       2.889   5.934  18.822  0.00  0.00    +0.000 A 
ENDROOT
BRANCH   3   6
ATOM      6  C   UNL     1       1.186   8.733  20.096  0.00  0.00    +0.000 A 
ATOM      7  C   UNL     1       0.644   9.831  19.410  0.00  0.00    +0.000 A 
ATOM      8  C   UNL     1      -0.264  10.681  20.049  0.00  0.00    +0.000 A 
ATOM      9  C   UNL     1      -0.630  10.450  21.372  0.00  0.00    +0.000 A 
ATOM     10  C   UNL     1      -0.087   9.369  22.065  0.00  0.00    +0.000 A 
ATOM     11  C   UNL     1       0.819   8.512  21.432  0.00  0.00    +0.000 A 
ENDBRANCH   3   6
BRANCH   5  12
ATOM     12  C   UNL     1       3.020   4.472  18.726  0.00  0.00    +0.000 A 
ATOM     13  C   UNL     1       3.969   3.776  19.490  0.00  0.00    +0.000 A 
ATOM     14  C   UNL     1       4.050   2.383  19.439  0.00  0.00    +0.000 A 
ATOM     15  C   UNL     1       3.201   1.667  18.599  0.00  0.00    +0.000 A 
ATOM     16  C   UNL     1       2.280   2.346  17.802  0.00  0.00    +0.000 A 
ATOM     17  C   UNL     1       2.192   3.741  17.864  0.00  0.00    +0.000 A 
ENDBRANCH   5  12
BRANCH   1  19
ATOM     18  N   UNL     1       5.849   6.265  17.665  0.00  0.00    +0.000 N 
ATOM     19  C   UNL     1       4.673   6.770  17.137  0.00  0.00    +0.000 C 
ATOM     20  O   UNL     1       4.541   7.042  15.946  0.00  0.00    +0.000 OA
ATOM     21  H   UNL     1       5.846   5.961  18.630  0.00  0.00    +0.000 HD
BRANCH  18  22
ATOM     22  C   UNL     1       7.122   6.440  17.159  0.00  0.00    +0.000 C 
ATOM     23  S   UNL     1       7.893   7.877  17.536  0.00  0.00    +0.000 S 
BRANCH  22  24
ATOM     24  N   UNL     1       7.608   5.397  16.407  0.00  0.00    +0.000 N 
ATOM     25  H   UNL     1       8.492   5.006  16.739  0.00  0.00    +0.000 HD
BRANCH  24  30
ATOM     26  C   UNL     1       5.214   3.081  11.750  0.00  0.00    +0.000 C 
ATOM     27  C   UNL     1       5.859   3.663  12.973  0.00  0.00    +0.000 A 
ATOM     28  C   UNL     1       5.386   3.369  14.255  0.00  0.00    +0.000 A 
ATOM     29  C   UNL     1       5.984   3.949  15.380  0.00  0.00    +0.000 A 
ATOM     30  C   UNL     1       7.088   4.796  15.244  0.00  0.00    +0.000 A 
ATOM     31  C   UNL     1       7.554   5.097  13.963  0.00  0.00    +0.000 A 
ATOM     32  C   UNL     1       6.938   4.542  12.837  0.00  0.00    +0.000 A 
ENDBRANCH  24  30
ENDBRANCH  22  24
ENDBRANCH  18  22
ENDBRANCH   1  19
TORSDOF 6
ENDMDL
MODEL 2
REMARK VINA RESULT:      -8.6      0.593      1.396
REMARK  Name = 
REMARK  7 active torsions:
REMARK  status: ('A' for Active; 'I' for Inactive)
REMARK    1  A    between atoms: C_1  and  C_2
REMARK    2  A    between atoms: C_5  and  N_6
REMARK    3  A    between atoms: N_6  and  C_7
REMARK    4  A    between atoms: C_7  and  N_9
REMARK    5  A    between atoms: C_10  and  C_12
REMARK    6  A    between atoms: N_14  and  C_15
REMARK    7  A    between atoms: C_22  and  C_23
REMARK                            x       y       z     vdW  Elec       q    Type
REMARK                         _______ _______ _______ _____ _____    ______ ____
ROOT
ATOM      1  C   UNL     1       3.562   7.203  17.670  0.00  0.00    +0.000 A 
ATOM      2  C   UNL     1       2.994   8.437  17.914  0.00  0.00    +0.000 A 
ATOM      3  N   UNL     1       1.918   8.237  18.748  0.00  0.00    +0.000 N 
ATOM      4  N   UNL     1       1.803   6.932  19.095  0.00  0.00    +0.000 NA
ATOM      5  C   UNL     1       2.768   6.285  18.421  0.00  0.00    +0.000 A 
ENDROOT
BRANCH   3   6
ATOM      6  C   UNL     1       0.982   9.211  19.203  0.00  0.00    +0.000 A 
ATOM      7  C   UNL     1       0.842   9.494  20.571  0.00  0.00    +0.000 A 
ATOM      8  C   UNL     1      -0.045  10.488  20.996  0.00  0.00    +0.000 A 
ATOM      9  C   UNL     1      -0.802  11.197  20.067  0.00  0.00    +0.000 A 
ATOM     10  C   UNL     1      -0.678  10.913  18.708  0.00  0.00    +0.000 A 
ATOM     11  C   UNL     1       0.209   9.923  18.274  0.00  0.00    +0.000 A 
ENDBRANCH   3   6
BRANCH   5  12
ATOM     12  C   UNL     1       2.889   4.821  18.499  0.00  0.00    +0.000 A 
ATOM     13  C   UNL     1       2.309   3.992  17.528  0.00  0.00    +0.000 A 
ATOM     14  C   UNL     1       2.477   2.606  17.574  0.00  0.00    +0.000 A 
ATOM     15  C   UNL     1       3.203   2.028  18.612  0.00  0.00    +0.000 A 
ATOM     16  C   UNL     1       3.750   2.834  19.608  0.00  0.00    +0.000 A 
ATOM     17  C   UNL     1       3.593   4.223  19.554  0.00  0.00    +0.000 A 
ENDBRANCH   5  12
BRANCH   1  19
ATOM     18  N   UNL     1       5.804   6.396  17.530  0.00  0.00    +0.000 N 
ATOM     19  C   UNL     1       4.724   6.927  16.846  0.00  0.00    +0.000 C 
ATOM     20  O   UNL     1       4.740   7.137  15.636  0.00  0.00    +0.000 OA
ATOM     21  H   UNL     1       5.678   6.148  18.503  0.00  0.00    +0.000 HD
BRANCH  18  22
ATOM     22  C   UNL     1       7.134   6.479  17.164  0.00  0.00    +0.000 C 
ATOM     23  S   UNL     1       7.969   7.842  17.662  0.00  0.00    +0.000 S 
BRANCH  22  24
ATOM     24  N   UNL     1       7.614   5.417  16.436  0.00  0.00    +0.000 N 
ATOM     25  H   UNL     1       8.484   5.015  16.790  0.00  0.00    +0.000 HD
BRANCH  24  30
ATOM     26  C   UNL     1       5.261   3.064  11.776  0.00  0.00    +0.000 C 
ATOM     27  C   UNL     1       5.896   3.656  13.000  0.00  0.00    +0.000 A 
ATOM     28  C   UNL     1       5.442   3.337  14.283  0.00  0.00    +0.000 A 
ATOM     29  C   UNL     1       6.029   3.927  15.408  0.00  0.00    +0.000 A 
ATOM     30  C   UNL     1       7.105   4.810  15.271  0.00  0.00    +0.000 A 
ATOM     31  C   UNL     1       7.551   5.136  13.989  0.00  0.00    +0.000 A 
ATOM     32  C   UNL     1       6.945   4.571  12.864  0.00  0.00    +0.000 A 
ENDBRANCH  24  30
ENDBRANCH  22  24
ENDBRANCH  18  22
ENDBRANCH   1  19
TORSDOF 6
ENDMDL
MODEL 3
REMARK VINA RESULT:      -8.5      0.410      1.308
REMARK  Name = 
REMARK  7 active torsions:
REMARK  status: ('A' for Active; 'I' for Inactive)
REMARK    1  A    between atoms: C_1  and  C_2
REMARK    2  A    between atoms: C_5  and  N_6
REMARK    3  A    between atoms: N_6  and  C_7
REMARK    4  A    between atoms: C_7  and  N_9
REMARK    5  A    between atoms: C_10  and  C_12
REMARK    6  A    between atoms: N_14  and  C_15
REMARK    7  A    between atoms: C_22  and  C_23
REMARK                            x       y       z     vdW  Elec       q    Type
REMARK                         _______ _______ _______ _____ _____    ______ ____
ROOT
ATOM      1  C   UNL     1       3.562   7.110  17.845  0.00  0.00    +0.000 A 
ATOM      2  C   UNL     1       2.989   8.320  18.183  0.00  0.00    +0.000 A 
ATOM      3  N   UNL     1       1.964   8.058  19.063  0.00  0.00    +0.000 N 
ATOM      4  N   UNL     1       1.889   6.736  19.347  0.00  0.00    +0.000 NA
ATOM      5  C   UNL     1       2.825   6.141  18.589  0.00  0.00    +0.000 A 
ENDROOT
BRANCH   3   6
ATOM      6  C   UNL     1       1.040   8.990  19.618  0.00  0.00    +0.000 A 
ATOM      7  C   UNL     1       0.740   8.980  20.989  0.00  0.00    +0.000 A 
ATOM      8  C   UNL     1      -0.130   9.933  21.525  0.00  0.00    +0.000 A 
ATOM      9  C   UNL     1      -0.713  10.894  20.702  0.00  0.00    +0.000 A 
ATOM     10  C   UNL     1      -0.430  10.903  19.337  0.00  0.00    +0.000 A 
ATOM     11  C   UNL     1       0.442   9.955  18.793  0.00  0.00    +0.000 A 
ENDBRANCH   3   6
BRANCH   5  12
ATOM     12  C   UNL     1       2.972   4.678  18.585  0.00  0.00    +0.000 A 
ATOM     13  C   UNL     1       3.640   4.011  19.623  0.00  0.00    +0.000 A 
ATOM     14  C   UNL     1       3.726   2.617  19.643  0.00  0.00    +0.000 A 
ATOM     15  C   UNL     1       3.169   1.871  18.608  0.00  0.00    +0.000 A 
ATOM     16  C   UNL     1       2.538   2.519  17.548  0.00  0.00    +0.000 A 
ATOM     17  C   UNL     1       2.442   3.915  17.535  0.00  0.00    +0.000 A 
ENDBRANCH   5  12
BRANCH   1  19
ATOM     18  N   UNL     1       5.840   6.457  17.560  0.00  0.00    +0.000 N 
ATOM     19  C   UNL     1       4.681   6.898  16.946  0.00  0.00    +0.000 C 
ATOM     20  O   UNL     1       4.598   7.083  15.734  0.00  0.00    +0.000 OA
ATOM     21  H   UNL     1       5.798   6.221  18.543  0.00  0.00    +0.000 HD
BRANCH  18  22
ATOM     22  C   UNL     1       7.132   6.623  17.100  0.00  0.00    +0.000 C 
ATOM     23  S   UNL     1       7.931   8.013  17.583  0.00  0.00    +0.000 S 
BRANCH  22  24
ATOM     24  N   UNL     1       7.610   5.612  16.302  0.00  0.00    +0.000 N 
ATOM     25  H   UNL     1       8.549   5.287  16.540  0.00  0.00    +0.000 HD
BRANCH  24  30
ATOM     26  C   UNL     1       5.483   2.882  11.740  0.00  0.00    +0.000 C 
ATOM     27  C   UNL     1       6.021   3.620  12.930  0.00  0.00    +0.000 A 
ATOM     28  C   UNL     1       7.032   4.575  12.798  0.00  0.00    +0.000 A 
ATOM     29  C   UNL     1       7.540   5.228  13.927  0.00  0.00    +0.000 A 
ATOM     30  C   UNL     1       7.017   4.969  15.198  0.00  0.00    +0.000 A 
ATOM     31  C   UNL     1       6.014   4.007  15.331  0.00  0.00    +0.000 A 
ATOM     32  C   UNL     1       5.527   3.332  14.207  0.00  0.00    +0.000 A 
ENDBRANCH  24  30
ENDBRANCH  22  24
ENDBRANCH  18  22
ENDBRANCH   1  19
TORSDOF 6
ENDMDL
MODEL 4
REMARK VINA RESULT:      -8.2      1.718      2.290
REMARK  Name = 
REMARK  7 active torsions:
REMARK  status: ('A' for Active; 'I' for Inactive)
REMARK    1  A    between atoms: C_1  and  C_2
REMARK    2  A    between atoms: C_5  and  N_6
REMARK    3  A    between atoms: N_6  and  C_7
REMARK    4  A    between atoms: C_7  and  N_9
REMARK    5  A    between atoms: C_10  and  C_12
REMARK    6  A    between atoms: N_14  and  C_15
REMARK    7  A    between atoms: C_22  and  C_23
REMARK                            x       y       z     vdW  Elec       q    Type
REMARK                         _______ _______ _______ _____ _____    ______ ____
ROOT
ATOM      1  C   UNL     1       3.068   6.520  18.320  0.00  0.00    +0.000 A 
ATOM      2  C   UNL     1       2.900   7.868  18.075  0.00  0.00    +0.000 A 
ATOM      3  N   UNL     1       1.940   8.328  18.947  0.00  0.00    +0.000 N 
ATOM      4  N   UNL     1       1.523   7.344  19.780  0.00  0.00    +0.000 NA
ATOM      5  C   UNL     1       2.168   6.232  19.390  0.00  0.00    +0.000 A 
ENDROOT
BRANCH   3   6
ATOM      6  C   UNL     1       1.381   9.638  19.007  0.00  0.00    +0.000 A 
ATOM      7  C   UNL     1       2.004  10.719  18.366  0.00  0.00    +0.000 A 
ATOM      8  C   UNL     1       1.416  11.987  18.392  0.00  0.00    +0.000 A 
ATOM      9  C   UNL     1       0.212  12.188  19.062  0.00  0.00    +0.000 A 
ATOM     10  C   UNL     1      -0.407  11.122  19.713  0.00  0.00    +0.000 A 
ATOM     11  C   UNL     1       0.173   9.850  19.688  0.00  0.00    +0.000 A 
ENDBRANCH   3   6
BRANCH   5  12
ATOM     12  C   UNL     1       1.894   4.938  20.032  0.00  0.00    +0.000 A 
ATOM     13  C   UNL     1       1.096   3.970  19.404  0.00  0.00    +0.000 A 
ATOM     14  C   UNL     1       0.886   2.721  19.993  0.00  0.00    +0.000 A 
ATOM     15  C   UNL     1       1.450   2.433  21.232  0.00  0.00    +0.000 A 
ATOM     16  C   UNL     1       2.212   3.397  21.889  0.00  0.00    +0.000 A 
ATOM     17  C   UNL     1       2.431   4.644  21.293  0.00  0.00    +0.000 A 
ENDBRANCH   5  12
BRANCH   1  19
ATOM     18  N   UNL     1       5.322   5.883  17.860  0.00  0.00    +0.000 N 
ATOM     19  C   UNL     1       3.981   5.619  17.641  0.00  0.00    +0.000 C 
ATOM     20  O   UNL     1       3.591   4.689  16.939  0.00  0.00    +0.000 OA
ATOM     21  H   UNL     1       5.563   6.594  18.537  0.00  0.00    +0.000 HD
BRANCH  18  22
ATOM     22  C   UNL     1       6.374   5.551  17.029  0.00  0.00    +0.000 C 
ATOM     23  S   UNL     1       7.665   4.749  17.729  0.00  0.00    +0.000 S 
BRANCH  22  24
ATOM     24  N   UNL     1       6.225   5.917  15.712  0.00  0.00    +0.000 N 
ATOM     25  H   UNL     1       5.971   6.895  15.566  0.00  0.00    +0.000 HD
BRANCH  24  30
ATOM     26  C   UNL     1       7.009   2.692  11.045  0.00  0.00    +0.000 C 
ATOM     27  C   UNL     1       6.791   3.558  12.250  0.00  0.00    +0.000 A 
ATOM     28  C   UNL     1       7.711   4.546  12.614  0.00  0.00    +0.000 A 
ATOM     29  C   UNL     1       7.501   5.320  13.761  0.00  0.00    +0.000 A 
ATOM     30  C   UNL     1       6.350   5.150  14.537  0.00  0.00    +0.000 A 
ATOM     31  C   UNL     1       5.436   4.157  14.179  0.00  0.00    +0.000 A 
ATOM     32  C   UNL     1       5.660   3.362  13.050  0.00  0.00    +0.000 A 
ENDBRANCH  24  30
ENDBRANCH  22  24
ENDBRANCH  18  22
ENDBRANCH   1  19
TORSDOF 6
ENDMDL
MODEL 5
REMARK VINA RESULT:      -8.2      0.817      1.505
REMARK  Name = 
REMARK  7 active torsions:
REMARK  status: ('A' for Active; 'I' for Inactive)
REMARK    1  A    between atoms: C_1  and  C_2
REMARK    2  A    between atoms: C_5  and  N_6
REMARK    3  A    between atoms: N_6  and  C_7
REMARK    4  A    between atoms: C_7  and  N_9
REMARK    5  A    between atoms: C_10  and  C_12
REMARK    6  A    between atoms: N_14  and  C_15
REMARK    7  A    between atoms: C_22  and  C_23
REMARK                            x       y       z     vdW  Elec       q    Type
REMARK                         _______ _______ _______ _____ _____    ______ ____
ROOT
ATOM      1  C   UNL     1       3.611   7.061  17.718  0.00  0.00    +0.000 A 
ATOM      2  C   UNL     1       3.079   8.313  17.955  0.00  0.00    +0.000 A 
ATOM      3  N   UNL     1       1.996   8.149  18.788  0.00  0.00    +0.000 N 
ATOM      4  N   UNL     1       1.841   6.850  19.139  0.00  0.00    +0.000 NA
ATOM      5  C   UNL     1       2.787   6.171  18.471  0.00  0.00    +0.000 A 
ENDROOT
BRANCH   3   6
ATOM      6  C   UNL     1       1.089   9.153  19.236  0.00  0.00    +0.000 A 
ATOM      7  C   UNL     1       0.472  10.027  18.327  0.00  0.00    +0.000 A 
ATOM      8  C   UNL     1      -0.453  10.972  18.777  0.00  0.00    +0.000 A 
ATOM      9  C   UNL     1      -0.764  11.060  20.133  0.00  0.00    +0.000 A 
ATOM     10  C   UNL     1      -0.146  10.204  21.044  0.00  0.00    +0.000 A 
ATOM     11  C   UNL     1       0.778   9.253  20.600  0.00  0.00    +0.000 A 
ENDBRANCH   3   6
BRANCH   5  12
ATOM     12  C   UNL     1       2.863   4.705  18.555  0.00  0.00    +0.000 A 
ATOM     13  C   UNL     1       2.403   3.892  17.509  0.00  0.00    +0.000 A 
ATOM     14  C   UNL     1       2.531   2.502  17.569  0.00  0.00    +0.000 A 
ATOM     15  C   UNL     1       3.096   1.904  18.692  0.00  0.00    +0.000 A 
ATOM     16  C   UNL     1       3.521   2.694  19.759  0.00  0.00    +0.000 A 
ATOM     17  C   UNL     1       3.403   4.087  19.692  0.00  0.00    +0.000 A 
ENDBRANCH   5  12
BRANCH   1  19
ATOM     18  N   UNL     1       5.591   5.764  17.416  0.00  0.00    +0.000 N 
ATOM     19  C   UNL     1       4.765   6.747  16.898  0.00  0.00    +0.000 C 
ATOM     20  O   UNL     1       4.983   7.301  15.823  0.00  0.00    +0.000 OA
ATOM     21  H   UNL     1       5.288   5.276  18.249  0.00  0.00    +0.000 HD
BRANCH  18  22
ATOM     22  C   UNL     1       6.936   5.593  17.152  0.00  0.00    +0.000 C 
ATOM     23  S   UNL     1       7.938   5.347  18.471  0.00  0.00    +0.000 S 
BRANCH  22  24
ATOM     24  N   UNL     1       7.289   5.638  15.825  0.00  0.00    +0.000 N 
ATOM     25  H   UNL     1       8.019   6.316  15.598  0.00  0.00    +0.000 HD
BRANCH  24  30
ATOM     26  C   UNL     1       5.538   2.534  11.342  0.00  0.00    +0.000 C 
ATOM     27  C   UNL     1       5.980   3.371  12.506  0.00  0.00    +0.000 A 
ATOM     28  C   UNL     1       7.077   4.231  12.410  0.00  0.00    +0.000 A 
ATOM     29  C   UNL     1       7.491   4.977  13.519  0.00  0.00    +0.000 A 
ATOM     30  C   UNL     1       6.789   4.909  14.727  0.00  0.00    +0.000 A 
ATOM     31  C   UNL     1       5.699   4.042  14.826  0.00  0.00    +0.000 A 
ATOM     32  C   UNL     1       5.304   3.273  13.727  0.00  0.00    +0.000 A 
ENDBRANCH  24  30
ENDBRANCH  22  24
ENDBRANCH  18  22
ENDBRANCH   1  19
TORSDOF 6
ENDMDL
MODEL 6
REMARK VINA RESULT:      -8.1      1.738      2.095
REMARK  Name = 
REMARK  7 active torsions:
REMARK  status: ('A' for Active; 'I' for Inactive)
REMARK    1  A    between atoms: C_1  and  C_2
REMARK    2  A    between atoms: C_5  and  N_6
REMARK    3  A    between atoms: N_6  and  C_7
REMARK    4  A    between atoms: C_7  and  N_9
REMARK    5  A    between atoms: C_10  and  C_12
REMARK    6  A    between atoms: N_14  and  C_15
REMARK    7  A    between atoms: C_22  and  C_23
REMARK                            x       y       z     vdW  Elec       q    Type
REMARK                         _______ _______ _______ _____ _____    ______ ____
ROOT
ATOM      1  C   UNL     1       3.165   6.535  18.210  0.00  0.00    +0.000 A 
ATOM      2  C   UNL     1       2.999   7.876  17.928  0.00  0.00    +0.000 A 
ATOM      3  N   UNL     1       2.021   8.356  18.770  0.00  0.00    +0.000 N 
ATOM      4  N   UNL     1       1.589   7.392  19.617  0.00  0.00    +0.000 NA
ATOM      5  C   UNL     1       2.244   6.272  19.268  0.00  0.00    +0.000 A 
ENDROOT
BRANCH   3   6
ATOM      6  C   UNL     1       1.459   9.665  18.786  0.00  0.00    +0.000 A 
ATOM      7  C   UNL     1       0.209   9.907  19.377  0.00  0.00    +0.000 A 
ATOM      8  C   UNL     1      -0.306  11.205  19.430  0.00  0.00    +0.000 A 
ATOM      9  C   UNL     1       0.414  12.268  18.888  0.00  0.00    +0.000 A 
ATOM     10  C   UNL     1       1.651  12.034  18.287  0.00  0.00    +0.000 A 
ATOM     11  C   UNL     1       2.173  10.738  18.234  0.00  0.00    +0.000 A 
ENDBRANCH   3   6
BRANCH   5  12
ATOM     12  C   UNL     1       1.958   4.993  19.936  0.00  0.00    +0.000 A 
ATOM     13  C   UNL     1       2.448   4.720  21.222  0.00  0.00    +0.000 A 
ATOM     14  C   UNL     1       2.125   3.528  21.875  0.00  0.00    +0.000 A 
ATOM     15  C   UNL     1       1.330   2.579  21.238  0.00  0.00    +0.000 A 
ATOM     16  C   UNL     1       0.869   2.817  19.944  0.00  0.00    +0.000 A 
ATOM     17  C   UNL     1       1.183   4.016  19.296  0.00  0.00    +0.000 A 
ENDBRANCH   5  12
BRANCH   1  19
ATOM     18  N   UNL     1       5.428   5.890  17.814  0.00  0.00    +0.000 N 
ATOM     19  C   UNL     1       4.092   5.620  17.573  0.00  0.00    +0.000 C 
ATOM     20  O   UNL     1       3.718   4.673  16.884  0.00  0.00    +0.000 OA
ATOM     21  H   UNL     1       5.654   6.617  18.480  0.00  0.00    +0.000 HD
BRANCH  18  22
ATOM     22  C   UNL     1       6.498   5.541  17.014  0.00  0.00    +0.000 C 
ATOM     23  S   UNL     1       7.783   4.773  17.765  0.00  0.00    +0.000 S 
BRANCH  22  24
ATOM     24  N   UNL     1       6.371   5.861  15.683  0.00  0.00    +0.000 N 
ATOM     25  H   UNL     1       6.102   6.829  15.501  0.00  0.00    +0.000 HD
BRANCH  24  30
ATOM     26  C   UNL     1       6.762   2.708  10.920  0.00  0.00    +0.000 C 
ATOM     27  C   UNL     1       6.674   3.512  12.183  0.00  0.00    +0.000 A 
ATOM     28  C   UNL     1       5.615   3.343  13.081  0.00  0.00    +0.000 A 
ATOM     29  C   UNL     1       5.538   4.128  14.238  0.00  0.00    +0.000 A 
ATOM     30  C   UNL     1       6.537   5.060  14.536  0.00  0.00    +0.000 A 
ATOM     31  C   UNL     1       7.588   5.234  13.635  0.00  0.00    +0.000 A 
ATOM     32  C   UNL     1       7.650   4.473  12.464  0.00  0.00    +0.000 A 
ENDBRANCH  24  30
ENDBRANCH  22  24
ENDBRANCH  18  22
ENDBRANCH   1  19
TORSDOF 6
ENDMDL
MODEL 7
REMARK VINA RESULT:      -8.1      2.748      8.091
REMARK  Name = 
REMARK  7 active torsions:
REMARK  status: ('A' for Active; 'I' for Inactive)
REMARK    1  A    between atoms: C_1  and  C_2
REMARK    2  A    between atoms: C_5  and  N_6
REMARK    3  A    between atoms: N_6  and  C_7
REMARK    4  A    between atoms: C_7  and  N_9
REMARK    5  A    between atoms: C_10  and  C_12
REMARK    6  A    between atoms: N_14  and  C_15
REMARK    7  A    between atoms: C_22  and  C_23
REMARK                            x       y       z     vdW  Elec       q    Type
REMARK                         _______ _______ _______ _____ _____    ______ ____
ROOT
ATOM      1  C   UNL     1       3.068   6.592  18.121  0.00  0.00    +0.000 A 
ATOM      2  C   UNL     1       3.931   6.786  17.061  0.00  0.00    +0.000 A 
ATOM      3  N   UNL     1       4.439   5.556  16.713  0.00  0.00    +0.000 N 
ATOM      4  N   UNL     1       3.899   4.571  17.470  0.00  0.00    +0.000 NA
ATOM      5  C   UNL     1       3.094   5.184  18.354  0.00  0.00    +0.000 A 
ENDROOT
BRANCH   3   6
ATOM      6  C   UNL     1       5.429   5.275  15.727  0.00  0.00    +0.000 A 
ATOM      7  C   UNL     1       6.736   5.772  15.853  0.00  0.00    +0.000 A 
ATOM      8  C   UNL     1       7.707   5.446  14.903  0.00  0.00    +0.000 A 
ATOM      9  C   UNL     1       7.384   4.632  13.819  0.00  0.00    +0.000 A 
ATOM     10  C   UNL     1       6.086   4.144  13.680  0.00  0.00    +0.000 A 
ATOM     11  C   UNL     1       5.109   4.464  14.628  0.00  0.00    +0.000 A 
ENDBRANCH   3   6
BRANCH   5  12
ATOM     12  C   UNL     1       2.397   4.416  19.396  0.00  0.00    +0.000 A 
ATOM     13  C   UNL     1       1.245   3.671  19.102  0.00  0.00    +0.000 A 
ATOM     14  C   UNL     1       0.620   2.897  20.082  0.00  0.00    +0.000 A 
ATOM     15  C   UNL     1       1.123   2.880  21.380  0.00  0.00    +0.000 A 
ATOM     16  C   UNL     1       2.243   3.646  21.700  0.00  0.00    +0.000 A 
ATOM     17  C   UNL     1       2.875   4.411  20.714  0.00  0.00    +0.000 A 
ENDBRANCH   5  12
BRANCH   1  19
ATOM     18  N   UNL     1       1.691   8.536  17.989  0.00  0.00    +0.000 N 
ATOM     19  C   UNL     1       2.300   7.608  18.816  0.00  0.00    +0.000 C 
ATOM     20  O   UNL     1       2.190   7.632  20.039  0.00  0.00    +0.000 OA
ATOM     21  H   UNL     1       1.735   8.386  16.990  0.00  0.00    +0.000 HD
BRANCH  18  22
ATOM     22  C   UNL     1       1.327   9.825  18.325  0.00  0.00    +0.000 C 
ATOM     23  S   UNL     1       2.386  11.046  17.889  0.00  0.00    +0.000 S 
BRANCH  22  24
ATOM     24  N   UNL     1       0.122   9.949  18.974  0.00  0.00    +0.000 N 
ATOM     25  H   UNL     1       0.146   9.717  19.969  0.00  0.00    +0.000 HD
BRANCH  24  30
ATOM     26  C   UNL     1      -4.908  11.782  16.943  0.00  0.00    +0.000 C 
ATOM     27  C   UNL     1      -3.605  11.282  17.493  0.00  0.00    +0.000 A 
ATOM     28  C   UNL     1      -3.062  11.807  18.669  0.00  0.00    +0.000 A 
ATOM     29  C   UNL     1      -1.829  11.347  19.146  0.00  0.00    +0.000 A 
ATOM     30  C   UNL     1      -1.142  10.327  18.480  0.00  0.00    +0.000 A 
ATOM     31  C   UNL     1      -1.680   9.810  17.300  0.00  0.00    +0.000 A 
ATOM     32  C   UNL     1      -2.897  10.291  16.807  0.00  0.00    +0.000 A 
ENDBRANCH  24  30
ENDBRANCH  22  24
ENDBRANCH  18  22
ENDBRANCH   1  19
TORSDOF 6
ENDMDL
MODEL 8
REMARK VINA RESULT:      -8.1      4.566     10.606
REMARK  Name = 
REMARK  7 active torsions:
REMARK  status: ('A' for Active; 'I' for Inactive)
REMARK    1  A    between atoms: C_1  and  C_2
REMARK    2  A    between atoms: C_5  and  N_6
REMARK    3  A    between atoms: N_6  and  C_7
REMARK    4  A    between atoms: C_7  and  N_9
REMARK    5  A    between atoms: C_10  and  C_12
REMARK    6  A    between atoms: N_14  and  C_15
REMARK    7  A    between atoms: C_22  and  C_23
REMARK                            x       y       z     vdW  Elec       q    Type
REMARK                         _______ _______ _______ _____ _____    ______ ____
ROOT
ATOM      1  C   UNL     1      -0.275  10.418  18.546  0.00  0.00    +0.000 A 
ATOM      2  C   UNL     1       0.469   9.422  17.947  0.00  0.00    +0.000 A 
ATOM      3  N   UNL     1       1.281   8.876  18.915  0.00  0.00    +0.000 N 
ATOM      4  N   UNL     1       1.050   9.442  20.123  0.00  0.00    +0.000 NA
ATOM      5  C   UNL     1       0.138  10.405  19.912  0.00  0.00    +0.000 A 
ENDROOT
BRANCH   3   6
ATOM      6  C   UNL     1       2.279   7.873  18.744  0.00  0.00    +0.000 A 
ATOM      7  C   UNL     1       2.423   6.832  19.674  0.00  0.00    +0.000 A 
ATOM      8  C   UNL     1       3.374   5.828  19.466  0.00  0.00    +0.000 A 
ATOM      9  C   UNL     1       4.189   5.858  18.337  0.00  0.00    +0.000 A 
ATOM     10  C   UNL     1       4.061   6.896  17.414  0.00  0.00    +0.000 A 
ATOM     11  C   UNL     1       3.110   7.901  17.615  0.00  0.00    +0.000 A 
ENDBRANCH   3   6
BRANCH   5  12
ATOM     12  C   UNL     1      -0.294  11.287  21.007  0.00  0.00    +0.000 A 
ATOM     13  C   UNL     1      -0.114  12.677  20.934  0.00  0.00    +0.000 A 
ATOM     14  C   UNL     1      -0.578  13.515  21.951  0.00  0.00    +0.000 A 
ATOM     15  C   UNL     1      -1.204  12.971  23.069  0.00  0.00    +0.000 A 
ATOM     16  C   UNL     1      -1.354  11.590  23.177  0.00  0.00    +0.000 A 
ATOM     17  C   UNL     1      -0.900  10.752  22.152  0.00  0.00    +0.000 A 
ENDBRANCH   5  12
BRANCH   1  19
ATOM     18  N   UNL     1      -2.449  10.621  17.581  0.00  0.00    +0.000 N 
ATOM     19  C   UNL     1      -1.268  11.264  17.911  0.00  0.00    +0.000 C 
ATOM     20  O   UNL     1      -1.078  12.459  17.696  0.00  0.00    +0.000 OA
ATOM     21  H   UNL     1      -2.573   9.666  17.889  0.00  0.00    +0.000 HD
BRANCH  18  22
ATOM     22  C   UNL     1      -3.338  10.988  16.590  0.00  0.00    +0.000 C 
ATOM     23  S   UNL     1      -3.115  10.296  15.082  0.00  0.00    +0.000 S 
BRANCH  22  24
ATOM     24  N   UNL     1      -4.313  11.878  16.971  0.00  0.00    +0.000 N 
ATOM     25  H   UNL     1      -4.471  12.646  16.316  0.00  0.00    +0.000 HD
BRANCH  24  30
ATOM     26  C   UNL     1      -7.569  11.679  21.678  0.00  0.00    +0.000 C 
ATOM     27  C   UNL     1      -6.731  11.756  20.436  0.00  0.00    +0.000 A 
ATOM     28  C   UNL     1      -7.149  11.168  19.238  0.00  0.00    +0.000 A 
ATOM     29  C   UNL     1      -6.335  11.226  18.100  0.00  0.00    +0.000 A 
ATOM     30  C   UNL     1      -5.115  11.907  18.130  0.00  0.00    +0.000 A 
ATOM     31  C   UNL     1      -4.693  12.485  19.328  0.00  0.00    +0.000 A 
ATOM     32  C   UNL     1      -5.491  12.402  20.473  0.00  0.00    +0.000 A 
ENDBRANCH  24  30
ENDBRANCH  22  24
ENDBRANCH  18  22
ENDBRANCH   1  19
TORSDOF 6
ENDMDL
MODEL 9
REMARK VINA RESULT:      -8.0      2.721      8.045
REMARK  Name = 
REMARK  7 active torsions:
REMARK  status: ('A' for Active; 'I' for Inactive)
REMARK    1  A    between atoms: C_1  and  C_2
REMARK    2  A    between atoms: C_5  and  N_6
REMARK    3  A    between atoms: N_6  and  C_7
REMARK    4  A    between atoms: C_7  and  N_9
REMARK    5  A    between atoms: C_10  and  C_12
REMARK    6  A    between atoms: N_14  and  C_15
REMARK    7  A    between atoms: C_22  and  C_23
REMARK                            x       y       z     vdW  Elec       q    Type
REMARK                         _______ _______ _______ _____ _____    ______ ____
ROOT
ATOM      1  C   UNL     1       3.135   6.482  18.096  0.00  0.00    +0.000 A 
ATOM      2  C   UNL     1       4.005   6.678  17.042  0.00  0.00    +0.000 A 
ATOM      3  N   UNL     1       4.513   5.448  16.693  0.00  0.00    +0.000 N 
ATOM      4  N   UNL     1       3.965   4.462  17.443  0.00  0.00    +0.000 NA
ATOM      5  C   UNL     1       3.156   5.073  18.323  0.00  0.00    +0.000 A 
ENDROOT
BRANCH   3   6
ATOM      6  C   UNL     1       5.509   5.168  15.713  0.00  0.00    +0.000 A 
ATOM      7  C   UNL     1       5.220   4.368  14.597  0.00  0.00    +0.000 A 
ATOM      8  C   UNL     1       6.193   4.144  13.619  0.00  0.00    +0.000 A 
ATOM      9  C   UNL     1       7.460   4.708  13.750  0.00  0.00    +0.000 A 
ATOM     10  C   UNL     1       7.761   5.493  14.862  0.00  0.00    +0.000 A 
ATOM     11  C   UNL     1       6.790   5.724  15.842  0.00  0.00    +0.000 A 
ENDBRANCH   3   6
BRANCH   5  12
ATOM     12  C   UNL     1       2.449   4.303  19.358  0.00  0.00    +0.000 A 
ATOM     13  C   UNL     1       2.899   4.288  20.687  0.00  0.00    +0.000 A 
ATOM     14  C   UNL     1       2.192   3.602  21.677  0.00  0.00    +0.000 A 
ATOM     15  C   UNL     1       1.037   2.898  21.345  0.00  0.00    +0.000 A 
ATOM     16  C   UNL     1       0.599   2.869  20.022  0.00  0.00    +0.000 A 
ATOM     17  C   UNL     1       1.302   3.566  19.034  0.00  0.00    +0.000 A 
ENDBRANCH   5  12
BRANCH   1  19
ATOM     18  N   UNL     1       1.730   8.407  17.958  0.00  0.00    +0.000 N 
ATOM     19  C   UNL     1       2.364   7.498  18.788  0.00  0.00    +0.000 C 
ATOM     20  O   UNL     1       2.272   7.537  20.013  0.00  0.00    +0.000 OA
ATOM     21  H   UNL     1       1.761   8.244  16.961  0.00  0.00    +0.000 HD
BRANCH  18  22
ATOM     22  C   UNL     1       1.354   9.696  18.282  0.00  0.00    +0.000 C 
ATOM     23  S   UNL     1       2.419  10.919  17.867  0.00  0.00    +0.000 S 
BRANCH  22  24
ATOM     24  N   UNL     1       0.135   9.818  18.904  0.00  0.00    +0.000 N 
ATOM     25  H   UNL     1       0.098   9.438  19.852  0.00  0.00    +0.000 HD
BRANCH  24  30
ATOM     26  C   UNL     1      -4.906  11.753  16.997  0.00  0.00    +0.000 C 
ATOM     27  C   UNL     1      -3.571  11.266  17.479  0.00  0.00    +0.000 A 
ATOM     28  C   UNL     1      -2.859  10.287  16.782  0.00  0.00    +0.000 A 
ATOM     29  C   UNL     1      -1.630   9.825  17.268  0.00  0.00    +0.000 A 
ATOM     30  C   UNL     1      -1.075  10.365  18.433  0.00  0.00    +0.000 A 
ATOM     31  C   UNL     1      -1.791  11.337  19.134  0.00  0.00    +0.000 A 
ATOM     32  C   UNL     1      -3.033  11.776  18.665  0.00  0.00    +0.000 A 
ENDBRANCH  24  30
ENDBRANCH  22  24
ENDBRANCH  18  22
ENDBRANCH   1  19
TORSDOF 6
ENDMDL
