MODEL 1
REMARK VINA RESULT:      -8.0      0.000      0.000
REMARK  Name = 
REMARK  8 active torsions:
REMARK  status: ('A' for Active; 'I' for Inactive)
REMARK    1  A    between atoms: C_1  and  C_2
REMARK    2  A    between atoms: C_2  and  N_3
REMARK    3  A    between atoms: N_6  and  C_7
REMARK    4  A    between atoms: C_11  and  S_12
REMARK    5  A    between atoms: S_12  and  C_13
REMARK    6  A    between atoms: C_13  and  C_14
REMARK    7  A    between atoms: C_17  and  C_18
REMARK    8  A    between atoms: C_21  and  C_22
REMARK                            x       y       z     vdW  Elec       q    Type
REMARK                         _______ _______ _______ _____ _____    ______ ____
ROOT
ATOM      1  C   UNL     1       2.345   7.712  18.585  0.00  0.00    +0.000 A 
ATOM      2  C   UNL     1       2.178   8.942  17.911  0.00  0.00    +0.000 A 
ATOM      3  C   UNL     1       1.524   9.986  18.561  0.00  0.00    +0.000 A 
ATOM      4  N   UNL     1       1.200  11.256  18.167  0.00  0.00    +0.000 N 
ATOM      5  C   UNL     1       0.577  11.866  19.212  0.00  0.00    +0.000 A 
ATOM      6  N   UNL     1       0.453  11.071  20.244  0.00  0.00    +0.000 NA
ATOM      7  C   UNL     1       1.047   9.896  19.859  0.00  0.00    +0.000 A 
ATOM      8  C   UNL     1       1.212   8.703  20.562  0.00  0.00    +0.000 A 
ATOM      9  C   UNL     1       1.842   7.623  19.913  0.00  0.00    +0.000 A 
ATOM     10 CL   UNL     1       1.856   6.140  20.823  0.00  0.00    +0.000 Cl
ATOM     11  H   UNL     1       1.385  11.682  17.271  0.00  0.00    +0.000 HD
ENDROOT
BRANCH   1  15
ATOM     12  N   UNL     1       4.714   4.271  17.948  0.00  0.00    +0.000 NA
ATOM     13  C   UNL     1       5.243   5.651  18.112  0.00  0.00    +0.000 C 
ATOM     14  C   UNL     1       4.371   6.755  17.465  0.00  0.00    +0.000 C 
ATOM     15  N   UNL     1       2.972   6.666  17.917  0.00  0.00    +0.000 N 
ATOM     16  C   UNL     1       2.376   5.318  17.895  0.00  0.00    +0.000 C 
ATOM     17  C   UNL     1       3.337   4.264  18.492  0.00  0.00    +0.000 C 
BRANCH  12  19
ATOM     18  C   UNL     1       6.177   3.986  15.923  0.00  0.00    +0.000 C 
ATOM     19  C   UNL     1       4.788   3.861  16.536  0.00  0.00    +0.000 C 
ENDBRANCH  12  19
ENDBRANCH   1  15
BRANCH   5  20
ATOM     20  S   UNL     1       0.084  13.500  19.033  0.00  0.00    +0.000 S 
BRANCH  20  21
ATOM     21  C   UNL     1       1.347  14.486  19.951  0.00  0.00    +0.000 C 
ATOM     22  C   UNL     1       1.275  14.196  21.461  0.00  0.00    +0.000 C 
ATOM     23  C   UNL     1       1.200  16.003  19.690  0.00  0.00    +0.000 C 
ATOM     24  C   UNL     1       1.575  16.442  18.271  0.00  0.00    +0.000 C 
ATOM     25  C   UNL     1       2.981  15.974  17.863  0.00  0.00    +0.000 C 
ATOM     26  C   UNL     1       3.071  14.446  18.014  0.00  0.00    +0.000 C 
ATOM     27  C   UNL     1       2.723  13.986  19.437  0.00  0.00    +0.000 C 
BRANCH  25  28
ATOM     28  C   UNL     1       4.077  16.645  18.634  0.00  0.00    +0.000 A 
ATOM     29  N   UNL     1       3.998  17.665  19.463  0.00  0.00    +0.000 NA
ATOM     30  N   UNL     1       5.285  17.960  19.853  0.00  0.00    +0.000 NA
ATOM     31  C   UNL     1       6.060  17.089  19.246  0.00  0.00    +0.000 A 
ATOM     32  C   UNL     1       7.524  16.952  19.287  0.00  0.00    +0.000 C 
ATOM     33  O   UNL     1       5.365  16.205  18.465  0.00  0.00    +0.000 OA
ENDBRANCH  25  28
ENDBRANCH  20  21
ENDBRANCH   5  20
TORSDOF 5
ENDMDL
MODEL 2
REMARK VINA RESULT:      -8.0      4.607     10.044
REMARK  Name = 
REMARK  8 active torsions:
REMARK  status: ('A' for Active; 'I' for Inactive)
REMARK    1  A    between atoms: C_1  and  C_2
REMARK    2  A    between atoms: C_2  and  N_3
REMARK    3  A    between atoms: N_6  and  C_7
REMARK    4  A    between atoms: C_11  and  S_12
REMARK    5  A    between atoms: S_12  and  C_13
REMARK    6  A    between atoms: C_13  and  C_14
REMARK    7  A    between atoms: C_17  and  C_18
REMARK    8  A    between atoms: C_21  and  C_22
REMARK                            x       y       z     vdW  Elec       q    Type
REMARK                         _______ _______ _______ _____ _____    ______ ____
ROOT
ATOM      1  C   UNL     1       0.041  11.035  20.603  0.00  0.00    +0.000 A 
ATOM      2  C   UNL     1       0.512   9.885  21.274  0.00  0.00    +0.000 A 
ATOM      3  C   UNL     1       1.196   8.912  20.549  0.00  0.00    +0.000 A 
ATOM      4  N   UNL     1       1.740   7.709  20.910  0.00  0.00    +0.000 N 
ATOM      5  C   UNL     1       2.316   7.168  19.802  0.00  0.00    +0.000 A 
ATOM      6  N   UNL     1       2.160   7.925  18.745  0.00  0.00    +0.000 NA
ATOM      7  C   UNL     1       1.472   9.022  19.196  0.00  0.00    +0.000 A 
ATOM      8  C   UNL     1       1.039  10.154  18.505  0.00  0.00    +0.000 A 
ATOM      9  C   UNL     1       0.316  11.136  19.211  0.00  0.00    +0.000 A 
ATOM     10 CL   UNL     1      -0.309  12.425  18.222  0.00  0.00    +0.000 Cl
ATOM     11  H   UNL     1       1.731   7.286  21.826  0.00  0.00    +0.000 HD
ENDROOT
BRANCH   1  15
ATOM     12  N   UNL     1      -2.218  14.508  21.438  0.00  0.00    +0.000 NA
ATOM     13  C   UNL     1      -0.747  14.478  21.231  0.00  0.00    +0.000 C 
ATOM     14  C   UNL     1      -0.041  13.229  21.810  0.00  0.00    +0.000 C 
ATOM     15  N   UNL     1      -0.668  11.986  21.328  0.00  0.00    +0.000 N 
ATOM     16  C   UNL     1      -2.141  11.947  21.390  0.00  0.00    +0.000 C 
ATOM     17  C   UNL     1      -2.765  13.259  20.860  0.00  0.00    +0.000 C 
BRANCH  12  19
ATOM     18  C   UNL     1      -4.018  14.817  23.167  0.00  0.00    +0.000 C 
ATOM     19  C   UNL     1      -2.530  14.678  22.866  0.00  0.00    +0.000 C 
ENDBRANCH  12  19
ENDBRANCH   1  15
BRANCH   5  20
ATOM     20  S   UNL     1       3.124   5.662  19.950  0.00  0.00    +0.000 S 
BRANCH  20  21
ATOM     21  C   UNL     1       3.295   5.036  18.221  0.00  0.00    +0.000 C 
ATOM     22  C   UNL     1       1.914   4.732  17.611  0.00  0.00    +0.000 C 
ATOM     23  C   UNL     1       4.201   3.785  18.143  0.00  0.00    +0.000 C 
ATOM     24  C   UNL     1       5.683   4.057  18.420  0.00  0.00    +0.000 C 
ATOM     25  C   UNL     1       6.252   5.172  17.528  0.00  0.00    +0.000 C 
ATOM     26  C   UNL     1       5.410   6.447  17.710  0.00  0.00    +0.000 C 
ATOM     27  C   UNL     1       3.923   6.202  17.413  0.00  0.00    +0.000 C 
BRANCH  25  28
ATOM     28  C   UNL     1       6.329   4.794  16.080  0.00  0.00    +0.000 A 
ATOM     29  N   UNL     1       5.689   3.835  15.443  0.00  0.00    +0.000 NA
ATOM     30  N   UNL     1       6.159   3.839  14.148  0.00  0.00    +0.000 NA
ATOM     31  C   UNL     1       7.042   4.810  14.081  0.00  0.00    +0.000 A 
ATOM     32  C   UNL     1       7.865   5.248  12.944  0.00  0.00    +0.000 C 
ATOM     33  O   UNL     1       7.195   5.478  15.266  0.00  0.00    +0.000 OA
ENDBRANCH  25  28
ENDBRANCH  20  21
ENDBRANCH   5  20
TORSDOF 5
ENDMDL
MODEL 3
REMARK VINA RESULT:      -7.9      4.341      6.057
REMARK  Name = 
REMARK  8 active torsions:
REMARK  status: ('A' for Active; 'I' for Inactive)
REMARK    1  A    between atoms: C_1  and  C_2
REMARK    2  A    between atoms: C_2  and  N_3
REMARK    3  A    between atoms: N_6  and  C_7
REMARK    4  A    between atoms: C_11  and  S_12
REMARK    5  A    between atoms: S_12  and  C_13
REMARK    6  A    between atoms: C_13  and  C_14
REMARK    7  A    between atoms: C_17  and  C_18
REMARK    8  A    between atoms: C_21  and  C_22
REMARK                            x       y       z     vdW  Elec       q    Type
REMARK                         _______ _______ _______ _____ _____    ______ ____
ROOT
ATOM      1  C   UNL     1       2.492   7.256  18.722  0.00  0.00    +0.000 A 
ATOM      2  C   UNL     1       2.209   8.553  18.238  0.00  0.00    +0.000 A 
ATOM      3  C   UNL     1       1.529   9.448  19.060  0.00  0.00    +0.000 A 
ATOM      4  N   UNL     1       1.103  10.734  18.867  0.00  0.00    +0.000 N 
ATOM      5  C   UNL     1       0.505  11.148  20.017  0.00  0.00    +0.000 A 
ATOM      6  N   UNL     1       0.492  10.212  20.931  0.00  0.00    +0.000 NA
ATOM      7  C   UNL     1       1.135   9.146  20.354  0.00  0.00    +0.000 A 
ATOM      8  C   UNL     1       1.417   7.882  20.872  0.00  0.00    +0.000 A 
ATOM      9  C   UNL     1       2.074   6.949  20.047  0.00  0.00    +0.000 A 
ATOM     10 CL   UNL     1       2.235   5.359  20.736  0.00  0.00    +0.000 Cl
ATOM     11  H   UNL     1       1.208  11.292  18.032  0.00  0.00    +0.000 HD
ENDROOT
BRANCH   1  15
ATOM     12  N   UNL     1       5.081   4.156  17.479  0.00  0.00    +0.000 NA
ATOM     13  C   UNL     1       5.501   5.551  17.769  0.00  0.00    +0.000 C 
ATOM     14  C   UNL     1       4.483   6.633  17.335  0.00  0.00    +0.000 C 
ATOM     15  N   UNL     1       3.143   6.359  17.882  0.00  0.00    +0.000 N 
ATOM     16  C   UNL     1       2.666   4.971  17.742  0.00  0.00    +0.000 C 
ATOM     17  C   UNL     1       3.765   3.953  18.127  0.00  0.00    +0.000 C 
BRANCH  12  19
ATOM     18  C   UNL     1       6.401   4.155  15.340  0.00  0.00    +0.000 C 
ATOM     19  C   UNL     1       5.061   3.919  16.027  0.00  0.00    +0.000 C 
ENDBRANCH  12  19
ENDBRANCH   1  15
BRANCH   5  20
ATOM     20  S   UNL     1      -0.100  12.752  20.095  0.00  0.00    +0.000 S 
BRANCH  20  21
ATOM     21  C   UNL     1      -1.889  12.571  20.515  0.00  0.00    +0.000 C 
ATOM     22  C   UNL     1      -2.657  11.903  19.360  0.00  0.00    +0.000 C 
ATOM     23  C   UNL     1      -2.540  13.926  20.878  0.00  0.00    +0.000 C 
ATOM     24  C   UNL     1      -2.066  14.522  22.207  0.00  0.00    +0.000 C 
ATOM     25  C   UNL     1      -2.217  13.539  23.379  0.00  0.00    +0.000 C 
ATOM     26  C   UNL     1      -1.461  12.240  23.052  0.00  0.00    +0.000 C 
ATOM     27  C   UNL     1      -1.938  11.612  21.734  0.00  0.00    +0.000 C 
BRANCH  25  28
ATOM     28  C   UNL     1      -3.645  13.243  23.727  0.00  0.00    +0.000 A 
ATOM     29  N   UNL     1      -4.162  12.135  24.216  0.00  0.00    +0.000 NA
ATOM     30  N   UNL     1      -5.524  12.331  24.285  0.00  0.00    +0.000 NA
ATOM     31  C   UNL     1      -5.741  13.551  23.847  0.00  0.00    +0.000 A 
ATOM     32  C   UNL     1      -7.012  14.274  23.687  0.00  0.00    +0.000 C 
ATOM     33  O   UNL     1      -4.593  14.205  23.488  0.00  0.00    +0.000 OA
ENDBRANCH  25  28
ENDBRANCH  20  21
ENDBRANCH   5  20
TORSDOF 5
ENDMDL
MODEL 4
REMARK VINA RESULT:      -7.9      4.687      9.955
REMARK  Name = 
REMARK  8 active torsions:
REMARK  status: ('A' for Active; 'I' for Inactive)
REMARK    1  A    between atoms: C_1  and  C_2
REMARK    2  A    between atoms: C_2  and  N_3
REMARK    3  A    between atoms: N_6  and  C_7
REMARK    4  A    between atoms: C_11  and  S_12
REMARK    5  A    between atoms: S_12  and  C_13
REMARK    6  A    between atoms: C_13  and  C_14
REMARK    7  A    between atoms: C_17  and  C_18
REMARK    8  A    between atoms: C_21  and  C_22
REMARK                            x       y       z     vdW  Elec       q    Type
REMARK                         _______ _______ _______ _____ _____    ______ ____
ROOT
ATOM      1  C   UNL     1       0.174  10.975  20.732  0.00  0.00    +0.000 A 
ATOM      2  C   UNL     1       0.677   9.825  21.379  0.00  0.00    +0.000 A 
ATOM      3  C   UNL     1       1.276   8.827  20.614  0.00  0.00    +0.000 A 
ATOM      4  N   UNL     1       1.823   7.617  20.946  0.00  0.00    +0.000 N 
ATOM      5  C   UNL     1       2.290   7.047  19.802  0.00  0.00    +0.000 A 
ATOM      6  N   UNL     1       2.060   7.792  18.751  0.00  0.00    +0.000 NA
ATOM      7  C   UNL     1       1.436   8.911  19.240  0.00  0.00    +0.000 A 
ATOM      8  C   UNL     1       0.969  10.042  18.571  0.00  0.00    +0.000 A 
ATOM      9  C   UNL     1       0.330  11.050  19.319  0.00  0.00    +0.000 A 
ATOM     10 CL   UNL     1      -0.349  12.338  18.367  0.00  0.00    +0.000 Cl
ATOM     11  H   UNL     1       1.883   7.207  21.866  0.00  0.00    +0.000 HD
ENDROOT
BRANCH   1  15
ATOM     12  N   UNL     1      -2.076  14.420  21.696  0.00  0.00    +0.000 NA
ATOM     13  C   UNL     1      -0.658  14.427  21.249  0.00  0.00    +0.000 C 
ATOM     14  C   UNL     1       0.190  13.248  21.785  0.00  0.00    +0.000 C 
ATOM     15  N   UNL     1      -0.450  11.953  21.499  0.00  0.00    +0.000 N 
ATOM     16  C   UNL     1      -1.889  11.868  21.808  0.00  0.00    +0.000 C 
ATOM     17  C   UNL     1      -2.651  13.114  21.302  0.00  0.00    +0.000 C 
BRANCH  12  19
ATOM     18  C   UNL     1      -1.493  15.986  23.575  0.00  0.00    +0.000 C 
ATOM     19  C   UNL     1      -2.157  14.685  23.141  0.00  0.00    +0.000 C 
ENDBRANCH  12  19
ENDBRANCH   1  15
BRANCH   5  20
ATOM     20  S   UNL     1       3.077   5.525  19.905  0.00  0.00    +0.000 S 
BRANCH  20  21
ATOM     21  C   UNL     1       3.472   5.070  18.160  0.00  0.00    +0.000 C 
ATOM     22  C   UNL     1       2.189   4.724  17.381  0.00  0.00    +0.000 C 
ATOM     23  C   UNL     1       4.479   3.899  18.080  0.00  0.00    +0.000 C 
ATOM     24  C   UNL     1       5.898   4.249  18.537  0.00  0.00    +0.000 C 
ATOM     25  C   UNL     1       6.465   5.477  17.806  0.00  0.00    +0.000 C 
ATOM     26  C   UNL     1       5.509   6.668  17.998  0.00  0.00    +0.000 C 
ATOM     27  C   UNL     1       4.085   6.345  17.523  0.00  0.00    +0.000 C 
BRANCH  25  28
ATOM     28  C   UNL     1       6.719   5.237  16.349  0.00  0.00    +0.000 A 
ATOM     29  N   UNL     1       7.586   5.830  15.554  0.00  0.00    +0.000 NA
ATOM     30  N   UNL     1       7.380   5.318  14.292  0.00  0.00    +0.000 NA
ATOM     31  C   UNL     1       6.411   4.436  14.407  0.00  0.00    +0.000 A 
ATOM     32  C   UNL     1       5.776   3.604  13.374  0.00  0.00    +0.000 C 
ATOM     33  O   UNL     1       5.948   4.313  15.690  0.00  0.00    +0.000 OA
ENDBRANCH  25  28
ENDBRANCH  20  21
ENDBRANCH   5  20
TORSDOF 5
ENDMDL
MODEL 5
REMARK VINA RESULT:      -7.8      4.588     10.001
REMARK  Name = 
REMARK  8 active torsions:
REMARK  status: ('A' for Active; 'I' for Inactive)
REMARK    1  A    between atoms: C_1  and  C_2
REMARK    2  A    between atoms: C_2  and  N_3
REMARK    3  A    between atoms: N_6  and  C_7
REMARK    4  A    between atoms: C_11  and  S_12
REMARK    5  A    between atoms: S_12  and  C_13
REMARK    6  A    between atoms: C_13  and  C_14
REMARK    7  A    between atoms: C_17  and  C_18
REMARK    8  A    between atoms: C_21  and  C_22
REMARK                            x       y       z     vdW  Elec       q    Type
REMARK                         _______ _______ _______ _____ _____    ______ ____
ROOT
ATOM      1  C   UNL     1      -0.171  11.074  20.153  0.00  0.00    +0.000 A 
ATOM      2  C   UNL     1       0.539  10.108  20.900  0.00  0.00    +0.000 A 
ATOM      3  C   UNL     1       1.178   9.069  20.228  0.00  0.00    +0.000 A 
ATOM      4  N   UNL     1       1.906   7.997  20.669  0.00  0.00    +0.000 N 
ATOM      5  C   UNL     1       2.321   7.301  19.576  0.00  0.00    +0.000 A 
ATOM      6  N   UNL     1       1.890   7.833  18.460  0.00  0.00    +0.000 NA
ATOM      7  C   UNL     1       1.183   8.943  18.847  0.00  0.00    +0.000 A 
ATOM      8  C   UNL     1       0.510   9.890  18.077  0.00  0.00    +0.000 A 
ATOM      9  C   UNL     1      -0.172  10.932  18.737  0.00  0.00    +0.000 A 
ATOM     10 CL   UNL     1      -1.104  11.964  17.692  0.00  0.00    +0.000 Cl
ATOM     11  H   UNL     1       2.112   7.754  21.626  0.00  0.00    +0.000 HD
ENDROOT
BRANCH   1  15
ATOM     12  N   UNL     1      -1.145  13.798  23.234  0.00  0.00    +0.000 NA
ATOM     13  C   UNL     1      -1.525  12.361  23.216  0.00  0.00    +0.000 C 
ATOM     14  C   UNL     1      -1.893  11.809  21.817  0.00  0.00    +0.000 C 
ATOM     15  N   UNL     1      -0.832  12.090  20.834  0.00  0.00    +0.000 N 
ATOM     16  C   UNL     1      -0.305  13.467  20.836  0.00  0.00    +0.000 C 
ATOM     17  C   UNL     1      -0.031  13.966  22.273  0.00  0.00    +0.000 C 
BRANCH  12  19
ATOM     18  C   UNL     1      -3.024  15.189  24.159  0.00  0.00    +0.000 C 
ATOM     19  C   UNL     1      -2.314  14.638  22.928  0.00  0.00    +0.000 C 
ENDBRANCH  12  19
ENDBRANCH   1  15
BRANCH   5  20
ATOM     20  S   UNL     1       3.301   5.913  19.811  0.00  0.00    +0.000 S 
BRANCH  20  21
ATOM     21  C   UNL     1       3.472   5.156  18.135  0.00  0.00    +0.000 C 
ATOM     22  C   UNL     1       2.099   4.727  17.586  0.00  0.00    +0.000 C 
ATOM     23  C   UNL     1       4.447   3.956  18.137  0.00  0.00    +0.000 C 
ATOM     24  C   UNL     1       5.916   4.332  18.354  0.00  0.00    +0.000 C 
ATOM     25  C   UNL     1       6.403   5.400  17.361  0.00  0.00    +0.000 C 
ATOM     26  C   UNL     1       5.493   6.636  17.459  0.00  0.00    +0.000 C 
ATOM     27  C   UNL     1       4.017   6.285  17.220  0.00  0.00    +0.000 C 
BRANCH  25  28
ATOM     28  C   UNL     1       6.472   4.909  15.947  0.00  0.00    +0.000 A 
ATOM     29  N   UNL     1       5.898   3.850  15.412  0.00  0.00    +0.000 NA
ATOM     30  N   UNL     1       6.331   3.783  14.106  0.00  0.00    +0.000 NA
ATOM     31  C   UNL     1       7.127   4.814  13.930  0.00  0.00    +0.000 A 
ATOM     32  C   UNL     1       7.880   5.220  12.733  0.00  0.00    +0.000 C 
ATOM     33  O   UNL     1       7.256   5.590  15.050  0.00  0.00    +0.000 OA
ENDBRANCH  25  28
ENDBRANCH  20  21
ENDBRANCH   5  20
TORSDOF 5
ENDMDL
MODEL 6
REMARK VINA RESULT:      -7.8      5.798     11.180
REMARK  Name = 
REMARK  8 active torsions:
REMARK  status: ('A' for Active; 'I' for Inactive)
REMARK    1  A    between atoms: C_1  and  C_2
REMARK    2  A    between atoms: C_2  and  N_3
REMARK    3  A    between atoms: N_6  and  C_7
REMARK    4  A    between atoms: C_11  and  S_12
REMARK    5  A    between atoms: S_12  and  C_13
REMARK    6  A    between atoms: C_13  and  C_14
REMARK    7  A    between atoms: C_17  and  C_18
REMARK    8  A    between atoms: C_21  and  C_22
REMARK                            x       y       z     vdW  Elec       q    Type
REMARK                         _______ _______ _______ _____ _____    ______ ____
ROOT
ATOM      1  C   UNL     1       9.070  12.099  18.548  0.00  0.00    +0.000 A 
ATOM      2  C   UNL     1       8.409  11.316  17.576  0.00  0.00    +0.000 A 
ATOM      3  C   UNL     1       8.293   9.943  17.778  0.00  0.00    +0.000 A 
ATOM      4  N   UNL     1       7.740   8.945  17.022  0.00  0.00    +0.000 N 
ATOM      5  C   UNL     1       7.883   7.779  17.709  0.00  0.00    +0.000 A 
ATOM      6  N   UNL     1       8.512   7.950  18.844  0.00  0.00    +0.000 NA
ATOM      7  C   UNL     1       8.767   9.296  18.909  0.00  0.00    +0.000 A 
ATOM      8  C   UNL     1       9.406  10.041  19.899  0.00  0.00    +0.000 A 
ATOM      9  C   UNL     1       9.565  11.427  19.701  0.00  0.00    +0.000 A 
ATOM     10 CL   UNL     1      10.510  12.230  20.921  0.00  0.00    +0.000 Cl
ATOM     11  H   UNL     1       7.299   9.037  16.120  0.00  0.00    +0.000 HD
ENDROOT
BRANCH   1  15
ATOM     12  N   UNL     1      10.245  16.114  19.144  0.00  0.00    +0.000 NA
ATOM     13  C   UNL     1       9.108  15.449  19.831  0.00  0.00    +0.000 C 
ATOM     14  C   UNL     1       8.316  14.454  18.949  0.00  0.00    +0.000 C 
ATOM     15  N   UNL     1       9.209  13.464  18.323  0.00  0.00    +0.000 N 
ATOM     16  C   UNL     1      10.429  14.007  17.698  0.00  0.00    +0.000 C 
ATOM     17  C   UNL     1      11.120  15.044  18.613  0.00  0.00    +0.000 C 
BRANCH  12  19
ATOM     18  C   UNL     1      10.843  17.813  17.389  0.00  0.00    +0.000 C 
ATOM     19  C   UNL     1       9.748  17.033  18.107  0.00  0.00    +0.000 C 
ENDBRANCH  12  19
ENDBRANCH   1  15
BRANCH   5  20
ATOM     20  S   UNL     1       7.243   6.341  17.027  0.00  0.00    +0.000 S 
BRANCH  20  21
ATOM     21  C   UNL     1       5.478   6.295  17.568  0.00  0.00    +0.000 C 
ATOM     22  C   UNL     1       4.909   7.720  17.697  0.00  0.00    +0.000 C 
ATOM     23  C   UNL     1       5.299   5.525  18.898  0.00  0.00    +0.000 C 
ATOM     24  C   UNL     1       5.530   4.015  18.792  0.00  0.00    +0.000 C 
ATOM     25  C   UNL     1       4.676   3.365  17.691  0.00  0.00    +0.000 C 
ATOM     26  C   UNL     1       4.958   4.065  16.351  0.00  0.00    +0.000 C 
ATOM     27  C   UNL     1       4.709   5.578  16.428  0.00  0.00    +0.000 C 
BRANCH  25  28
ATOM     28  C   UNL     1       3.209   3.377  17.993  0.00  0.00    +0.000 A 
ATOM     29  N   UNL     1       2.194   3.405  17.153  0.00  0.00    +0.000 NA
ATOM     30  N   UNL     1       1.051   3.488  17.916  0.00  0.00    +0.000 NA
ATOM     31  C   UNL     1       1.446   3.490  19.170  0.00  0.00    +0.000 A 
ATOM     32  C   UNL     1       0.647   3.581  20.402  0.00  0.00    +0.000 C 
ATOM     33  O   UNL     1       2.806   3.404  19.303  0.00  0.00    +0.000 OA
ENDBRANCH  25  28
ENDBRANCH  20  21
ENDBRANCH   5  20
TORSDOF 5
ENDMDL
MODEL 7
REMARK VINA RESULT:      -7.7      4.372      6.636
REMARK  Name = 
REMARK  8 active torsions:
REMARK  status: ('A' for Active; 'I' for Inactive)
REMARK    1  A    between atoms: C_1  and  C_2
REMARK    2  A    between atoms: C_2  and  N_3
REMARK    3  A    between atoms: N_6  and  C_7
REMARK    4  A    between atoms: C_11  and  S_12
REMARK    5  A    between atoms: S_12  and  C_13
REMARK    6  A    between atoms: C_13  and  C_14
REMARK    7  A    between atoms: C_17  and  C_18
REMARK    8  A    between atoms: C_21  and  C_22
REMARK                            x       y       z     vdW  Elec       q    Type
REMARK                         _______ _______ _______ _____ _____    ______ ____
ROOT
ATOM      1  C   UNL     1       2.114   7.496  19.552  0.00  0.00    +0.000 A 
ATOM      2  C   UNL     1       1.485   8.335  20.498  0.00  0.00    +0.000 A 
ATOM      3  C   UNL     1       1.181   9.647  20.142  0.00  0.00    +0.000 A 
ATOM      4  N   UNL     1       0.607  10.679  20.833  0.00  0.00    +0.000 N 
ATOM      5  C   UNL     1       0.526  11.745  19.991  0.00  0.00    +0.000 A 
ATOM      6  N   UNL     1       1.032  11.483  18.813  0.00  0.00    +0.000 NA
ATOM      7  C   UNL     1       1.436  10.174  18.885  0.00  0.00    +0.000 A 
ATOM      8  C   UNL     1       2.038   9.367  17.920  0.00  0.00    +0.000 A 
ATOM      9  C   UNL     1       2.384   8.047  18.269  0.00  0.00    +0.000 A 
ATOM     10 CL   UNL     1       3.268   7.182  17.044  0.00  0.00    +0.000 Cl
ATOM     11  H   UNL     1       0.290  10.669  21.791  0.00  0.00    +0.000 HD
ENDROOT
BRANCH   1  15
ATOM     12  N   UNL     1       2.634   3.309  19.300  0.00  0.00    +0.000 NA
ATOM     13  C   UNL     1       1.337   3.993  19.544  0.00  0.00    +0.000 C 
ATOM     14  C   UNL     1       1.432   5.253  20.438  0.00  0.00    +0.000 C 
ATOM     15  N   UNL     1       2.442   6.197  19.928  0.00  0.00    +0.000 N 
ATOM     16  C   UNL     1       3.740   5.606  19.553  0.00  0.00    +0.000 C 
ATOM     17  C   UNL     1       3.555   4.315  18.724  0.00  0.00    +0.000 C 
BRANCH  12  19
ATOM     18  C   UNL     1       4.477   1.999  20.399  0.00  0.00    +0.000 C 
ATOM     19  C   UNL     1       3.133   2.702  20.545  0.00  0.00    +0.000 C 
ENDBRANCH  12  19
ENDBRANCH   1  15
BRANCH   5  20
ATOM     20  S   UNL     1      -0.196  13.192  20.566  0.00  0.00    +0.000 S 
BRANCH  20  21
ATOM     21  C   UNL     1      -1.969  12.762  20.856  0.00  0.00    +0.000 C 
ATOM     22  C   UNL     1      -2.547  11.992  19.654  0.00  0.00    +0.000 C 
ATOM     23  C   UNL     1      -2.827  14.013  21.153  0.00  0.00    +0.000 C 
ATOM     24  C   UNL     1      -2.542  14.672  22.506  0.00  0.00    +0.000 C 
ATOM     25  C   UNL     1      -2.641  13.678  23.676  0.00  0.00    +0.000 C 
ATOM     26  C   UNL     1      -1.689  12.498  23.421  0.00  0.00    +0.000 C 
ATOM     27  C   UNL     1      -1.974  11.807  22.078  0.00  0.00    +0.000 C 
BRANCH  25  28
ATOM     28  C   UNL     1      -4.035  13.186  23.921  0.00  0.00    +0.000 A 
ATOM     29  N   UNL     1      -4.431  11.999  24.331  0.00  0.00    +0.000 NA
ATOM     30  N   UNL     1      -5.808  12.015  24.322  0.00  0.00    +0.000 NA
ATOM     31  C   UNL     1      -6.158  13.217  23.921  0.00  0.00    +0.000 A 
ATOM     32  C   UNL     1      -7.501  13.778  23.711  0.00  0.00    +0.000 C 
ATOM     33  O   UNL     1      -5.086  14.029  23.662  0.00  0.00    +0.000 OA
ENDBRANCH  25  28
ENDBRANCH  20  21
ENDBRANCH   5  20
TORSDOF 5
ENDMDL
MODEL 8
REMARK VINA RESULT:      -7.6      3.792      4.919
REMARK  Name = 
REMARK  8 active torsions:
REMARK  status: ('A' for Active; 'I' for Inactive)
REMARK    1  A    between atoms: C_1  and  C_2
REMARK    2  A    between atoms: C_2  and  N_3
REMARK    3  A    between atoms: N_6  and  C_7
REMARK    4  A    between atoms: C_11  and  S_12
REMARK    5  A    between atoms: S_12  and  C_13
REMARK    6  A    between atoms: C_13  and  C_14
REMARK    7  A    between atoms: C_17  and  C_18
REMARK    8  A    between atoms: C_21  and  C_22
REMARK                            x       y       z     vdW  Elec       q    Type
REMARK                         _______ _______ _______ _____ _____    ______ ____
ROOT
ATOM      1  C   UNL     1       3.480   7.091  18.006  0.00  0.00    +0.000 A 
ATOM      2  C   UNL     1       2.856   8.268  17.537  0.00  0.00    +0.000 A 
ATOM      3  C   UNL     1       1.879   8.874  18.322  0.00  0.00    +0.000 A 
ATOM      4  N   UNL     1       1.101   9.984  18.130  0.00  0.00    +0.000 N 
ATOM      5  C   UNL     1       0.321  10.138  19.235  0.00  0.00    +0.000 A 
ATOM      6  N   UNL     1       0.523   9.192  20.116  0.00  0.00    +0.000 NA
ATOM      7  C   UNL     1       1.499   8.400  19.568  0.00  0.00    +0.000 A 
ATOM      8  C   UNL     1       2.109   7.251  20.071  0.00  0.00    +0.000 A 
ATOM      9  C   UNL     1       3.077   6.602  19.280  0.00  0.00    +0.000 A 
ATOM     10 CL   UNL     1       3.657   5.098  19.934  0.00  0.00    +0.000 Cl
ATOM     11  H   UNL     1       1.095  10.592  17.325  0.00  0.00    +0.000 HD
ENDROOT
BRANCH   1  15
ATOM     12  N   UNL     1       6.623   4.514  16.849  0.00  0.00    +0.000 NA
ATOM     13  C   UNL     1       6.797   5.784  17.600  0.00  0.00    +0.000 C 
ATOM     14  C   UNL     1       5.837   6.921  17.173  0.00  0.00    +0.000 C 
ATOM     15  N   UNL     1       4.432   6.476  17.201  0.00  0.00    +0.000 N 
ATOM     16  C   UNL     1       4.162   5.170  16.572  0.00  0.00    +0.000 C 
ATOM     17  C   UNL     1       5.206   4.111  16.995  0.00  0.00    +0.000 C 
BRANCH  12  19
ATOM     18  C   UNL     1       6.272   3.823  14.457  0.00  0.00    +0.000 C 
ATOM     19  C   UNL     1       7.041   4.687  15.449  0.00  0.00    +0.000 C 
ENDBRANCH  12  19
ENDBRANCH   1  15
BRANCH   5  20
ATOM     20  S   UNL     1      -0.743  11.482  19.307  0.00  0.00    +0.000 S 
BRANCH  20  21
ATOM     21  C   UNL     1      -0.107  12.525  20.692  0.00  0.00    +0.000 C 
ATOM     22  C   UNL     1       1.409  12.756  20.551  0.00  0.00    +0.000 C 
ATOM     23  C   UNL     1      -0.429  11.913  22.074  0.00  0.00    +0.000 C 
ATOM     24  C   UNL     1      -1.914  11.939  22.450  0.00  0.00    +0.000 C 
ATOM     25  C   UNL     1      -2.521  13.348  22.347  0.00  0.00    +0.000 C 
ATOM     26  C   UNL     1      -2.297  13.894  20.927  0.00  0.00    +0.000 C 
ATOM     27  C   UNL     1      -0.811  13.899  20.539  0.00  0.00    +0.000 C 
BRANCH  25  28
ATOM     28  C   UNL     1      -1.983  14.303  23.369  0.00  0.00    +0.000 A 
ATOM     29  N   UNL     1      -0.863  14.228  24.059  0.00  0.00    +0.000 NA
ATOM     30  N   UNL     1      -0.859  15.300  24.924  0.00  0.00    +0.000 NA
ATOM     31  C   UNL     1      -1.969  15.964  24.690  0.00  0.00    +0.000 A 
ATOM     32  C   UNL     1      -2.485  17.180  25.338  0.00  0.00    +0.000 C 
ATOM     33  O   UNL     1      -2.732  15.403  23.701  0.00  0.00    +0.000 OA
ENDBRANCH  25  28
ENDBRANCH  20  21
ENDBRANCH   5  20
TORSDOF 5
ENDMDL
MODEL 9
REMARK VINA RESULT:      -7.5      3.879      9.617
REMARK  Name = 
REMARK  8 active torsions:
REMARK  status: ('A' for Active; 'I' for Inactive)
REMARK    1  A    between atoms: C_1  and  C_2
REMARK    2  A    between atoms: C_2  and  N_3
REMARK    3  A    between atoms: N_6  and  C_7
REMARK    4  A    between atoms: C_11  and  S_12
REMARK    5  A    between atoms: S_12  and  C_13
REMARK    6  A    between atoms: C_13  and  C_14
REMARK    7  A    between atoms: C_17  and  C_18
REMARK    8  A    between atoms: C_21  and  C_22
REMARK                            x       y       z     vdW  Elec       q    Type
REMARK                         _______ _______ _______ _____ _____    ______ ____
ROOT
ATOM      1  C   UNL     1       0.204  11.068  20.774  0.00  0.00    +0.000 A 
ATOM      2  C   UNL     1       1.082  10.273  20.005  0.00  0.00    +0.000 A 
ATOM      3  C   UNL     1       1.254   8.933  20.343  0.00  0.00    +0.000 A 
ATOM      4  N   UNL     1       2.035   7.942  19.812  0.00  0.00    +0.000 N 
ATOM      5  C   UNL     1       1.797   6.805  20.521  0.00  0.00    +0.000 A 
ATOM      6  N   UNL     1       0.937   6.997  21.488  0.00  0.00    +0.000 NA
ATOM      7  C   UNL     1       0.580   8.318  21.386  0.00  0.00    +0.000 A 
ATOM      8  C   UNL     1      -0.311   9.067  22.154  0.00  0.00    +0.000 A 
ATOM      9  C   UNL     1      -0.476  10.433  21.851  0.00  0.00    +0.000 A 
ATOM     10 CL   UNL     1      -1.488  11.305  22.965  0.00  0.00    +0.000 Cl
ATOM     11  H   UNL     1       2.673   8.021  19.035  0.00  0.00    +0.000 HD
ENDROOT
BRANCH   1  15
ATOM     12  N   UNL     1       0.706  14.718  18.705  0.00  0.00    +0.000 NA
ATOM     13  C   UNL     1       1.680  14.146  19.670  0.00  0.00    +0.000 C 
ATOM     14  C   UNL     1       1.038  13.427  20.882  0.00  0.00    +0.000 C 
ATOM     15  N   UNL     1       0.063  12.412  20.448  0.00  0.00    +0.000 N 
ATOM     16  C   UNL     1      -0.891  12.843  19.410  0.00  0.00    +0.000 C 
ATOM     17  C   UNL     1      -0.181  13.614  18.274  0.00  0.00    +0.000 C 
BRANCH  12  19
ATOM     18  C   UNL     1       0.883  16.849  20.027  0.00  0.00    +0.000 C 
ATOM     19  C   UNL     1      -0.016  15.845  19.316  0.00  0.00    +0.000 C 
ENDBRANCH  12  19
ENDBRANCH   1  15
BRANCH   5  20
ATOM     20  S   UNL     1       2.609   5.366  20.058  0.00  0.00    +0.000 S 
BRANCH  20  21
ATOM     21  C   UNL     1       3.240   5.696  18.354  0.00  0.00    +0.000 C 
ATOM     22  C   UNL     1       2.371   6.751  17.645  0.00  0.00    +0.000 C 
ATOM     23  C   UNL     1       3.316   4.406  17.504  0.00  0.00    +0.000 C 
ATOM     24  C   UNL     1       4.400   3.418  17.947  0.00  0.00    +0.000 C 
ATOM     25  C   UNL     1       5.789   4.070  18.035  0.00  0.00    +0.000 C 
ATOM     26  C   UNL     1       5.722   5.281  18.982  0.00  0.00    +0.000 C 
ATOM     27  C   UNL     1       4.658   6.297  18.542  0.00  0.00    +0.000 C 
BRANCH  25  28
ATOM     28  C   UNL     1       6.342   4.474  16.703  0.00  0.00    +0.000 A 
ATOM     29  N   UNL     1       7.131   5.488  16.409  0.00  0.00    +0.000 NA
ATOM     30  N   UNL     1       7.291   5.482  15.042  0.00  0.00    +0.000 NA
ATOM     31  C   UNL     1       6.602   4.455  14.596  0.00  0.00    +0.000 A 
ATOM     32  C   UNL     1       6.407   3.988  13.215  0.00  0.00    +0.000 C 
ATOM     33  O   UNL     1       5.982   3.752  15.594  0.00  0.00    +0.000 OA
ENDBRANCH  25  28
ENDBRANCH  20  21
ENDBRANCH   5  20
TORSDOF 5
ENDMDL
