MODEL 1
REMARK VINA RESULT:      -8.0      0.000      0.000
REMARK  Name = 
REMARK  11 active torsions:
REMARK  status: ('A' for Active; 'I' for Inactive)
REMARK    1  A    between atoms: C_1  and  C_2
REMARK    2  A    between atoms: C_2  and  O_3
REMARK    3  A    between atoms: O_3  and  C_4
REMARK    4  A    between atoms: C_4  and  C_5
REMARK    5  A    between atoms: C_4  and  O_25
REMARK    6  A    between atoms: C_5  and  N_6
REMARK    7  A    between atoms: C_7  and  C_9
REMARK    8  A    between atoms: N_14  and  C_15
REMARK    9  A    between atoms: C_15  and  C_16
REMARK   10  A    between atoms: O_25  and  C_26
REMARK   11  A    between atoms: C_26  and  C_27
REMARK                            x       y       z     vdW  Elec       q    Type
REMARK                         _______ _______ _______ _____ _____    ______ ____
ROOT
ATOM      1  C   UNL     1       5.351   4.736  15.961  0.00  0.00    +0.000 A 
ATOM      2  C   UNL     1       5.056   3.760  16.897  0.00  0.00    +0.000 A 
ATOM      3  C   UNL     1       4.206   4.239  17.948  0.00  0.00    +0.000 A 
ATOM      4  C   UNL     1       3.713   3.503  19.104  0.00  0.00    +0.000 A 
ATOM      5  O   UNL     1       4.005   2.311  19.247  0.00  0.00    +0.000 OA
ATOM      6  N   UNL     1       2.926   4.221  20.037  0.00  0.00    +0.000 N 
ATOM      7  C   UNL     1       2.568   5.613  19.838  0.00  0.00    +0.000 A 
ATOM      8  C   UNL     1       1.772   6.343  20.733  0.00  0.00    +0.000 A 
ATOM      9  C   UNL     1       1.460   7.694  20.501  0.00  0.00    +0.000 A 
ATOM     10  C   UNL     1       1.927   8.350  19.368  0.00  0.00    +0.000 A 
ATOM     11  C   UNL     1       2.715   7.653  18.464  0.00  0.00    +0.000 A 
ATOM     12  C   UNL     1       3.043   6.306  18.687  0.00  0.00    +0.000 A 
ATOM     13  C   UNL     1       3.883   5.559  17.765  0.00  0.00    +0.000 A 
ATOM     14  S   UNL     1       4.581   6.212  16.365  0.00  0.00    +0.000 S 
ENDROOT
BRANCH   1  16
ATOM     15  N   UNL     1       5.839   3.709  13.858  0.00  0.00    +0.000 N 
ATOM     16  C   UNL     1       6.162   4.703  14.757  0.00  0.00    +0.000 C 
ATOM     17  O   UNL     1       7.075   5.489  14.512  0.00  0.00    +0.000 OA
ATOM     18  H   UNL     1       5.105   3.041  14.045  0.00  0.00    +0.000 HD
BRANCH  15  19
ATOM     19  C   UNL     1       6.586   3.560  12.623  0.00  0.00    +0.000 C 
BRANCH  19  20
ATOM     20  C   UNL     1       5.698   3.143  11.430  0.00  0.00    +0.000 C 
BRANCH  20  21
ATOM     21  O   UNL     1       4.470   3.885  11.387  0.00  0.00    +0.000 OA
BRANCH  21  23
ATOM     22  C   UNL     1       2.903   4.123   9.572  0.00  0.00    +0.000 C 
ATOM     23  C   UNL     1       3.434   3.220  10.667  0.00  0.00    +0.000 C 
ENDBRANCH  21  23
ENDBRANCH  20  21
BRANCH  20  24
ATOM     24  O   UNL     1       5.418   1.738  11.559  0.00  0.00    +0.000 OA
BRANCH  24  25
ATOM     25  C   UNL     1       6.448   0.930  10.995  0.00  0.00    +0.000 C 
ATOM     26  C   UNL     1       6.177  -0.531  11.314  0.00  0.00    +0.000 C 
ENDBRANCH  24  25
ENDBRANCH  20  24
ENDBRANCH  19  20
ENDBRANCH  15  19
ENDBRANCH   1  16
BRANCH   6  27
ATOM     27  C   UNL     1       2.586   3.497  21.269  0.00  0.00    +0.000 C 
ATOM     28  C   UNL     1       1.232   2.793  21.258  0.00  0.00    +0.000 C 
ENDBRANCH   6  27
TORSDOF 8
ENDMDL
MODEL 2
REMARK VINA RESULT:      -7.2      5.147      8.768
REMARK  Name = 
REMARK  11 active torsions:
REMARK  status: ('A' for Active; 'I' for Inactive)
REMARK    1  A    between atoms: C_1  and  C_2
REMARK    2  A    between atoms: C_2  and  O_3
REMARK    3  A    between atoms: O_3  and  C_4
REMARK    4  A    between atoms: C_4  and  C_5
REMARK    5  A    between atoms: C_4  and  O_25
REMARK    6  A    between atoms: C_5  and  N_6
REMARK    7  A    between atoms: C_7  and  C_9
REMARK    8  A    between atoms: N_14  and  C_15
REMARK    9  A    between atoms: C_15  and  C_16
REMARK   10  A    between atoms: O_25  and  C_26
REMARK   11  A    between atoms: C_26  and  C_27
REMARK                            x       y       z     vdW  Elec       q    Type
REMARK                         _______ _______ _______ _____ _____    ______ ____
ROOT
ATOM      1  C   UNL     1       1.536   8.706  19.315  0.00  0.00    +0.000 A 
ATOM      2  C   UNL     1       1.632   7.561  20.086  0.00  0.00    +0.000 A 
ATOM      3  C   UNL     1       2.524   6.587  19.525  0.00  0.00    +0.000 A 
ATOM      4  C   UNL     1       2.850   5.268  20.049  0.00  0.00    +0.000 A 
ATOM      5  O   UNL     1       2.351   4.885  21.112  0.00  0.00    +0.000 OA
ATOM      6  N   UNL     1       3.725   4.467  19.276  0.00  0.00    +0.000 N 
ATOM      7  C   UNL     1       4.326   4.944  18.045  0.00  0.00    +0.000 A 
ATOM      8  C   UNL     1       5.213   4.182  17.270  0.00  0.00    +0.000 A 
ATOM      9  C   UNL     1       5.762   4.686  16.078  0.00  0.00    +0.000 A 
ATOM     10  C   UNL     1       5.447   5.963  15.631  0.00  0.00    +0.000 A 
ATOM     11  C   UNL     1       4.573   6.741  16.377  0.00  0.00    +0.000 A 
ATOM     12  C   UNL     1       4.010   6.248  17.565  0.00  0.00    +0.000 A 
ATOM     13  C   UNL     1       3.077   7.036  18.354  0.00  0.00    +0.000 A 
ATOM     14  S   UNL     1       2.541   8.588  17.933  0.00  0.00    +0.000 S 
ENDROOT
BRANCH   1  16
ATOM     15  N   UNL     1      -0.380  10.007  18.725  0.00  0.00    +0.000 N 
ATOM     16  C   UNL     1       0.764   9.924  19.489  0.00  0.00    +0.000 C 
ATOM     17  O   UNL     1       1.067  10.836  20.255  0.00  0.00    +0.000 OA
ATOM     18  H   UNL     1      -0.640   9.279  18.075  0.00  0.00    +0.000 HD
BRANCH  15  19
ATOM     19  C   UNL     1      -1.229  11.182  18.795  0.00  0.00    +0.000 C 
BRANCH  19  20
ATOM     20  C   UNL     1      -2.572  10.998  18.053  0.00  0.00    +0.000 C 
BRANCH  20  21
ATOM     21  O   UNL     1      -2.414  11.059  16.628  0.00  0.00    +0.000 OA
BRANCH  21  23
ATOM     22  C   UNL     1      -3.269  10.136  14.574  0.00  0.00    +0.000 C 
ATOM     23  C   UNL     1      -2.756   9.842  15.969  0.00  0.00    +0.000 C 
ENDBRANCH  21  23
ENDBRANCH  20  21
BRANCH  20  24
ATOM     24  O   UNL     1      -3.463  12.038  18.493  0.00  0.00    +0.000 OA
BRANCH  24  25
ATOM     25  C   UNL     1      -4.818  11.596  18.551  0.00  0.00    +0.000 C 
ATOM     26  C   UNL     1      -5.605  12.227  17.414  0.00  0.00    +0.000 C 
ENDBRANCH  24  25
ENDBRANCH  20  24
ENDBRANCH  19  20
ENDBRANCH  15  19
ENDBRANCH   1  16
BRANCH   6  27
ATOM     27  C   UNL     1       3.901   3.087  19.746  0.00  0.00    +0.000 C 
ATOM     28  C   UNL     1       2.956   2.062  19.124  0.00  0.00    +0.000 C 
ENDBRANCH   6  27
TORSDOF 8
ENDMDL
MODEL 3
REMARK VINA RESULT:      -7.1      3.479      6.282
REMARK  Name = 
REMARK  11 active torsions:
REMARK  status: ('A' for Active; 'I' for Inactive)
REMARK    1  A    between atoms: C_1  and  C_2
REMARK    2  A    between atoms: C_2  and  O_3
REMARK    3  A    between atoms: O_3  and  C_4
REMARK    4  A    between atoms: C_4  and  C_5
REMARK    5  A    between atoms: C_4  and  O_25
REMARK    6  A    between atoms: C_5  and  N_6
REMARK    7  A    between atoms: C_7  and  C_9
REMARK    8  A    between atoms: N_14  and  C_15
REMARK    9  A    between atoms: C_15  and  C_16
REMARK   10  A    between atoms: O_25  and  C_26
REMARK   11  A    between atoms: C_26  and  C_27
REMARK                            x       y       z     vdW  Elec       q    Type
REMARK                         _______ _______ _______ _____ _____    ______ ____
ROOT
ATOM      1  C   UNL     1       2.678   6.862  18.977  0.00  0.00    +0.000 A 
ATOM      2  C   UNL     1       2.562   8.042  18.264  0.00  0.00    +0.000 A 
ATOM      3  C   UNL     1       1.810   9.043  18.966  0.00  0.00    +0.000 A 
ATOM      4  C   UNL     1       1.474  10.386  18.515  0.00  0.00    +0.000 A 
ATOM      5  O   UNL     1       1.870  10.786  17.416  0.00  0.00    +0.000 OA
ATOM      6  N   UNL     1       0.668  11.171  19.375  0.00  0.00    +0.000 N 
ATOM      7  C   UNL     1       0.237  10.696  20.677  0.00  0.00    +0.000 A 
ATOM      8  C   UNL     1      -0.543  11.459  21.560  0.00  0.00    +0.000 A 
ATOM      9  C   UNL     1      -0.944  10.951  22.808  0.00  0.00    +0.000 A 
ATOM     10  C   UNL     1      -0.574   9.674  23.211  0.00  0.00    +0.000 A 
ATOM     11  C   UNL     1       0.198   8.896  22.359  0.00  0.00    +0.000 A 
ATOM     12  C   UNL     1       0.599   9.387  21.106  0.00  0.00    +0.000 A 
ATOM     13  C   UNL     1       1.391   8.585  20.188  0.00  0.00    +0.000 A 
ATOM     14  S   UNL     1       1.885   6.992  20.491  0.00  0.00    +0.000 S 
ENDROOT
BRANCH   1  16
ATOM     15  N   UNL     1       3.784   5.488  17.365  0.00  0.00    +0.000 N 
ATOM     16  C   UNL     1       3.332   5.605  18.662  0.00  0.00    +0.000 C 
ATOM     17  O   UNL     1       3.499   4.687  19.463  0.00  0.00    +0.000 OA
ATOM     18  H   UNL     1       3.643   6.220  16.684  0.00  0.00    +0.000 HD
BRANCH  15  19
ATOM     19  C   UNL     1       4.440   4.272  16.920  0.00  0.00    +0.000 C 
BRANCH  19  20
ATOM     20  C   UNL     1       5.909   4.502  16.498  0.00  0.00    +0.000 C 
BRANCH  20  21
ATOM     21  O   UNL     1       6.294   3.656  15.405  0.00  0.00    +0.000 OA
BRANCH  21  23
ATOM     22  C   UNL     1       6.013   3.639  13.012  0.00  0.00    +0.000 C 
ATOM     23  C   UNL     1       6.582   4.375  14.208  0.00  0.00    +0.000 C 
ENDBRANCH  21  23
ENDBRANCH  20  21
BRANCH  20  24
ATOM     24  O   UNL     1       6.742   4.237  17.640  0.00  0.00    +0.000 OA
BRANCH  24  25
ATOM     25  C   UNL     1       7.186   5.435  18.272  0.00  0.00    +0.000 C 
ATOM     26  C   UNL     1       7.298   6.542  17.236  0.00  0.00    +0.000 C 
ENDBRANCH  24  25
ENDBRANCH  20  24
ENDBRANCH  19  20
ENDBRANCH  15  19
ENDBRANCH   1  16
BRANCH   6  27
ATOM     27  C   UNL     1       0.210  12.451  18.821  0.00  0.00    +0.000 C 
ATOM     28  C   UNL     1      -1.152  12.415  18.135  0.00  0.00    +0.000 C 
ENDBRANCH   6  27
TORSDOF 8
ENDMDL
MODEL 4
REMARK VINA RESULT:      -7.1      3.556      6.523
REMARK  Name = 
REMARK  11 active torsions:
REMARK  status: ('A' for Active; 'I' for Inactive)
REMARK    1  A    between atoms: C_1  and  C_2
REMARK    2  A    between atoms: C_2  and  O_3
REMARK    3  A    between atoms: O_3  and  C_4
REMARK    4  A    between atoms: C_4  and  C_5
REMARK    5  A    between atoms: C_4  and  O_25
REMARK    6  A    between atoms: C_5  and  N_6
REMARK    7  A    between atoms: C_7  and  C_9
REMARK    8  A    between atoms: N_14  and  C_15
REMARK    9  A    between atoms: C_15  and  C_16
REMARK   10  A    between atoms: O_25  and  C_26
REMARK   11  A    between atoms: C_26  and  C_27
REMARK                            x       y       z     vdW  Elec       q    Type
REMARK                         _______ _______ _______ _____ _____    ______ ____
ROOT
ATOM      1  C   UNL     1       2.792   6.810  18.842  0.00  0.00    +0.000 A 
ATOM      2  C   UNL     1       2.663   8.000  18.147  0.00  0.00    +0.000 A 
ATOM      3  C   UNL     1       1.912   8.986  18.869  0.00  0.00    +0.000 A 
ATOM      4  C   UNL     1       1.562  10.333  18.439  0.00  0.00    +0.000 A 
ATOM      5  O   UNL     1       1.945  10.751  17.342  0.00  0.00    +0.000 OA
ATOM      6  N   UNL     1       0.760  11.101  19.319  0.00  0.00    +0.000 N 
ATOM      7  C   UNL     1       0.345  10.606  20.617  0.00  0.00    +0.000 A 
ATOM      8  C   UNL     1      -0.431  11.352  21.518  0.00  0.00    +0.000 A 
ATOM      9  C   UNL     1      -0.817  10.824  22.763  0.00  0.00    +0.000 A 
ATOM     10  C   UNL     1      -0.435   9.544  23.145  0.00  0.00    +0.000 A 
ATOM     11  C   UNL     1       0.333   8.783  22.275  0.00  0.00    +0.000 A 
ATOM     12  C   UNL     1       0.719   9.293  21.025  0.00  0.00    +0.000 A 
ATOM     13  C   UNL     1       1.507   8.509  20.089  0.00  0.00    +0.000 A 
ATOM     14  S   UNL     1       2.014   6.915  20.365  0.00  0.00    +0.000 S 
ENDROOT
BRANCH   1  16
ATOM     15  N   UNL     1       4.825   5.629  18.409  0.00  0.00    +0.000 N 
ATOM     16  C   UNL     1       3.451   5.562  18.503  0.00  0.00    +0.000 C 
ATOM     17  O   UNL     1       2.867   4.497  18.313  0.00  0.00    +0.000 OA
ATOM     18  H   UNL     1       5.325   6.496  18.543  0.00  0.00    +0.000 HD
BRANCH  15  19
ATOM     19  C   UNL     1       5.598   4.453  18.059  0.00  0.00    +0.000 C 
BRANCH  19  20
ATOM     20  C   UNL     1       7.072   4.779  17.729  0.00  0.00    +0.000 C 
BRANCH  20  21
ATOM     21  O   UNL     1       7.481   6.040  18.278  0.00  0.00    +0.000 OA
BRANCH  21  23
ATOM     22  C   UNL     1       8.071   8.352  17.950  0.00  0.00    +0.000 C 
ATOM     23  C   UNL     1       7.552   7.082  17.307  0.00  0.00    +0.000 C 
ENDBRANCH  21  23
ENDBRANCH  20  21
BRANCH  20  24
ATOM     24  O   UNL     1       7.208   4.801  16.297  0.00  0.00    +0.000 OA
BRANCH  24  25
ATOM     25  C   UNL     1       6.336   3.869  15.660  0.00  0.00    +0.000 C 
ATOM     26  C   UNL     1       5.735   4.507  14.417  0.00  0.00    +0.000 C 
ENDBRANCH  24  25
ENDBRANCH  20  24
ENDBRANCH  19  20
ENDBRANCH  15  19
ENDBRANCH   1  16
BRANCH   6  27
ATOM     27  C   UNL     1       0.290  12.386  18.787  0.00  0.00    +0.000 C 
ATOM     28  C   UNL     1      -1.107  12.365  18.173  0.00  0.00    +0.000 C 
ENDBRANCH   6  27
TORSDOF 8
ENDMDL
MODEL 5
REMARK VINA RESULT:      -7.1      3.491      6.368
REMARK  Name = 
REMARK  11 active torsions:
REMARK  status: ('A' for Active; 'I' for Inactive)
REMARK    1  A    between atoms: C_1  and  C_2
REMARK    2  A    between atoms: C_2  and  O_3
REMARK    3  A    between atoms: O_3  and  C_4
REMARK    4  A    between atoms: C_4  and  C_5
REMARK    5  A    between atoms: C_4  and  O_25
REMARK    6  A    between atoms: C_5  and  N_6
REMARK    7  A    between atoms: C_7  and  C_9
REMARK    8  A    between atoms: N_14  and  C_15
REMARK    9  A    between atoms: C_15  and  C_16
REMARK   10  A    between atoms: O_25  and  C_26
REMARK   11  A    between atoms: C_26  and  C_27
REMARK                            x       y       z     vdW  Elec       q    Type
REMARK                         _______ _______ _______ _____ _____    ______ ____
ROOT
ATOM      1  C   UNL     1       2.493   6.766  19.161  0.00  0.00    +0.000 A 
ATOM      2  C   UNL     1       2.482   7.929  18.412  0.00  0.00    +0.000 A 
ATOM      3  C   UNL     1       1.781   9.000  19.061  0.00  0.00    +0.000 A 
ATOM      4  C   UNL     1       1.552  10.349  18.562  0.00  0.00    +0.000 A 
ATOM      5  O   UNL     1       2.007  10.687  17.465  0.00  0.00    +0.000 OA
ATOM      6  N   UNL     1       0.777  11.213  19.374  0.00  0.00    +0.000 N 
ATOM      7  C   UNL     1       0.275  10.809  20.674  0.00  0.00    +0.000 A 
ATOM      8  C   UNL     1      -0.475  11.650  21.510  0.00  0.00    +0.000 A 
ATOM      9  C   UNL     1      -0.947  11.208  22.758  0.00  0.00    +0.000 A 
ATOM     10  C   UNL     1      -0.679   9.921  23.209  0.00  0.00    +0.000 A 
ATOM     11  C   UNL     1       0.061   9.067  22.404  0.00  0.00    +0.000 A 
ATOM     12  C   UNL     1       0.533   9.491  21.151  0.00  0.00    +0.000 A 
ATOM     13  C   UNL     1       1.294   8.609  20.282  0.00  0.00    +0.000 A 
ATOM     14  S   UNL     1       1.667   6.996  20.645  0.00  0.00    +0.000 S 
ENDROOT
BRANCH   1  16
ATOM     15  N   UNL     1       3.405   5.215  17.588  0.00  0.00    +0.000 N 
ATOM     16  C   UNL     1       3.068   5.458  18.902  0.00  0.00    +0.000 C 
ATOM     17  O   UNL     1       3.264   4.602  19.763  0.00  0.00    +0.000 OA
ATOM     18  H   UNL     1       3.237   5.895  16.861  0.00  0.00    +0.000 HD
BRANCH  15  19
ATOM     19  C   UNL     1       3.972   3.938  17.197  0.00  0.00    +0.000 C 
BRANCH  19  20
ATOM     20  C   UNL     1       5.322   4.080  16.460  0.00  0.00    +0.000 C 
BRANCH  20  21
ATOM     21  O   UNL     1       6.094   5.183  16.957  0.00  0.00    +0.000 OA
BRANCH  21  23
ATOM     22  C   UNL     1       7.607   6.004  18.643  0.00  0.00    +0.000 C 
ATOM     23  C   UNL     1       7.103   4.792  17.887  0.00  0.00    +0.000 C 
ENDBRANCH  21  23
ENDBRANCH  20  21
BRANCH  20  24
ATOM     24  O   UNL     1       5.042   4.270  15.061  0.00  0.00    +0.000 OA
BRANCH  24  25
ATOM     25  C   UNL     1       6.230   4.465  14.296  0.00  0.00    +0.000 C 
ATOM     26  C   UNL     1       6.166   3.616  13.037  0.00  0.00    +0.000 C 
ENDBRANCH  24  25
ENDBRANCH  20  24
ENDBRANCH  19  20
ENDBRANCH  15  19
ENDBRANCH   1  16
BRANCH   6  27
ATOM     27  C   UNL     1       0.426  12.504  18.770  0.00  0.00    +0.000 C 
ATOM     28  C   UNL     1      -0.929  12.550  18.070  0.00  0.00    +0.000 C 
ENDBRANCH   6  27
TORSDOF 8
ENDMDL
MODEL 6
REMARK VINA RESULT:      -7.1      4.606      8.756
REMARK  Name = 
REMARK  11 active torsions:
REMARK  status: ('A' for Active; 'I' for Inactive)
REMARK    1  A    between atoms: C_1  and  C_2
REMARK    2  A    between atoms: C_2  and  O_3
REMARK    3  A    between atoms: O_3  and  C_4
REMARK    4  A    between atoms: C_4  and  C_5
REMARK    5  A    between atoms: C_4  and  O_25
REMARK    6  A    between atoms: C_5  and  N_6
REMARK    7  A    between atoms: C_7  and  C_9
REMARK    8  A    between atoms: N_14  and  C_15
REMARK    9  A    between atoms: C_15  and  C_16
REMARK   10  A    between atoms: O_25  and  C_26
REMARK   11  A    between atoms: C_26  and  C_27
REMARK                            x       y       z     vdW  Elec       q    Type
REMARK                         _______ _______ _______ _____ _____    ______ ____
ROOT
ATOM      1  C   UNL     1       1.741   8.526  19.305  0.00  0.00    +0.000 A 
ATOM      2  C   UNL     1       1.857   7.357  20.037  0.00  0.00    +0.000 A 
ATOM      3  C   UNL     1       2.718   6.394  19.413  0.00  0.00    +0.000 A 
ATOM      4  C   UNL     1       3.053   5.057  19.885  0.00  0.00    +0.000 A 
ATOM      5  O   UNL     1       2.592   4.646  20.954  0.00  0.00    +0.000 OA
ATOM      6  N   UNL     1       3.890   4.273  19.055  0.00  0.00    +0.000 N 
ATOM      7  C   UNL     1       4.447   4.782  17.815  0.00  0.00    +0.000 A 
ATOM      8  C   UNL     1       5.297   4.037  16.984  0.00  0.00    +0.000 A 
ATOM      9  C   UNL     1       5.804   4.572  15.787  0.00  0.00    +0.000 A 
ATOM     10  C   UNL     1       5.483   5.865  15.391  0.00  0.00    +0.000 A 
ATOM     11  C   UNL     1       4.645   6.626  16.193  0.00  0.00    +0.000 A 
ATOM     12  C   UNL     1       4.124   6.102  17.387  0.00  0.00    +0.000 A 
ATOM     13  C   UNL     1       3.229   6.873  18.235  0.00  0.00    +0.000 A 
ATOM     14  S   UNL     1       2.691   8.441  17.881  0.00  0.00    +0.000 S 
ENDROOT
BRANCH   1  16
ATOM     15  N   UNL     1       0.583  10.415  18.411  0.00  0.00    +0.000 N 
ATOM     16  C   UNL     1       0.988   9.743  19.544  0.00  0.00    +0.000 C 
ATOM     17  O   UNL     1       0.702  10.176  20.659  0.00  0.00    +0.000 OA
ATOM     18  H   UNL     1       0.821  10.089  17.485  0.00  0.00    +0.000 HD
BRANCH  15  19
ATOM     19  C   UNL     1      -0.163  11.655  18.517  0.00  0.00    +0.000 C 
BRANCH  19  20
ATOM     20  C   UNL     1      -1.669  11.478  18.218  0.00  0.00    +0.000 C 
BRANCH  20  21
ATOM     21  O   UNL     1      -2.492  12.008  19.268  0.00  0.00    +0.000 OA
BRANCH  21  23
ATOM     22  C   UNL     1      -2.127  12.321  21.628  0.00  0.00    +0.000 C 
ATOM     23  C   UNL     1      -1.763  12.769  20.227  0.00  0.00    +0.000 C 
ENDBRANCH  21  23
ENDBRANCH  20  21
BRANCH  20  24
ATOM     24  O   UNL     1      -1.923  10.071  18.059  0.00  0.00    +0.000 OA
BRANCH  24  25
ATOM     25  C   UNL     1      -2.853   9.807  17.011  0.00  0.00    +0.000 C 
ATOM     26  C   UNL     1      -2.709  10.865  15.928  0.00  0.00    +0.000 C 
ENDBRANCH  24  25
ENDBRANCH  20  24
ENDBRANCH  19  20
ENDBRANCH  15  19
ENDBRANCH   1  16
BRANCH   6  27
ATOM     27  C   UNL     1       4.072   2.878  19.476  0.00  0.00    +0.000 C 
ATOM     28  C   UNL     1       3.127   1.873  18.824  0.00  0.00    +0.000 C 
ENDBRANCH   6  27
TORSDOF 8
ENDMDL
MODEL 7
REMARK VINA RESULT:      -7.1      1.555      2.838
REMARK  Name = 
REMARK  11 active torsions:
REMARK  status: ('A' for Active; 'I' for Inactive)
REMARK    1  A    between atoms: C_1  and  C_2
REMARK    2  A    between atoms: C_2  and  O_3
REMARK    3  A    between atoms: O_3  and  C_4
REMARK    4  A    between atoms: C_4  and  C_5
REMARK    5  A    between atoms: C_4  and  O_25
REMARK    6  A    between atoms: C_5  and  N_6
REMARK    7  A    between atoms: C_7  and  C_9
REMARK    8  A    between atoms: N_14  and  C_15
REMARK    9  A    between atoms: C_15  and  C_16
REMARK   10  A    between atoms: O_25  and  C_26
REMARK   11  A    between atoms: C_26  and  C_27
REMARK                            x       y       z     vdW  Elec       q    Type
REMARK                         _______ _______ _______ _____ _____    ______ ____
ROOT
ATOM      1  C   UNL     1       5.308   5.046  16.081  0.00  0.00    +0.000 A 
ATOM      2  C   UNL     1       4.763   6.241  16.516  0.00  0.00    +0.000 A 
ATOM      3  C   UNL     1       3.892   6.076  17.644  0.00  0.00    +0.000 A 
ATOM      4  C   UNL     1       3.135   7.104  18.346  0.00  0.00    +0.000 A 
ATOM      5  O   UNL     1       3.224   8.284  17.995  0.00  0.00    +0.000 OA
ATOM      6  N   UNL     1       2.298   6.676  19.405  0.00  0.00    +0.000 N 
ATOM      7  C   UNL     1       2.229   5.288  19.824  0.00  0.00    +0.000 A 
ATOM      8  C   UNL     1       1.426   4.839  20.883  0.00  0.00    +0.000 A 
ATOM      9  C   UNL     1       1.386   3.481  21.246  0.00  0.00    +0.000 A 
ATOM     10  C   UNL     1       2.149   2.538  20.568  0.00  0.00    +0.000 A 
ATOM     11  C   UNL     1       2.953   2.953  19.516  0.00  0.00    +0.000 A 
ATOM     12  C   UNL     1       2.997   4.304  19.137  0.00  0.00    +0.000 A 
ATOM     13  C   UNL     1       3.817   4.761  18.027  0.00  0.00    +0.000 A 
ATOM     14  S   UNL     1       4.767   3.746  17.058  0.00  0.00    +0.000 S 
ENDROOT
BRANCH   1  16
ATOM     15  N   UNL     1       5.658   4.060  13.932  0.00  0.00    +0.000 N 
ATOM     16  C   UNL     1       6.218   4.741  14.991  0.00  0.00    +0.000 C 
ATOM     17  O   UNL     1       7.406   5.054  14.970  0.00  0.00    +0.000 OA
ATOM     18  H   UNL     1       4.688   3.776  13.935  0.00  0.00    +0.000 HD
BRANCH  15  19
ATOM     19  C   UNL     1       6.467   3.681  12.789  0.00  0.00    +0.000 C 
BRANCH  19  20
ATOM     20  C   UNL     1       5.628   3.128  11.615  0.00  0.00    +0.000 C 
BRANCH  20  21
ATOM     21  O   UNL     1       4.332   3.740  11.543  0.00  0.00    +0.000 OA
BRANCH  21  23
ATOM     22  C   UNL     1       2.951   4.194   9.622  0.00  0.00    +0.000 C 
ATOM     23  C   UNL     1       3.476   3.139  10.574  0.00  0.00    +0.000 C 
ENDBRANCH  21  23
ENDBRANCH  20  21
BRANCH  20  24
ATOM     24  O   UNL     1       5.489   1.708  11.804  0.00  0.00    +0.000 OA
BRANCH  24  25
ATOM     25  C   UNL     1       6.463   0.970  11.070  0.00  0.00    +0.000 C 
ATOM     26  C   UNL     1       7.610   1.890  10.683  0.00  0.00    +0.000 C 
ENDBRANCH  24  25
ENDBRANCH  20  24
ENDBRANCH  19  20
ENDBRANCH  15  19
ENDBRANCH   1  16
BRANCH   6  27
ATOM     27  C   UNL     1       1.427   7.708  19.980  0.00  0.00    +0.000 C 
ATOM     28  C   UNL     1       1.696   8.047  21.443  0.00  0.00    +0.000 C 
ENDBRANCH   6  27
TORSDOF 8
ENDMDL
MODEL 8
REMARK VINA RESULT:      -7.1      3.206      6.042
REMARK  Name = 
REMARK  11 active torsions:
REMARK  status: ('A' for Active; 'I' for Inactive)
REMARK    1  A    between atoms: C_1  and  C_2
REMARK    2  A    between atoms: C_2  and  O_3
REMARK    3  A    between atoms: O_3  and  C_4
REMARK    4  A    between atoms: C_4  and  C_5
REMARK    5  A    between atoms: C_4  and  O_25
REMARK    6  A    between atoms: C_5  and  N_6
REMARK    7  A    between atoms: C_7  and  C_9
REMARK    8  A    between atoms: N_14  and  C_15
REMARK    9  A    between atoms: C_15  and  C_16
REMARK   10  A    between atoms: O_25  and  C_26
REMARK   11  A    between atoms: C_26  and  C_27
REMARK                            x       y       z     vdW  Elec       q    Type
REMARK                         _______ _______ _______ _____ _____    ______ ____
ROOT
ATOM      1  C   UNL     1       2.883   6.530  18.361  0.00  0.00    +0.000 A 
ATOM      2  C   UNL     1       2.865   7.778  17.765  0.00  0.00    +0.000 A 
ATOM      3  C   UNL     1       2.186   8.762  18.557  0.00  0.00    +0.000 A 
ATOM      4  C   UNL     1       1.958  10.165  18.237  0.00  0.00    +0.000 A 
ATOM      5  O   UNL     1       2.393  10.636  17.182  0.00  0.00    +0.000 OA
ATOM      6  N   UNL     1       1.207  10.924  19.168  0.00  0.00    +0.000 N 
ATOM      7  C   UNL     1       0.729  10.362  20.417  0.00  0.00    +0.000 A 
ATOM      8  C   UNL     1       0.003  11.095  21.368  0.00  0.00    +0.000 A 
ATOM      9  C   UNL     1      -0.448  10.502  22.561  0.00  0.00    +0.000 A 
ATOM     10  C   UNL     1      -0.181   9.168  22.840  0.00  0.00    +0.000 A 
ATOM     11  C   UNL     1       0.537   8.418  21.919  0.00  0.00    +0.000 A 
ATOM     12  C   UNL     1       0.985   8.993  20.719  0.00  0.00    +0.000 A 
ATOM     13  C   UNL     1       1.722   8.224  19.730  0.00  0.00    +0.000 A 
ATOM     14  S   UNL     1       2.090   6.576  19.880  0.00  0.00    +0.000 S 
ENDROOT
BRANCH   1  16
ATOM     15  N   UNL     1       4.481   5.355  17.027  0.00  0.00    +0.000 N 
ATOM     16  C   UNL     1       3.441   5.262  17.928  0.00  0.00    +0.000 C 
ATOM     17  O   UNL     1       3.052   4.162  18.315  0.00  0.00    +0.000 OA
ATOM     18  H   UNL     1       4.805   6.247  16.680  0.00  0.00    +0.000 HD
BRANCH  15  19
ATOM     19  C   UNL     1       5.112   4.158  16.504  0.00  0.00    +0.000 C 
BRANCH  19  20
ATOM     20  C   UNL     1       6.547   4.412  15.988  0.00  0.00    +0.000 C 
BRANCH  20  21
ATOM     21  O   UNL     1       7.253   5.359  16.804  0.00  0.00    +0.000 OA
BRANCH  21  23
ATOM     22  C   UNL     1       7.700   5.815  19.127  0.00  0.00    +0.000 C 
ATOM     23  C   UNL     1       7.766   4.794  18.009  0.00  0.00    +0.000 C 
ENDBRANCH  21  23
ENDBRANCH  20  21
BRANCH  20  24
ATOM     24  O   UNL     1       6.449   4.904  14.640  0.00  0.00    +0.000 OA
BRANCH  24  25
ATOM     25  C   UNL     1       5.620   4.078  13.825  0.00  0.00    +0.000 C 
ATOM     26  C   UNL     1       6.399   3.632  12.599  0.00  0.00    +0.000 C 
ENDBRANCH  24  25
ENDBRANCH  20  24
ENDBRANCH  19  20
ENDBRANCH  15  19
ENDBRANCH   1  16
BRANCH   6  27
ATOM     27  C   UNL     1       0.854  12.283  18.738  0.00  0.00    +0.000 C 
ATOM     28  C   UNL     1       1.833  13.374  19.161  0.00  0.00    +0.000 C 
ENDBRANCH   6  27
TORSDOF 8
ENDMDL
MODEL 9
REMARK VINA RESULT:      -7.0      4.718      8.632
REMARK  Name = 
REMARK  11 active torsions:
REMARK  status: ('A' for Active; 'I' for Inactive)
REMARK    1  A    between atoms: C_1  and  C_2
REMARK    2  A    between atoms: C_2  and  O_3
REMARK    3  A    between atoms: O_3  and  C_4
REMARK    4  A    between atoms: C_4  and  C_5
REMARK    5  A    between atoms: C_4  and  O_25
REMARK    6  A    between atoms: C_5  and  N_6
REMARK    7  A    between atoms: C_7  and  C_9
REMARK    8  A    between atoms: N_14  and  C_15
REMARK    9  A    between atoms: C_15  and  C_16
REMARK   10  A    between atoms: O_25  and  C_26
REMARK   11  A    between atoms: C_26  and  C_27
REMARK                            x       y       z     vdW  Elec       q    Type
REMARK                         _______ _______ _______ _____ _____    ______ ____
ROOT
ATOM      1  C   UNL     1       1.412   8.559  19.872  0.00  0.00    +0.000 A 
ATOM      2  C   UNL     1       1.513   7.333  20.505  0.00  0.00    +0.000 A 
ATOM      3  C   UNL     1       2.372   6.418  19.810  0.00  0.00    +0.000 A 
ATOM      4  C   UNL     1       2.692   5.044  20.171  0.00  0.00    +0.000 A 
ATOM      5  O   UNL     1       2.220   4.550  21.199  0.00  0.00    +0.000 OA
ATOM      6  N   UNL     1       3.531   4.325  19.285  0.00  0.00    +0.000 N 
ATOM      7  C   UNL     1       4.102   4.931  18.097  0.00  0.00    +0.000 A 
ATOM      8  C   UNL     1       4.953   4.250  17.213  0.00  0.00    +0.000 A 
ATOM      9  C   UNL     1       5.474   4.879  16.069  0.00  0.00    +0.000 A 
ATOM     10  C   UNL     1       5.165   6.202  15.778  0.00  0.00    +0.000 A 
ATOM     11  C   UNL     1       4.327   6.902  16.635  0.00  0.00    +0.000 A 
ATOM     12  C   UNL     1       3.792   6.285  17.777  0.00  0.00    +0.000 A 
ATOM     13  C   UNL     1       2.896   6.990  18.679  0.00  0.00    +0.000 A 
ATOM     14  S   UNL     1       2.373   8.586  18.453  0.00  0.00    +0.000 S 
ENDROOT
BRANCH   1  16
ATOM     15  N   UNL     1      -0.431  10.009  19.409  0.00  0.00    +0.000 N 
ATOM     16  C   UNL     1       0.665   9.759  20.206  0.00  0.00    +0.000 C 
ATOM     17  O   UNL     1       0.949  10.520  21.129  0.00  0.00    +0.000 OA
ATOM     18  H   UNL     1      -0.674   9.408  18.634  0.00  0.00    +0.000 HD
BRANCH  15  19
ATOM     19  C   UNL     1      -1.250  11.186  19.630  0.00  0.00    +0.000 C 
BRANCH  19  20
ATOM     20  C   UNL     1      -1.855  11.751  18.325  0.00  0.00    +0.000 C 
BRANCH  20  21
ATOM     21  O   UNL     1      -2.095  10.722  17.354  0.00  0.00    +0.000 OA
BRANCH  21  23
ATOM     22  C   UNL     1      -2.859  10.223  15.124  0.00  0.00    +0.000 C 
ATOM     23  C   UNL     1      -3.026  11.106  16.344  0.00  0.00    +0.000 C 
ENDBRANCH  21  23
ENDBRANCH  20  21
BRANCH  20  24
ATOM     24  O   UNL     1      -0.934  12.720  17.796  0.00  0.00    +0.000 OA
BRANCH  24  25
ATOM     25  C   UNL     1      -0.337  13.511  18.822  0.00  0.00    +0.000 C 
ATOM     26  C   UNL     1       1.164  13.588  18.591  0.00  0.00    +0.000 C 
ENDBRANCH  24  25
ENDBRANCH  20  24
ENDBRANCH  19  20
ENDBRANCH  15  19
ENDBRANCH   1  16
BRANCH   6  27
ATOM     27  C   UNL     1       3.699   2.898  19.590  0.00  0.00    +0.000 C 
ATOM     28  C   UNL     1       2.721   1.962  18.886  0.00  0.00    +0.000 C 
ENDBRANCH   6  27
TORSDOF 8
ENDMDL
