MODEL 1
REMARK VINA RESULT:      -7.6      0.000      0.000
REMARK  Name = 
REMARK  8 active torsions:
REMARK  status: ('A' for Active; 'I' for Inactive)
REMARK    1  A    between atoms: C_1  and  C_2
REMARK    2  A    between atoms: C_2  and  O_3
REMARK    3  A    between atoms: O_3  and  C_4
REMARK    4  A    between atoms: C_6  and  C_7
REMARK    5  A    between atoms: C_7  and  O_9
REMARK    6  A    between atoms: C_11  and  C_12
REMARK    7  A    between atoms: C_13  and  C_14
REMARK    8  A    between atoms: C_17  and  C_18
REMARK                            x       y       z     vdW  Elec       q    Type
REMARK                         _______ _______ _______ _____ _____    ______ ____
ROOT
ATOM      1  C   UNL     1       2.161   4.304  17.795  0.00  0.00    +0.000 A 
ATOM      2  C   UNL     1       1.733   5.606  18.024  0.00  0.00    +0.000 A 
ATOM      3  C   UNL     1       2.648   6.664  17.992  0.00  0.00    +0.000 A 
ATOM      4  C   UNL     1       3.989   6.408  17.680  0.00  0.00    +0.000 A 
ATOM      5  C   UNL     1       4.439   5.101  17.457  0.00  0.00    +0.000 A 
ATOM      6  C   UNL     1       3.509   4.054  17.537  0.00  0.00    +0.000 A 
ENDROOT
BRANCH   5   7
ATOM      7  C   UNL     1       5.840   4.839  17.149  0.00  0.00    +0.000 A 
ATOM      8  C   UNL     1       7.011   4.946  17.959  0.00  0.00    +0.000 A 
ATOM      9  C   UNL     1       7.153   5.327  19.386  0.00  0.00    +0.000 C 
ATOM     10  N   UNL     1       8.113   4.633  17.267  0.00  0.00    +0.000 NA
ATOM     11  O   UNL     1       7.687   4.312  15.998  0.00  0.00    +0.000 OA
ATOM     12  C   UNL     1       6.334   4.430  15.922  0.00  0.00    +0.000 A 
ATOM     13  C   UNL     1       5.756   4.126  14.594  0.00  0.00    +0.000 C 
ENDBRANCH   5   7
BRANCH   3  14
ATOM     14  C   UNL     1       2.232   8.068  18.217  0.00  0.00    +0.000 C 
ATOM     15  O   UNL     1       2.284   8.914  17.337  0.00  0.00    +0.000 OA
BRANCH  14  16
ATOM     16  O   UNL     1       1.831   8.342  19.475  0.00  0.00    +0.000 OA
ATOM     17  H   UNL     1       0.967   8.786  19.559  0.00  0.00    +0.000 HD
ENDBRANCH  14  16
ENDBRANCH   3  14
BRANCH   1  18
ATOM     18  O   UNL     1       1.169   3.362  17.840  0.00  0.00    +0.000 OA
BRANCH  18  20
ATOM     19  C   UNL     1       1.030   2.946  20.181  0.00  0.00    +0.000 C 
ATOM     20  C   UNL     1       1.295   2.333  18.821  0.00  0.00    +0.000 C 
ENDBRANCH  18  20
ENDBRANCH   1  18
TORSDOF 5
ENDMDL
MODEL 2
REMARK VINA RESULT:      -7.5      0.478      2.013
REMARK  Name = 
REMARK  8 active torsions:
REMARK  status: ('A' for Active; 'I' for Inactive)
REMARK    1  A    between atoms: C_1  and  C_2
REMARK    2  A    between atoms: C_2  and  O_3
REMARK    3  A    between atoms: O_3  and  C_4
REMARK    4  A    between atoms: C_6  and  C_7
REMARK    5  A    between atoms: C_7  and  O_9
REMARK    6  A    between atoms: C_11  and  C_12
REMARK    7  A    between atoms: C_13  and  C_14
REMARK    8  A    between atoms: C_17  and  C_18
REMARK                            x       y       z     vdW  Elec       q    Type
REMARK                         _______ _______ _______ _____ _____    ______ ____
ROOT
ATOM      1  C   UNL     1       2.107   4.393  17.760  0.00  0.00    +0.000 A 
ATOM      2  C   UNL     1       1.683   5.678  18.078  0.00  0.00    +0.000 A 
ATOM      3  C   UNL     1       2.589   6.742  18.067  0.00  0.00    +0.000 A 
ATOM      4  C   UNL     1       3.918   6.514  17.688  0.00  0.00    +0.000 A 
ATOM      5  C   UNL     1       4.366   5.223  17.375  0.00  0.00    +0.000 A 
ATOM      6  C   UNL     1       3.445   4.167  17.436  0.00  0.00    +0.000 A 
ENDROOT
BRANCH   5   7
ATOM      7  C   UNL     1       5.754   4.989  16.998  0.00  0.00    +0.000 A 
ATOM      8  C   UNL     1       6.329   4.570  15.761  0.00  0.00    +0.000 A 
ATOM      9  C   UNL     1       5.681   4.276  14.458  0.00  0.00    +0.000 C 
ATOM     10  N   UNL     1       7.659   4.451  15.854  0.00  0.00    +0.000 NA
ATOM     11  O   UNL     1       7.979   4.794  17.149  0.00  0.00    +0.000 OA
ATOM     12  C   UNL     1       6.850   5.118  17.834  0.00  0.00    +0.000 A 
ATOM     13  C   UNL     1       7.066   5.489  19.250  0.00  0.00    +0.000 C 
ENDBRANCH   5   7
BRANCH   3  14
ATOM     14  C   UNL     1       2.176   8.129  18.385  0.00  0.00    +0.000 C 
ATOM     15  O   UNL     1       1.753   8.448  19.487  0.00  0.00    +0.000 OA
BRANCH  14  16
ATOM     16  O   UNL     1       2.267   8.994  17.355  0.00  0.00    +0.000 OA
ATOM     17  H   UNL     1       2.542   9.901  17.585  0.00  0.00    +0.000 HD
ENDBRANCH  14  16
ENDBRANCH   3  14
BRANCH   1  18
ATOM     18  O   UNL     1       1.123   3.443  17.794  0.00  0.00    +0.000 OA
BRANCH  18  20
ATOM     19  C   UNL     1       1.055   2.922  20.116  0.00  0.00    +0.000 C 
ATOM     20  C   UNL     1       1.285   2.372  18.723  0.00  0.00    +0.000 C 
ENDBRANCH  18  20
ENDBRANCH   1  18
TORSDOF 5
ENDMDL
MODEL 3
REMARK VINA RESULT:      -7.4      1.158      4.163
REMARK  Name = 
REMARK  8 active torsions:
REMARK  status: ('A' for Active; 'I' for Inactive)
REMARK    1  A    between atoms: C_1  and  C_2
REMARK    2  A    between atoms: C_2  and  O_3
REMARK    3  A    between atoms: O_3  and  C_4
REMARK    4  A    between atoms: C_6  and  C_7
REMARK    5  A    between atoms: C_7  and  O_9
REMARK    6  A    between atoms: C_11  and  C_12
REMARK    7  A    between atoms: C_13  and  C_14
REMARK    8  A    between atoms: C_17  and  C_18
REMARK                            x       y       z     vdW  Elec       q    Type
REMARK                         _______ _______ _______ _____ _____    ______ ____
ROOT
ATOM      1  C   UNL     1       2.721   6.114  18.154  0.00  0.00    +0.000 A 
ATOM      2  C   UNL     1       2.008   4.950  18.418  0.00  0.00    +0.000 A 
ATOM      3  C   UNL     1       2.507   3.710  18.007  0.00  0.00    +0.000 A 
ATOM      4  C   UNL     1       3.753   3.643  17.371  0.00  0.00    +0.000 A 
ATOM      5  C   UNL     1       4.480   4.806  17.088  0.00  0.00    +0.000 A 
ATOM      6  C   UNL     1       3.936   6.041  17.473  0.00  0.00    +0.000 A 
ENDROOT
BRANCH   5   7
ATOM      7  C   UNL     1       5.768   4.732  16.410  0.00  0.00    +0.000 A 
ATOM      8  C   UNL     1       6.093   4.466  15.045  0.00  0.00    +0.000 A 
ATOM      9  C   UNL     1       5.204   4.218  13.883  0.00  0.00    +0.000 C 
ATOM     10  N   UNL     1       7.417   4.464  14.850  0.00  0.00    +0.000 NA
ATOM     11  O   UNL     1       7.982   4.731  16.076  0.00  0.00    +0.000 OA
ATOM     12  C   UNL     1       7.006   4.895  17.009  0.00  0.00    +0.000 A 
ATOM     13  C   UNL     1       7.493   5.171  18.378  0.00  0.00    +0.000 C 
ENDBRANCH   5   7
BRANCH   3  14
ATOM     14  C   UNL     1       1.786   2.444  18.280  0.00  0.00    +0.000 C 
ATOM     15  O   UNL     1       0.575   2.402  18.430  0.00  0.00    +0.000 OA
BRANCH  14  16
ATOM     16  O   UNL     1       2.577   1.357  18.386  0.00  0.00    +0.000 OA
ATOM     17  H   UNL     1       2.185   0.588  18.838  0.00  0.00    +0.000 HD
ENDBRANCH  14  16
ENDBRANCH   3  14
BRANCH   1  18
ATOM     18  O   UNL     1       2.134   7.258  18.618  0.00  0.00    +0.000 OA
BRANCH  18  20
ATOM     19  C   UNL     1       1.243   9.375  17.989  0.00  0.00    +0.000 C 
ATOM     20  C   UNL     1       2.460   8.474  17.947  0.00  0.00    +0.000 C 
ENDBRANCH  18  20
ENDBRANCH   1  18
TORSDOF 5
ENDMDL
MODEL 4
REMARK VINA RESULT:      -7.4      2.500      5.663
REMARK  Name = 
REMARK  8 active torsions:
REMARK  status: ('A' for Active; 'I' for Inactive)
REMARK    1  A    between atoms: C_1  and  C_2
REMARK    2  A    between atoms: C_2  and  O_3
REMARK    3  A    between atoms: O_3  and  C_4
REMARK    4  A    between atoms: C_6  and  C_7
REMARK    5  A    between atoms: C_7  and  O_9
REMARK    6  A    between atoms: C_11  and  C_12
REMARK    7  A    between atoms: C_13  and  C_14
REMARK    8  A    between atoms: C_17  and  C_18
REMARK                            x       y       z     vdW  Elec       q    Type
REMARK                         _______ _______ _______ _____ _____    ______ ____
ROOT
ATOM      1  C   UNL     1       6.376   4.500  15.818  0.00  0.00    +0.000 A 
ATOM      2  C   UNL     1       7.283   5.137  16.657  0.00  0.00    +0.000 A 
ATOM      3  C   UNL     1       6.929   5.444  17.974  0.00  0.00    +0.000 A 
ATOM      4  C   UNL     1       5.672   5.061  18.459  0.00  0.00    +0.000 A 
ATOM      5  C   UNL     1       4.741   4.428  17.624  0.00  0.00    +0.000 A 
ATOM      6  C   UNL     1       5.107   4.172  16.295  0.00  0.00    +0.000 A 
ENDROOT
BRANCH   5   7
ATOM      7  C   UNL     1       3.428   4.048  18.129  0.00  0.00    +0.000 A 
ATOM      8  C   UNL     1       2.884   2.768  18.450  0.00  0.00    +0.000 A 
ATOM      9  C   UNL     1       3.511   1.424  18.399  0.00  0.00    +0.000 C 
ATOM     10  N   UNL     1       1.614   2.866  18.862  0.00  0.00    +0.000 NA
ATOM     11  O   UNL     1       1.305   4.207  18.823  0.00  0.00    +0.000 OA
ATOM     12  C   UNL     1       2.381   4.917  18.390  0.00  0.00    +0.000 A 
ATOM     13  C   UNL     1       2.165   6.377  18.289  0.00  0.00    +0.000 C 
ENDBRANCH   5   7
BRANCH   3  14
ATOM     14  C   UNL     1       7.871   6.109  18.905  0.00  0.00    +0.000 C 
ATOM     15  O   UNL     1       8.327   7.222  18.688  0.00  0.00    +0.000 OA
BRANCH  14  16
ATOM     16  O   UNL     1       8.210   5.375  19.984  0.00  0.00    +0.000 OA
ATOM     17  H   UNL     1       8.580   5.871  20.737  0.00  0.00    +0.000 HD
ENDBRANCH  14  16
ENDBRANCH   3  14
BRANCH   1  18
ATOM     18  O   UNL     1       6.847   4.244  14.559  0.00  0.00    +0.000 OA
BRANCH  18  20
ATOM     19  C   UNL     1       6.631   3.591  12.280  0.00  0.00    +0.000 C 
ATOM     20  C   UNL     1       5.894   3.829  13.582  0.00  0.00    +0.000 C 
ENDBRANCH  18  20
ENDBRANCH   1  18
TORSDOF 5
ENDMDL
MODEL 5
REMARK VINA RESULT:      -7.4      2.943      5.602
REMARK  Name = 
REMARK  8 active torsions:
REMARK  status: ('A' for Active; 'I' for Inactive)
REMARK    1  A    between atoms: C_1  and  C_2
REMARK    2  A    between atoms: C_2  and  O_3
REMARK    3  A    between atoms: O_3  and  C_4
REMARK    4  A    between atoms: C_6  and  C_7
REMARK    5  A    between atoms: C_7  and  O_9
REMARK    6  A    between atoms: C_11  and  C_12
REMARK    7  A    between atoms: C_13  and  C_14
REMARK    8  A    between atoms: C_17  and  C_18
REMARK                            x       y       z     vdW  Elec       q    Type
REMARK                         _______ _______ _______ _____ _____    ______ ____
ROOT
ATOM      1  C   UNL     1       5.424   5.319  16.409  0.00  0.00    +0.000 A 
ATOM      2  C   UNL     1       6.539   5.650  17.170  0.00  0.00    +0.000 A 
ATOM      3  C   UNL     1       6.500   5.535  18.563  0.00  0.00    +0.000 A 
ATOM      4  C   UNL     1       5.347   5.039  19.183  0.00  0.00    +0.000 A 
ATOM      5  C   UNL     1       4.210   4.711  18.433  0.00  0.00    +0.000 A 
ATOM      6  C   UNL     1       4.262   4.877  17.041  0.00  0.00    +0.000 A 
ENDROOT
BRANCH   5   7
ATOM      7  C   UNL     1       3.007   4.211  19.086  0.00  0.00    +0.000 A 
ATOM      8  C   UNL     1       2.038   4.876  19.896  0.00  0.00    +0.000 A 
ATOM      9  C   UNL     1       1.943   6.303  20.293  0.00  0.00    +0.000 C 
ATOM     10  N   UNL     1       1.093   4.030  20.323  0.00  0.00    +0.000 NA
ATOM     11  O   UNL     1       1.422   2.800  19.799  0.00  0.00    +0.000 OA
ATOM     12  C   UNL     1       2.559   2.901  19.060  0.00  0.00    +0.000 A 
ATOM     13  C   UNL     1       3.025   1.633  18.457  0.00  0.00    +0.000 C 
ENDBRANCH   5   7
BRANCH   3  14
ATOM     14  C   UNL     1       7.671   5.863  19.410  0.00  0.00    +0.000 C 
ATOM     15  O   UNL     1       7.925   5.253  20.438  0.00  0.00    +0.000 OA
BRANCH  14  16
ATOM     16  O   UNL     1       8.404   6.908  18.977  0.00  0.00    +0.000 OA
ATOM     17  H   UNL     1       8.484   7.658  19.596  0.00  0.00    +0.000 HD
ENDBRANCH  14  16
ENDBRANCH   3  14
BRANCH   1  18
ATOM     18  O   UNL     1       5.593   5.462  15.059  0.00  0.00    +0.000 OA
BRANCH  18  20
ATOM     19  C   UNL     1       6.140   3.799  13.445  0.00  0.00    +0.000 C 
ATOM     20  C   UNL     1       6.693   4.773  14.465  0.00  0.00    +0.000 C 
ENDBRANCH  18  20
ENDBRANCH   1  18
TORSDOF 5
ENDMDL
MODEL 6
REMARK VINA RESULT:      -7.3      2.812      5.710
REMARK  Name = 
REMARK  8 active torsions:
REMARK  status: ('A' for Active; 'I' for Inactive)
REMARK    1  A    between atoms: C_1  and  C_2
REMARK    2  A    between atoms: C_2  and  O_3
REMARK    3  A    between atoms: O_3  and  C_4
REMARK    4  A    between atoms: C_6  and  C_7
REMARK    5  A    between atoms: C_7  and  O_9
REMARK    6  A    between atoms: C_11  and  C_12
REMARK    7  A    between atoms: C_13  and  C_14
REMARK    8  A    between atoms: C_17  and  C_18
REMARK                            x       y       z     vdW  Elec       q    Type
REMARK                         _______ _______ _______ _____ _____    ______ ____
ROOT
ATOM      1  C   UNL     1       6.423   4.404  15.885  0.00  0.00    +0.000 A 
ATOM      2  C   UNL     1       7.353   4.949  16.763  0.00  0.00    +0.000 A 
ATOM      3  C   UNL     1       7.003   5.199  18.093  0.00  0.00    +0.000 A 
ATOM      4  C   UNL     1       5.725   4.852  18.549  0.00  0.00    +0.000 A 
ATOM      5  C   UNL     1       4.772   4.311  17.676  0.00  0.00    +0.000 A 
ATOM      6  C   UNL     1       5.136   4.111  16.336  0.00  0.00    +0.000 A 
ENDROOT
BRANCH   5   7
ATOM      7  C   UNL     1       3.438   3.967  18.152  0.00  0.00    +0.000 A 
ATOM      8  C   UNL     1       2.309   4.790  18.445  0.00  0.00    +0.000 A 
ATOM      9  C   UNL     1       2.140   6.259  18.318  0.00  0.00    +0.000 C 
ATOM     10  N   UNL     1       1.277   4.063  18.889  0.00  0.00    +0.000 NA
ATOM     11  O   UNL     1       1.707   2.756  18.891  0.00  0.00    +0.000 OA
ATOM     12  C   UNL     1       2.992   2.691  18.451  0.00  0.00    +0.000 A 
ATOM     13  C   UNL     1       3.574   1.331  18.425  0.00  0.00    +0.000 C 
ENDBRANCH   5   7
BRANCH   3  14
ATOM     14  C   UNL     1       7.968   5.766  19.065  0.00  0.00    +0.000 C 
ATOM     15  O   UNL     1       8.378   5.131  20.025  0.00  0.00    +0.000 OA
BRANCH  14  16
ATOM     16  O   UNL     1       8.322   7.045  18.826  0.00  0.00    +0.000 OA
ATOM     17  H   UNL     1       7.744   7.727  19.215  0.00  0.00    +0.000 HD
ENDBRANCH  14  16
ENDBRANCH   3  14
BRANCH   1  18
ATOM     18  O   UNL     1       6.891   4.196  14.617  0.00  0.00    +0.000 OA
BRANCH  18  20
ATOM     19  C   UNL     1       6.667   3.640  12.312  0.00  0.00    +0.000 C 
ATOM     20  C   UNL     1       5.928   3.880  13.613  0.00  0.00    +0.000 C 
ENDBRANCH  18  20
ENDBRANCH   1  18
TORSDOF 5
ENDMDL
MODEL 7
REMARK VINA RESULT:      -7.3      1.260      2.261
REMARK  Name = 
REMARK  8 active torsions:
REMARK  status: ('A' for Active; 'I' for Inactive)
REMARK    1  A    between atoms: C_1  and  C_2
REMARK    2  A    between atoms: C_2  and  O_3
REMARK    3  A    between atoms: O_3  and  C_4
REMARK    4  A    between atoms: C_6  and  C_7
REMARK    5  A    between atoms: C_7  and  O_9
REMARK    6  A    between atoms: C_11  and  C_12
REMARK    7  A    between atoms: C_13  and  C_14
REMARK    8  A    between atoms: C_17  and  C_18
REMARK                            x       y       z     vdW  Elec       q    Type
REMARK                         _______ _______ _______ _____ _____    ______ ____
ROOT
ATOM      1  C   UNL     1       2.722   4.491  18.061  0.00  0.00    +0.000 A 
ATOM      2  C   UNL     1       2.137   5.699  18.420  0.00  0.00    +0.000 A 
ATOM      3  C   UNL     1       2.752   6.908  18.082  0.00  0.00    +0.000 A 
ATOM      4  C   UNL     1       3.938   6.895  17.337  0.00  0.00    +0.000 A 
ATOM      5  C   UNL     1       4.548   5.687  16.976  0.00  0.00    +0.000 A 
ATOM      6  C   UNL     1       3.931   4.488  17.365  0.00  0.00    +0.000 A 
ENDROOT
BRANCH   5   7
ATOM      7  C   UNL     1       5.791   5.680  16.216  0.00  0.00    +0.000 A 
ATOM      8  C   UNL     1       6.131   5.041  14.985  0.00  0.00    +0.000 A 
ATOM      9  C   UNL     1       5.299   4.211  14.079  0.00  0.00    +0.000 C 
ATOM     10  N   UNL     1       7.405   5.274  14.649  0.00  0.00    +0.000 NA
ATOM     11  O   UNL     1       7.921   6.070  15.646  0.00  0.00    +0.000 OA
ATOM     12  C   UNL     1       6.965   6.318  16.581  0.00  0.00    +0.000 A 
ATOM     13  C   UNL     1       7.407   7.153  17.719  0.00  0.00    +0.000 C 
ENDBRANCH   5   7
BRANCH   3  14
ATOM     14  C   UNL     1       2.155   8.218  18.434  0.00  0.00    +0.000 C 
ATOM     15  O   UNL     1       1.704   8.454  19.545  0.00  0.00    +0.000 OA
BRANCH  14  16
ATOM     16  O   UNL     1       2.115   9.108  17.422  0.00  0.00    +0.000 OA
ATOM     17  H   UNL     1       2.890   9.114  16.830  0.00  0.00    +0.000 HD
ENDBRANCH  14  16
ENDBRANCH   3  14
BRANCH   1  18
ATOM     18  O   UNL     1       2.016   3.381  18.438  0.00  0.00    +0.000 OA
BRANCH  18  20
ATOM     19  C   UNL     1       1.411   2.837  20.676  0.00  0.00    +0.000 C 
ATOM     20  C   UNL     1       0.992   3.565  19.415  0.00  0.00    +0.000 C 
ENDBRANCH  18  20
ENDBRANCH   1  18
TORSDOF 5
ENDMDL
MODEL 8
REMARK VINA RESULT:      -7.3      2.805      5.640
REMARK  Name = 
REMARK  8 active torsions:
REMARK  status: ('A' for Active; 'I' for Inactive)
REMARK    1  A    between atoms: C_1  and  C_2
REMARK    2  A    between atoms: C_2  and  O_3
REMARK    3  A    between atoms: O_3  and  C_4
REMARK    4  A    between atoms: C_6  and  C_7
REMARK    5  A    between atoms: C_7  and  O_9
REMARK    6  A    between atoms: C_11  and  C_12
REMARK    7  A    between atoms: C_13  and  C_14
REMARK    8  A    between atoms: C_17  and  C_18
REMARK                            x       y       z     vdW  Elec       q    Type
REMARK                         _______ _______ _______ _____ _____    ______ ____
ROOT
ATOM      1  C   UNL     1       5.607   5.434  16.217  0.00  0.00    +0.000 A 
ATOM      2  C   UNL     1       6.686   5.866  16.979  0.00  0.00    +0.000 A 
ATOM      3  C   UNL     1       6.657   5.748  18.372  0.00  0.00    +0.000 A 
ATOM      4  C   UNL     1       5.554   5.147  18.992  0.00  0.00    +0.000 A 
ATOM      5  C   UNL     1       4.453   4.716  18.240  0.00  0.00    +0.000 A 
ATOM      6  C   UNL     1       4.491   4.886  16.848  0.00  0.00    +0.000 A 
ENDROOT
BRANCH   5   7
ATOM      7  C   UNL     1       3.301   4.107  18.893  0.00  0.00    +0.000 A 
ATOM      8  C   UNL     1       2.849   2.754  18.921  0.00  0.00    +0.000 A 
ATOM      9  C   UNL     1       3.444   1.536  18.316  0.00  0.00    +0.000 C 
ATOM     10  N   UNL     1       1.716   2.631  19.623  0.00  0.00    +0.000 NA
ATOM     11  O   UNL     1       1.408   3.896  20.071  0.00  0.00    +0.000 OA
ATOM     12  C   UNL     1       2.349   4.779  19.642  0.00  0.00    +0.000 A 
ATOM     13  C   UNL     1       2.116   6.183  20.046  0.00  0.00    +0.000 C 
ENDBRANCH   5   7
BRANCH   3  14
ATOM     14  C   UNL     1       7.792   6.183  19.221  0.00  0.00    +0.000 C 
ATOM     15  O   UNL     1       8.518   7.116  18.912  0.00  0.00    +0.000 OA
BRANCH  14  16
ATOM     16  O   UNL     1       7.979   5.445  20.333  0.00  0.00    +0.000 OA
ATOM     17  H   UNL     1       8.499   4.628  20.219  0.00  0.00    +0.000 HD
ENDBRANCH  14  16
ENDBRANCH   3  14
BRANCH   1  18
ATOM     18  O   UNL     1       5.764   5.592  14.867  0.00  0.00    +0.000 OA
BRANCH  18  20
ATOM     19  C   UNL     1       6.065   3.766  13.368  0.00  0.00    +0.000 C 
ATOM     20  C   UNL     1       6.764   4.796  14.232  0.00  0.00    +0.000 C 
ENDBRANCH  18  20
ENDBRANCH   1  18
TORSDOF 5
ENDMDL
MODEL 9
REMARK VINA RESULT:      -7.2      0.984      3.696
REMARK  Name = 
REMARK  8 active torsions:
REMARK  status: ('A' for Active; 'I' for Inactive)
REMARK    1  A    between atoms: C_1  and  C_2
REMARK    2  A    between atoms: C_2  and  O_3
REMARK    3  A    between atoms: O_3  and  C_4
REMARK    4  A    between atoms: C_6  and  C_7
REMARK    5  A    between atoms: C_7  and  O_9
REMARK    6  A    between atoms: C_11  and  C_12
REMARK    7  A    between atoms: C_13  and  C_14
REMARK    8  A    between atoms: C_17  and  C_18
REMARK                            x       y       z     vdW  Elec       q    Type
REMARK                         _______ _______ _______ _____ _____    ______ ____
ROOT
ATOM      1  C   UNL     1       2.624   6.180  18.155  0.00  0.00    +0.000 A 
ATOM      2  C   UNL     1       1.889   5.025  18.394  0.00  0.00    +0.000 A 
ATOM      3  C   UNL     1       2.416   3.773  18.061  0.00  0.00    +0.000 A 
ATOM      4  C   UNL     1       3.709   3.687  17.530  0.00  0.00    +0.000 A 
ATOM      5  C   UNL     1       4.459   4.841  17.271  0.00  0.00    +0.000 A 
ATOM      6  C   UNL     1       3.890   6.086  17.575  0.00  0.00    +0.000 A 
ENDROOT
BRANCH   5   7
ATOM      7  C   UNL     1       5.797   4.745  16.702  0.00  0.00    +0.000 A 
ATOM      8  C   UNL     1       7.082   4.927  17.296  0.00  0.00    +0.000 A 
ATOM      9  C   UNL     1       7.449   5.238  18.700  0.00  0.00    +0.000 C 
ATOM     10  N   UNL     1       8.063   4.772  16.399  0.00  0.00    +0.000 NA
ATOM     11  O   UNL     1       7.442   4.481  15.205  0.00  0.00    +0.000 OA
ATOM     12  C   UNL     1       6.093   4.461  15.379  0.00  0.00    +0.000 A 
ATOM     13  C   UNL     1       5.311   4.176  14.156  0.00  0.00    +0.000 C 
ENDBRANCH   5   7
BRANCH   3  14
ATOM     14  C   UNL     1       1.671   2.517  18.313  0.00  0.00    +0.000 C 
ATOM     15  O   UNL     1       0.456   2.492  18.440  0.00  0.00    +0.000 OA
BRANCH  14  16
ATOM     16  O   UNL     1       2.444   1.418  18.428  0.00  0.00    +0.000 OA
ATOM     17  H   UNL     1       3.087   1.425  19.161  0.00  0.00    +0.000 HD
ENDBRANCH  14  16
ENDBRANCH   3  14
BRANCH   1  18
ATOM     18  O   UNL     1       2.005   7.339  18.536  0.00  0.00    +0.000 OA
BRANCH  18  20
ATOM     19  C   UNL     1       1.195   9.526  18.055  0.00  0.00    +0.000 C 
ATOM     20  C   UNL     1       2.275   8.505  17.759  0.00  0.00    +0.000 C 
ENDBRANCH  18  20
ENDBRANCH   1  18
TORSDOF 5
ENDMDL
