MODEL 1
REMARK VINA RESULT:      -8.3      0.000      0.000
REMARK  Name = 
REMARK  6 active torsions:
REMARK  status: ('A' for Active; 'I' for Inactive)
REMARK    1  A    between atoms: C_2  and  O_3
REMARK    2  A    between atoms: C_2  and  C_4
REMARK    3  A    between atoms: N_6  and  C_7
REMARK    4  A    between atoms: C_7  and  C_8
REMARK    5  A    between atoms: C_8  and  O_9
REMARK    6  A    between atoms: O_9  and  C_10
REMARK                            x       y       z     vdW  Elec       q    Type
REMARK                         _______ _______ _______ _____ _____    ______ ____
ROOT
ATOM      1  C   UNL     1       6.355   5.241  18.770  0.00  0.00    +0.000 A 
ATOM      2  N   UNL     1       5.367   5.125  19.608  0.00  0.00    +0.000 NA
ATOM      3  N   UNL     1       4.184   4.559  19.178  0.00  0.00    +0.000 N 
ATOM      4  C   UNL     1       3.985   4.061  17.891  0.00  0.00    +0.000 A 
ATOM      5  O   UNL     1       2.968   3.474  17.535  0.00  0.00    +0.000 OA
ATOM      6  C   UNL     1       5.072   4.288  16.923  0.00  0.00    +0.000 A 
ATOM      7  C   UNL     1       4.878   3.966  15.572  0.00  0.00    +0.000 A 
ATOM      8  C   UNL     1       5.890   4.209  14.645  0.00  0.00    +0.000 A 
ATOM      9  C   UNL     1       7.105   4.738  15.073  0.00  0.00    +0.000 A 
ATOM     10  C   UNL     1       7.302   5.049  16.422  0.00  0.00    +0.000 A 
ATOM     11  C   UNL     1       6.274   4.844  17.352  0.00  0.00    +0.000 A 
ENDROOT
BRANCH   1  13
ATOM     12  O   UNL     1       8.197   6.826  18.805  0.00  0.00    +0.000 OA
ATOM     13  C   UNL     1       7.628   5.893  19.329  0.00  0.00    +0.000 C 
BRANCH  13  14
ATOM     14  O   UNL     1       8.017   5.300  20.469  0.00  0.00    +0.000 OA
ATOM     15  H   UNL     1       8.846   4.791  20.316  0.00  0.00    +0.000 HD
ENDBRANCH  13  14
ENDBRANCH   1  13
BRANCH   3  16
ATOM     16  C   UNL     1       3.111   4.408  20.168  0.00  0.00    +0.000 C 
BRANCH  16  17
ATOM     17  C   UNL     1       2.174   5.613  20.198  0.00  0.00    +0.000 C 
BRANCH  17  18
ATOM     18  O   UNL     1       2.826   6.759  19.629  0.00  0.00    +0.000 OA
BRANCH  18  19
ATOM     19  C   UNL     1       2.021   7.861  19.498  0.00  0.00    +0.000 A 
ATOM     20  C   UNL     1       1.295   8.431  20.547  0.00  0.00    +0.000 A 
ATOM     21  C   UNL     1       0.471   9.537  20.328  0.00  0.00    +0.000 A 
ATOM     22  C   UNL     1       0.385  10.086  19.055  0.00  0.00    +0.000 A 
ATOM     23 BR   UNL     1      -0.762  11.559  18.753  0.00  0.00    +0.000 Br
ATOM     24  C   UNL     1       1.141   9.560  18.004  0.00  0.00    +0.000 A 
ATOM     25  C   UNL     1       1.963   8.450  18.232  0.00  0.00    +0.000 A 
ENDBRANCH  18  19
ENDBRANCH  17  18
ENDBRANCH  16  17
ENDBRANCH   3  16
TORSDOF 6
ENDMDL
MODEL 2
REMARK VINA RESULT:      -8.1      0.289      1.027
REMARK  Name = 
REMARK  6 active torsions:
REMARK  status: ('A' for Active; 'I' for Inactive)
REMARK    1  A    between atoms: C_2  and  O_3
REMARK    2  A    between atoms: C_2  and  C_4
REMARK    3  A    between atoms: N_6  and  C_7
REMARK    4  A    between atoms: C_7  and  C_8
REMARK    5  A    between atoms: C_8  and  O_9
REMARK    6  A    between atoms: O_9  and  C_10
REMARK                            x       y       z     vdW  Elec       q    Type
REMARK                         _______ _______ _______ _____ _____    ______ ____
ROOT
ATOM      1  C   UNL     1       6.448   5.325  18.451  0.00  0.00    +0.000 A 
ATOM      2  N   UNL     1       5.469   5.209  19.299  0.00  0.00    +0.000 NA
ATOM      3  N   UNL     1       4.295   4.609  18.892  0.00  0.00    +0.000 N 
ATOM      4  C   UNL     1       4.096   4.077  17.619  0.00  0.00    +0.000 A 
ATOM      5  O   UNL     1       3.088   3.461  17.286  0.00  0.00    +0.000 OA
ATOM      6  C   UNL     1       5.171   4.301  16.637  0.00  0.00    +0.000 A 
ATOM      7  C   UNL     1       4.974   3.943  15.296  0.00  0.00    +0.000 A 
ATOM      8  C   UNL     1       5.974   4.184  14.356  0.00  0.00    +0.000 A 
ATOM      9  C   UNL     1       7.180   4.747  14.761  0.00  0.00    +0.000 A 
ATOM     10  C   UNL     1       7.382   5.094  16.100  0.00  0.00    +0.000 A 
ATOM     11  C   UNL     1       6.365   4.891  17.043  0.00  0.00    +0.000 A 
ENDROOT
BRANCH   1  13
ATOM     12  O   UNL     1       8.121   7.083  18.580  0.00  0.00    +0.000 OA
ATOM     13  C   UNL     1       7.712   6.016  18.983  0.00  0.00    +0.000 C 
BRANCH  13  14
ATOM     14  O   UNL     1       8.293   5.287  19.951  0.00  0.00    +0.000 OA
ATOM     15  H   UNL     1       8.981   5.824  20.407  0.00  0.00    +0.000 HD
ENDBRANCH  13  14
ENDBRANCH   1  13
BRANCH   3  16
ATOM     16  C   UNL     1       3.233   4.461  19.894  0.00  0.00    +0.000 C 
BRANCH  16  17
ATOM     17  C   UNL     1       2.196   5.580  19.812  0.00  0.00    +0.000 C 
BRANCH  17  18
ATOM     18  O   UNL     1       2.850   6.858  19.794  0.00  0.00    +0.000 OA
BRANCH  18  19
ATOM     19  C   UNL     1       2.024   7.912  19.502  0.00  0.00    +0.000 A 
ATOM     20  C   UNL     1       1.892   8.476  18.231  0.00  0.00    +0.000 A 
ATOM     21  C   UNL     1       1.051   9.571  18.018  0.00  0.00    +0.000 A 
ATOM     22  C   UNL     1       0.326  10.095  19.081  0.00  0.00    +0.000 A 
ATOM     23 BR   UNL     1      -0.781  11.603  18.799  0.00  0.00    +0.000 Br
ATOM     24  C   UNL     1       0.409   9.514  20.349  0.00  0.00    +0.000 A 
ATOM     25  C   UNL     1       1.255   8.418  20.554  0.00  0.00    +0.000 A 
ENDBRANCH  18  19
ENDBRANCH  17  18
ENDBRANCH  16  17
ENDBRANCH   3  16
TORSDOF 6
ENDMDL
MODEL 3
REMARK VINA RESULT:      -7.9      1.267      1.596
REMARK  Name = 
REMARK  6 active torsions:
REMARK  status: ('A' for Active; 'I' for Inactive)
REMARK    1  A    between atoms: C_2  and  O_3
REMARK    2  A    between atoms: C_2  and  C_4
REMARK    3  A    between atoms: N_6  and  C_7
REMARK    4  A    between atoms: C_7  and  C_8
REMARK    5  A    between atoms: C_8  and  O_9
REMARK    6  A    between atoms: O_9  and  C_10
REMARK                            x       y       z     vdW  Elec       q    Type
REMARK                         _______ _______ _______ _____ _____    ______ ____
ROOT
ATOM      1  C   UNL     1       6.525   4.894  18.699  0.00  0.00    +0.000 A 
ATOM      2  N   UNL     1       5.753   4.346  19.590  0.00  0.00    +0.000 NA
ATOM      3  N   UNL     1       4.725   3.524  19.174  0.00  0.00    +0.000 N 
ATOM      4  C   UNL     1       4.475   3.208  17.839  0.00  0.00    +0.000 A 
ATOM      5  O   UNL     1       3.622   2.405  17.475  0.00  0.00    +0.000 OA
ATOM      6  C   UNL     1       5.290   3.911  16.834  0.00  0.00    +0.000 A 
ATOM      7  C   UNL     1       4.987   3.772  15.472  0.00  0.00    +0.000 A 
ATOM      8  C   UNL     1       5.733   4.462  14.518  0.00  0.00    +0.000 A 
ATOM      9  C   UNL     1       6.801   5.258  14.920  0.00  0.00    +0.000 A 
ATOM     10  C   UNL     1       7.111   5.388  16.278  0.00  0.00    +0.000 A 
ATOM     11  C   UNL     1       6.339   4.729  17.244  0.00  0.00    +0.000 A 
ENDROOT
BRANCH   1  13
ATOM     12  O   UNL     1       8.073   6.767  18.660  0.00  0.00    +0.000 OA
ATOM     13  C   UNL     1       7.634   5.802  19.248  0.00  0.00    +0.000 C 
BRANCH  13  14
ATOM     14  O   UNL     1       8.043   5.391  20.460  0.00  0.00    +0.000 OA
ATOM     15  H   UNL     1       8.194   4.418  20.450  0.00  0.00    +0.000 HD
ENDBRANCH  13  14
ENDBRANCH   1  13
BRANCH   3  16
ATOM     16  C   UNL     1       3.905   2.893  20.215  0.00  0.00    +0.000 C 
BRANCH  16  17
ATOM     17  C   UNL     1       2.873   3.852  20.805  0.00  0.00    +0.000 C 
BRANCH  17  18
ATOM     18  O   UNL     1       1.949   4.267  19.788  0.00  0.00    +0.000 OA
BRANCH  18  19
ATOM     19  C   UNL     1       1.977   5.609  19.511  0.00  0.00    +0.000 A 
ATOM     20  C   UNL     1       1.714   6.609  20.449  0.00  0.00    +0.000 A 
ATOM     21  C   UNL     1       1.732   7.957  20.082  0.00  0.00    +0.000 A 
ATOM     22  C   UNL     1       2.031   8.306  18.771  0.00  0.00    +0.000 A 
ATOM     23 BR   UNL     1       2.016  10.129  18.267  0.00  0.00    +0.000 Br
ATOM     24  C   UNL     1       2.344   7.322  17.830  0.00  0.00    +0.000 A 
ATOM     25  C   UNL     1       2.323   5.974  18.206  0.00  0.00    +0.000 A 
ENDBRANCH  18  19
ENDBRANCH  17  18
ENDBRANCH  16  17
ENDBRANCH   3  16
TORSDOF 6
ENDMDL
MODEL 4
REMARK VINA RESULT:      -7.9      4.006      6.544
REMARK  Name = 
REMARK  6 active torsions:
REMARK  status: ('A' for Active; 'I' for Inactive)
REMARK    1  A    between atoms: C_2  and  O_3
REMARK    2  A    between atoms: C_2  and  C_4
REMARK    3  A    between atoms: N_6  and  C_7
REMARK    4  A    between atoms: C_7  and  C_8
REMARK    5  A    between atoms: C_8  and  O_9
REMARK    6  A    between atoms: O_9  and  C_10
REMARK                            x       y       z     vdW  Elec       q    Type
REMARK                         _______ _______ _______ _____ _____    ______ ____
ROOT
ATOM      1  C   UNL     1       4.588   2.898  19.630  0.00  0.00    +0.000 A 
ATOM      2  N   UNL     1       5.584   3.704  19.412  0.00  0.00    +0.000 NA
ATOM      3  N   UNL     1       5.353   4.891  18.746  0.00  0.00    +0.000 N 
ATOM      4  C   UNL     1       4.095   5.307  18.315  0.00  0.00    +0.000 A 
ATOM      5  O   UNL     1       3.873   6.403  17.808  0.00  0.00    +0.000 OA
ATOM      6  C   UNL     1       2.992   4.344  18.477  0.00  0.00    +0.000 A 
ATOM      7  C   UNL     1       1.737   4.622  17.919  0.00  0.00    +0.000 A 
ATOM      8  C   UNL     1       0.700   3.700  18.040  0.00  0.00    +0.000 A 
ATOM      9  C   UNL     1       0.906   2.519  18.748  0.00  0.00    +0.000 A 
ATOM     10  C   UNL     1       2.154   2.245  19.314  0.00  0.00    +0.000 A 
ATOM     11  C   UNL     1       3.213   3.151  19.162  0.00  0.00    +0.000 A 
ENDROOT
BRANCH   1  13
ATOM     12  O   UNL     1       5.162   1.528  21.555  0.00  0.00    +0.000 OA
ATOM     13  C   UNL     1       4.937   1.595  20.366  0.00  0.00    +0.000 C 
BRANCH  13  14
ATOM     14  O   UNL     1       4.952   0.550  19.522  0.00  0.00    +0.000 OA
ATOM     15  H   UNL     1       4.039   0.362  19.205  0.00  0.00    +0.000 HD
ENDBRANCH  13  14
ENDBRANCH   1  13
BRANCH   3  16
ATOM     16  C   UNL     1       6.498   5.791  18.559  0.00  0.00    +0.000 C 
BRANCH  16  17
ATOM     17  C   UNL     1       7.299   5.461  17.301  0.00  0.00    +0.000 C 
BRANCH  17  18
ATOM     18  O   UNL     1       6.722   6.118  16.163  0.00  0.00    +0.000 OA
BRANCH  18  19
ATOM     19  C   UNL     1       6.454   5.287  15.106  0.00  0.00    +0.000 A 
ATOM     20  C   UNL     1       5.259   4.581  14.948  0.00  0.00    +0.000 A 
ATOM     21  C   UNL     1       5.072   3.728  13.857  0.00  0.00    +0.000 A 
ATOM     22  C   UNL     1       6.080   3.594  12.911  0.00  0.00    +0.000 A 
ATOM     23 BR   UNL     1       5.840   2.409  11.457  0.00  0.00    +0.000 Br
ATOM     24  C   UNL     1       7.262   4.330  13.027  0.00  0.00    +0.000 A 
ATOM     25  C   UNL     1       7.442   5.181  14.124  0.00  0.00    +0.000 A 
ENDBRANCH  18  19
ENDBRANCH  17  18
ENDBRANCH  16  17
ENDBRANCH   3  16
TORSDOF 6
ENDMDL
MODEL 5
REMARK VINA RESULT:      -7.7      1.027      1.677
REMARK  Name = 
REMARK  6 active torsions:
REMARK  status: ('A' for Active; 'I' for Inactive)
REMARK    1  A    between atoms: C_2  and  O_3
REMARK    2  A    between atoms: C_2  and  C_4
REMARK    3  A    between atoms: N_6  and  C_7
REMARK    4  A    between atoms: C_7  and  C_8
REMARK    5  A    between atoms: C_8  and  O_9
REMARK    6  A    between atoms: O_9  and  C_10
REMARK                            x       y       z     vdW  Elec       q    Type
REMARK                         _______ _______ _______ _____ _____    ______ ____
ROOT
ATOM      1  C   UNL     1       6.281   4.815  18.702  0.00  0.00    +0.000 A 
ATOM      2  N   UNL     1       5.366   4.391  19.523  0.00  0.00    +0.000 NA
ATOM      3  N   UNL     1       4.297   3.674  19.025  0.00  0.00    +0.000 N 
ATOM      4  C   UNL     1       4.147   3.338  17.681  0.00  0.00    +0.000 A 
ATOM      5  O   UNL     1       3.247   2.621  17.251  0.00  0.00    +0.000 OA
ATOM      6  C   UNL     1       5.133   3.908  16.746  0.00  0.00    +0.000 A 
ATOM      7  C   UNL     1       4.952   3.753  15.365  0.00  0.00    +0.000 A 
ATOM      8  C   UNL     1       5.863   4.319  14.475  0.00  0.00    +0.000 A 
ATOM      9  C   UNL     1       6.970   5.006  14.964  0.00  0.00    +0.000 A 
ATOM     10  C   UNL     1       7.156   5.151  16.342  0.00  0.00    +0.000 A 
ATOM     11  C   UNL     1       6.222   4.619  17.241  0.00  0.00    +0.000 A 
ENDROOT
BRANCH   1  13
ATOM     12  O   UNL     1       7.941   5.334  20.401  0.00  0.00    +0.000 OA
ATOM     13  C   UNL     1       7.427   5.615  19.339  0.00  0.00    +0.000 C 
BRANCH  13  14
ATOM     14  O   UNL     1       7.784   6.653  18.565  0.00  0.00    +0.000 OA
ATOM     15  H   UNL     1       7.015   6.949  18.026  0.00  0.00    +0.000 HD
ENDBRANCH  13  14
ENDBRANCH   1  13
BRANCH   3  16
ATOM     16  C   UNL     1       3.312   3.176  19.993  0.00  0.00    +0.000 C 
BRANCH  16  17
ATOM     17  C   UNL     1       2.045   4.029  20.023  0.00  0.00    +0.000 C 
BRANCH  17  18
ATOM     18  O   UNL     1       2.259   5.202  20.823  0.00  0.00    +0.000 OA
BRANCH  18  19
ATOM     19  C   UNL     1       2.097   6.384  20.148  0.00  0.00    +0.000 A 
ATOM     20  C   UNL     1       2.473   6.585  18.818  0.00  0.00    +0.000 A 
ATOM     21  C   UNL     1       2.304   7.830  18.208  0.00  0.00    +0.000 A 
ATOM     22  C   UNL     1       1.742   8.876  18.929  0.00  0.00    +0.000 A 
ATOM     23 BR   UNL     1       1.552  10.572  18.114  0.00  0.00    +0.000 Br
ATOM     24  C   UNL     1       1.316   8.681  20.245  0.00  0.00    +0.000 A 
ATOM     25  C   UNL     1       1.490   7.430  20.850  0.00  0.00    +0.000 A 
ENDBRANCH  18  19
ENDBRANCH  17  18
ENDBRANCH  16  17
ENDBRANCH   3  16
TORSDOF 6
ENDMDL
MODEL 6
REMARK VINA RESULT:      -7.7      4.062      6.154
REMARK  Name = 
REMARK  6 active torsions:
REMARK  status: ('A' for Active; 'I' for Inactive)
REMARK    1  A    between atoms: C_2  and  O_3
REMARK    2  A    between atoms: C_2  and  C_4
REMARK    3  A    between atoms: N_6  and  C_7
REMARK    4  A    between atoms: C_7  and  C_8
REMARK    5  A    between atoms: C_8  and  O_9
REMARK    6  A    between atoms: O_9  and  C_10
REMARK                            x       y       z     vdW  Elec       q    Type
REMARK                         _______ _______ _______ _____ _____    ______ ____
ROOT
ATOM      1  C   UNL     1       3.742   6.878  17.783  0.00  0.00    +0.000 A 
ATOM      2  N   UNL     1       4.968   7.297  17.673  0.00  0.00    +0.000 NA
ATOM      3  N   UNL     1       5.967   6.386  17.399  0.00  0.00    +0.000 N 
ATOM      4  C   UNL     1       5.743   5.026  17.194  0.00  0.00    +0.000 A 
ATOM      5  O   UNL     1       6.617   4.232  16.859  0.00  0.00    +0.000 OA
ATOM      6  C   UNL     1       4.369   4.545  17.420  0.00  0.00    +0.000 A 
ATOM      7  C   UNL     1       4.101   3.169  17.397  0.00  0.00    +0.000 A 
ATOM      8  C   UNL     1       2.810   2.705  17.643  0.00  0.00    +0.000 A 
ATOM      9  C   UNL     1       1.783   3.616  17.876  0.00  0.00    +0.000 A 
ATOM     10  C   UNL     1       2.048   4.989  17.888  0.00  0.00    +0.000 A 
ATOM     11  C   UNL     1       3.352   5.459  17.681  0.00  0.00    +0.000 A 
ENDROOT
BRANCH   1  13
ATOM     12  O   UNL     1       2.305   8.778  17.300  0.00  0.00    +0.000 OA
ATOM     13  C   UNL     1       2.696   7.956  18.101  0.00  0.00    +0.000 C 
BRANCH  13  14
ATOM     14  O   UNL     1       2.271   7.862  19.372  0.00  0.00    +0.000 OA
ATOM     15  H   UNL     1       2.351   8.736  19.818  0.00  0.00    +0.000 HD
ENDBRANCH  13  14
ENDBRANCH   1  13
BRANCH   3  16
ATOM     16  C   UNL     1       7.330   6.910  17.240  0.00  0.00    +0.000 C 
BRANCH  16  17
ATOM     17  C   UNL     1       7.443   8.374  17.663  0.00  0.00    +0.000 C 
BRANCH  17  18
ATOM     18  O   UNL     1       8.590   8.555  18.507  0.00  0.00    +0.000 OA
BRANCH  18  19
ATOM     19  C   UNL     1       8.892   9.865  18.777  0.00  0.00    +0.000 A 
ATOM     20  C   UNL     1       9.408  10.315  19.994  0.00  0.00    +0.000 A 
ATOM     21  C   UNL     1       9.662  11.672  20.205  0.00  0.00    +0.000 A 
ATOM     22  C   UNL     1       9.411  12.583  19.186  0.00  0.00    +0.000 A 
ATOM     23 BR   UNL     1       9.717  14.425  19.488  0.00  0.00    +0.000 Br
ATOM     24  C   UNL     1       8.940  12.145  17.946  0.00  0.00    +0.000 A 
ATOM     25  C   UNL     1       8.687  10.783  17.744  0.00  0.00    +0.000 A 
ENDBRANCH  18  19
ENDBRANCH  17  18
ENDBRANCH  16  17
ENDBRANCH   3  16
TORSDOF 6
ENDMDL
MODEL 7
REMARK VINA RESULT:      -7.6      0.710      1.402
REMARK  Name = 
REMARK  6 active torsions:
REMARK  status: ('A' for Active; 'I' for Inactive)
REMARK    1  A    between atoms: C_2  and  O_3
REMARK    2  A    between atoms: C_2  and  C_4
REMARK    3  A    between atoms: N_6  and  C_7
REMARK    4  A    between atoms: C_7  and  C_8
REMARK    5  A    between atoms: C_8  and  O_9
REMARK    6  A    between atoms: O_9  and  C_10
REMARK                            x       y       z     vdW  Elec       q    Type
REMARK                         _______ _______ _______ _____ _____    ______ ____
ROOT
ATOM      1  C   UNL     1       6.145   5.160  18.606  0.00  0.00    +0.000 A 
ATOM      2  N   UNL     1       5.076   5.076  19.340  0.00  0.00    +0.000 NA
ATOM      3  N   UNL     1       3.910   4.599  18.778  0.00  0.00    +0.000 N 
ATOM      4  C   UNL     1       3.808   4.159  17.459  0.00  0.00    +0.000 A 
ATOM      5  O   UNL     1       2.798   3.647  16.986  0.00  0.00    +0.000 OA
ATOM      6  C   UNL     1       4.995   4.350  16.608  0.00  0.00    +0.000 A 
ATOM      7  C   UNL     1       4.915   4.087  15.234  0.00  0.00    +0.000 A 
ATOM      8  C   UNL     1       6.025   4.299  14.418  0.00  0.00    +0.000 A 
ATOM      9  C   UNL     1       7.221   4.737  14.979  0.00  0.00    +0.000 A 
ATOM     10  C   UNL     1       7.304   4.989  16.352  0.00  0.00    +0.000 A 
ATOM     11  C   UNL     1       6.180   4.816  17.171  0.00  0.00    +0.000 A 
ENDROOT
BRANCH   1  13
ATOM     12  O   UNL     1       7.866   5.242  20.321  0.00  0.00    +0.000 OA
ATOM     13  C   UNL     1       7.394   5.713  19.308  0.00  0.00    +0.000 C 
BRANCH  13  14
ATOM     14  O   UNL     1       7.891   6.774  18.651  0.00  0.00    +0.000 OA
ATOM     15  H   UNL     1       7.592   6.758  17.714  0.00  0.00    +0.000 HD
ENDBRANCH  13  14
ENDBRANCH   1  13
BRANCH   3  16
ATOM     16  C   UNL     1       2.739   4.481  19.655  0.00  0.00    +0.000 C 
BRANCH  16  17
ATOM     17  C   UNL     1       2.402   5.797  20.355  0.00  0.00    +0.000 C 
BRANCH  17  18
ATOM     18  O   UNL     1       2.534   6.892  19.436  0.00  0.00    +0.000 OA
BRANCH  18  19
ATOM     19  C   UNL     1       1.794   7.998  19.764  0.00  0.00    +0.000 A 
ATOM     20  C   UNL     1       1.478   9.023  18.870  0.00  0.00    +0.000 A 
ATOM     21  C   UNL     1       0.745  10.136  19.288  0.00  0.00    +0.000 A 
ATOM     22  C   UNL     1       0.310  10.215  20.605  0.00  0.00    +0.000 A 
ATOM     23 BR   UNL     1      -0.649  11.742  21.178  0.00  0.00    +0.000 Br
ATOM     24  C   UNL     1       0.574   9.177  21.501  0.00  0.00    +0.000 A 
ATOM     25  C   UNL     1       1.312   8.066  21.074  0.00  0.00    +0.000 A 
ENDBRANCH  18  19
ENDBRANCH  17  18
ENDBRANCH  16  17
ENDBRANCH   3  16
TORSDOF 6
ENDMDL
MODEL 8
REMARK VINA RESULT:      -7.6      3.094      6.698
REMARK  Name = 
REMARK  6 active torsions:
REMARK  status: ('A' for Active; 'I' for Inactive)
REMARK    1  A    between atoms: C_2  and  O_3
REMARK    2  A    between atoms: C_2  and  C_4
REMARK    3  A    between atoms: N_6  and  C_7
REMARK    4  A    between atoms: C_7  and  C_8
REMARK    5  A    between atoms: C_8  and  O_9
REMARK    6  A    between atoms: O_9  and  C_10
REMARK                            x       y       z     vdW  Elec       q    Type
REMARK                         _______ _______ _______ _____ _____    ______ ____
ROOT
ATOM      1  C   UNL     1       3.111   6.213  19.427  0.00  0.00    +0.000 A 
ATOM      2  N   UNL     1       4.375   6.401  19.186  0.00  0.00    +0.000 NA
ATOM      3  N   UNL     1       5.222   5.312  19.157  0.00  0.00    +0.000 N 
ATOM      4  C   UNL     1       4.800   3.996  19.338  0.00  0.00    +0.000 A 
ATOM      5  O   UNL     1       5.535   3.020  19.220  0.00  0.00    +0.000 OA
ATOM      6  C   UNL     1       3.388   3.803  19.709  0.00  0.00    +0.000 A 
ATOM      7  C   UNL     1       2.931   2.527  20.070  0.00  0.00    +0.000 A 
ATOM      8  C   UNL     1       1.604   2.345  20.455  0.00  0.00    +0.000 A 
ATOM      9  C   UNL     1       0.728   3.426  20.445  0.00  0.00    +0.000 A 
ATOM     10  C   UNL     1       1.180   4.696  20.075  0.00  0.00    +0.000 A 
ATOM     11  C   UNL     1       2.523   4.894  19.725  0.00  0.00    +0.000 A 
ENDROOT
BRANCH   1  13
ATOM     12  O   UNL     1       1.865   8.063  18.459  0.00  0.00    +0.000 OA
ATOM     13  C   UNL     1       2.243   7.481  19.453  0.00  0.00    +0.000 C 
BRANCH  13  14
ATOM     14  O   UNL     1       1.958   7.848  20.713  0.00  0.00    +0.000 OA
ATOM     15  H   UNL     1       1.000   8.064  20.790  0.00  0.00    +0.000 HD
ENDBRANCH  13  14
ENDBRANCH   1  13
BRANCH   3  16
ATOM     16  C   UNL     1       6.632   5.565  18.838  0.00  0.00    +0.000 C 
BRANCH  16  17
ATOM     17  C   UNL     1       6.820   6.111  17.424  0.00  0.00    +0.000 C 
BRANCH  17  18
ATOM     18  O   UNL     1       7.633   5.213  16.653  0.00  0.00    +0.000 OA
BRANCH  18  19
ATOM     19  C   UNL     1       7.042   4.763  15.501  0.00  0.00    +0.000 A 
ATOM     20  C   UNL     1       7.552   4.985  14.220  0.00  0.00    +0.000 A 
ATOM     21  C   UNL     1       6.875   4.520  13.090  0.00  0.00    +0.000 A 
ATOM     22  C   UNL     1       5.689   3.814  13.244  0.00  0.00    +0.000 A 
ATOM     23 BR   UNL     1       4.754   3.219  11.711  0.00  0.00    +0.000 Br
ATOM     24  C   UNL     1       5.189   3.539  14.520  0.00  0.00    +0.000 A 
ATOM     25  C   UNL     1       5.873   4.011  15.647  0.00  0.00    +0.000 A 
ENDBRANCH  18  19
ENDBRANCH  17  18
ENDBRANCH  16  17
ENDBRANCH   3  16
TORSDOF 6
ENDMDL
MODEL 9
REMARK VINA RESULT:      -7.6      2.959      4.671
REMARK  Name = 
REMARK  6 active torsions:
REMARK  status: ('A' for Active; 'I' for Inactive)
REMARK    1  A    between atoms: C_2  and  O_3
REMARK    2  A    between atoms: C_2  and  C_4
REMARK    3  A    between atoms: N_6  and  C_7
REMARK    4  A    between atoms: C_7  and  C_8
REMARK    5  A    between atoms: C_8  and  O_9
REMARK    6  A    between atoms: O_9  and  C_10
REMARK                            x       y       z     vdW  Elec       q    Type
REMARK                         _______ _______ _______ _____ _____    ______ ____
ROOT
ATOM      1  C   UNL     1       2.072   4.972  20.166  0.00  0.00    +0.000 A 
ATOM      2  N   UNL     1       1.665   6.152  20.527  0.00  0.00    +0.000 NA
ATOM      3  N   UNL     1       1.994   7.244  19.750  0.00  0.00    +0.000 N 
ATOM      4  C   UNL     1       2.720   7.160  18.563  0.00  0.00    +0.000 A 
ATOM      5  O   UNL     1       2.933   8.116  17.823  0.00  0.00    +0.000 OA
ATOM      6  C   UNL     1       3.262   5.836  18.215  0.00  0.00    +0.000 A 
ATOM      7  C   UNL     1       4.138   5.706  17.129  0.00  0.00    +0.000 A 
ATOM      8  C   UNL     1       4.682   4.461  16.816  0.00  0.00    +0.000 A 
ATOM      9  C   UNL     1       4.322   3.344  17.564  0.00  0.00    +0.000 A 
ATOM     10  C   UNL     1       3.440   3.471  18.641  0.00  0.00    +0.000 A 
ATOM     11  C   UNL     1       2.921   4.727  18.985  0.00  0.00    +0.000 A 
ENDROOT
BRANCH   1  13
ATOM     12  O   UNL     1       2.277   3.513  22.100  0.00  0.00    +0.000 OA
ATOM     13  C   UNL     1       1.671   3.816  21.095  0.00  0.00    +0.000 C 
BRANCH  13  14
ATOM     14  O   UNL     1       0.564   3.198  20.651  0.00  0.00    +0.000 OA
ATOM     15  H   UNL     1      -0.162   3.298  21.308  0.00  0.00    +0.000 HD
ENDBRANCH  13  14
ENDBRANCH   1  13
BRANCH   3  16
ATOM     16  C   UNL     1       1.476   8.551  20.172  0.00  0.00    +0.000 C 
BRANCH  16  17
ATOM     17  C   UNL     1       1.157   8.596  21.665  0.00  0.00    +0.000 C 
BRANCH  17  18
ATOM     18  O   UNL     1       1.318   9.932  22.164  0.00  0.00    +0.000 OA
BRANCH  18  19
ATOM     19  C   UNL     1       0.188  10.705  22.087  0.00  0.00    +0.000 A 
ATOM     20  C   UNL     1      -0.091  11.584  21.039  0.00  0.00    +0.000 A 
ATOM     21  C   UNL     1      -1.250  12.362  21.047  0.00  0.00    +0.000 A 
ATOM     22  C   UNL     1      -2.145  12.248  22.103  0.00  0.00    +0.000 A 
ATOM     23 BR   UNL     1      -3.695  13.331  22.132  0.00  0.00    +0.000 Br
ATOM     24  C   UNL     1      -1.907  11.338  23.137  0.00  0.00    +0.000 A 
ATOM     25  C   UNL     1      -0.741  10.563  23.121  0.00  0.00    +0.000 A 
ENDBRANCH  18  19
ENDBRANCH  17  18
ENDBRANCH  16  17
ENDBRANCH   3  16
TORSDOF 6
ENDMDL
