MODEL 1
REMARK VINA RESULT:      -6.8      0.000      0.000
REMARK  Name = 
REMARK  4 active torsions:
REMARK  status: ('A' for Active; 'I' for Inactive)
REMARK    1  A    between atoms: C_1  and  C_2
REMARK    2  A    between atoms: C_6  and  N_7
REMARK    3  A    between atoms: C_10  and  C_11
REMARK    4  A    between atoms: N_21  and  C_22
REMARK                            x       y       z     vdW  Elec       q    Type
REMARK                         _______ _______ _______ _____ _____    ______ ____
ROOT
ATOM      1  N   UNL     1      -0.763  13.058  18.639  0.00  0.00    +0.000 N 
ATOM      2  C   UNL     1       0.656  13.012  18.257  0.00  0.00    +0.000 C 
ATOM      3  C   UNL     1       1.418  13.654  19.390  0.00  0.00    +0.000 C 
ATOM      4  C   UNL     1       0.590  13.438  20.635  0.00  0.00    +0.000 C 
ATOM      5  C   UNL     1      -0.845  13.726  20.000  0.00  0.00    +0.000 C 
ATOM      6  N   UNL     1       1.247  14.150  21.743  0.00  0.00    +0.000 N 
ATOM      7  C   UNL     1       2.241  15.059  21.764  0.00  0.00    +0.000 C 
ATOM      8  N   UNL     1       2.899  15.210  22.858  0.00  0.00    +0.000 NA
ATOM      9  N   UNL     1       2.609  15.672  20.575  0.00  0.00    +0.000 N 
ATOM     10  C   UNL     1       3.922  16.311  20.363  0.00  0.00    +0.000 C 
ATOM     11  S   UNL     1       1.607  15.453  19.221  0.00  0.00    +0.000 S 
ATOM     12  O   UNL     1       2.378  15.687  18.041  0.00  0.00    +0.000 OA
ATOM     13  O   UNL     1       0.390  16.198  19.478  0.00  0.00    +0.000 OA
ATOM     14  H   UNL     1       1.635  13.449  22.387  0.00  0.00    +0.000 HD
ATOM     15  H   UNL     1       3.610  15.932  22.758  0.00  0.00    +0.000 HD
ENDROOT
BRANCH   1  21
ATOM     16  C   UNL     1      -5.329  11.015  18.175  0.00  0.00    +0.000 C 
ATOM     17  C   UNL     1      -3.831  10.899  18.072  0.00  0.00    +0.000 A 
ATOM     18  C   UNL     1      -3.245   9.749  17.554  0.00  0.00    +0.000 A 
ATOM     19  C   UNL     1      -1.860   9.670  17.455  0.00  0.00    +0.000 A 
ATOM     20  C   UNL     1      -1.050  10.760  17.820  0.00  0.00    +0.000 A 
ATOM     21  C   UNL     1      -1.582  11.968  18.294  0.00  0.00    +0.000 A 
ATOM     22  C   UNL     1      -2.994  11.975  18.455  0.00  0.00    +0.000 A 
ENDBRANCH   1  21
BRANCH   4  23
ATOM     23  C   UNL     1       0.273  12.112  21.347  0.00  0.00    +0.000 A 
ATOM     24  C   UNL     1       0.854  10.881  21.094  0.00  0.00    +0.000 A 
ATOM     25  C   UNL     1       0.370   9.755  21.765  0.00  0.00    +0.000 A 
ATOM     26  C   UNL     1      -0.663   9.861  22.704  0.00  0.00    +0.000 A 
ATOM     27  C   UNL     1      -1.195  11.091  23.035  0.00  0.00    +0.000 A 
ATOM     28  C   UNL     1      -0.712  12.206  22.382  0.00  0.00    +0.000 A 
ENDBRANCH   4  23
TORSDOF 2
ENDMDL
MODEL 2
REMARK VINA RESULT:      -6.8      0.615      1.126
REMARK  Name = 
REMARK  4 active torsions:
REMARK  status: ('A' for Active; 'I' for Inactive)
REMARK    1  A    between atoms: C_1  and  C_2
REMARK    2  A    between atoms: C_6  and  N_7
REMARK    3  A    between atoms: C_10  and  C_11
REMARK    4  A    between atoms: N_21  and  C_22
REMARK                            x       y       z     vdW  Elec       q    Type
REMARK                         _______ _______ _______ _____ _____    ______ ____
ROOT
ATOM      1  N   UNL     1      -0.638  12.862  18.513  0.00  0.00    +0.000 N 
ATOM      2  C   UNL     1       0.752  12.454  18.262  0.00  0.00    +0.000 C 
ATOM      3  C   UNL     1       1.584  13.107  19.338  0.00  0.00    +0.000 C 
ATOM      4  C   UNL     1       0.672  13.288  20.528  0.00  0.00    +0.000 C 
ATOM      5  C   UNL     1      -0.633  13.757  19.739  0.00  0.00    +0.000 C 
ATOM      6  N   UNL     1       1.418  14.026  21.561  0.00  0.00    +0.000 N 
ATOM      7  C   UNL     1       2.586  14.695  21.520  0.00  0.00    +0.000 C 
ATOM      8  N   UNL     1       3.209  14.890  22.628  0.00  0.00    +0.000 NA
ATOM      9  N   UNL     1       3.135  15.003  20.283  0.00  0.00    +0.000 N 
ATOM     10  C   UNL     1       4.565  15.305  20.083  0.00  0.00    +0.000 C 
ATOM     11  S   UNL     1       2.174  14.769  18.903  0.00  0.00    +0.000 S 
ATOM     12  O   UNL     1       3.032  14.629  17.769  0.00  0.00    +0.000 OA
ATOM     13  O   UNL     1       1.141  15.786  18.938  0.00  0.00    +0.000 OA
ATOM     14  H   UNL     1       1.610  13.380  22.337  0.00  0.00    +0.000 HD
ATOM     15  H   UNL     1       4.066  15.419  22.473  0.00  0.00    +0.000 HD
ENDROOT
BRANCH   1  21
ATOM     16  C   UNL     1      -5.491  11.578  18.682  0.00  0.00    +0.000 C 
ATOM     17  C   UNL     1      -4.060  11.232  18.367  0.00  0.00    +0.000 A 
ATOM     18  C   UNL     1      -3.743  10.020  17.761  0.00  0.00    +0.000 A 
ATOM     19  C   UNL     1      -2.416   9.727  17.466  0.00  0.00    +0.000 A 
ATOM     20  C   UNL     1      -1.399  10.664  17.722  0.00  0.00    +0.000 A 
ATOM     21  C   UNL     1      -1.660  11.926  18.277  0.00  0.00    +0.000 A 
ATOM     22  C   UNL     1      -3.017  12.150  18.637  0.00  0.00    +0.000 A 
ENDBRANCH   1  21
BRANCH   4  23
ATOM     23  C   UNL     1       0.037  12.201  21.412  0.00  0.00    +0.000 A 
ATOM     24  C   UNL     1      -1.057  12.353  22.248  0.00  0.00    +0.000 A 
ATOM     25  C   UNL     1      -1.438  11.283  23.062  0.00  0.00    +0.000 A 
ATOM     26  C   UNL     1      -0.755  10.063  23.020  0.00  0.00    +0.000 A 
ATOM     27  C   UNL     1       0.282   9.861  22.130  0.00  0.00    +0.000 A 
ATOM     28  C   UNL     1       0.654  10.912  21.318  0.00  0.00    +0.000 A 
ENDBRANCH   4  23
TORSDOF 2
ENDMDL
MODEL 3
REMARK VINA RESULT:      -6.8      2.293      4.269
REMARK  Name = 
REMARK  4 active torsions:
REMARK  status: ('A' for Active; 'I' for Inactive)
REMARK    1  A    between atoms: C_1  and  C_2
REMARK    2  A    between atoms: C_6  and  N_7
REMARK    3  A    between atoms: C_10  and  C_11
REMARK    4  A    between atoms: N_21  and  C_22
REMARK                            x       y       z     vdW  Elec       q    Type
REMARK                         _______ _______ _______ _____ _____    ______ ____
ROOT
ATOM      1  N   UNL     1      -2.236  12.789  20.606  0.00  0.00    +0.000 N 
ATOM      2  C   UNL     1      -1.673  13.966  19.927  0.00  0.00    +0.000 C 
ATOM      3  C   UNL     1      -0.404  13.498  19.258  0.00  0.00    +0.000 C 
ATOM      4  C   UNL     1      -0.594  12.028  18.969  0.00  0.00    +0.000 C 
ATOM      5  C   UNL     1      -1.303  11.622  20.339  0.00  0.00    +0.000 C 
ATOM      6  N   UNL     1       0.669  11.510  18.417  0.00  0.00    +0.000 N 
ATOM      7  C   UNL     1       1.907  12.038  18.355  0.00  0.00    +0.000 C 
ATOM      8  N   UNL     1       2.718  11.572  17.473  0.00  0.00    +0.000 NA
ATOM      9  N   UNL     1       2.196  13.152  19.129  0.00  0.00    +0.000 N 
ATOM     10  C   UNL     1       3.306  14.079  18.836  0.00  0.00    +0.000 C 
ATOM     11  S   UNL     1       1.069  13.615  20.314  0.00  0.00    +0.000 S 
ATOM     12  O   UNL     1       1.266  14.998  20.613  0.00  0.00    +0.000 OA
ATOM     13  O   UNL     1       1.125  12.609  21.357  0.00  0.00    +0.000 OA
ATOM     14  H   UNL     1       0.518  11.294  17.423  0.00  0.00    +0.000 HD
ATOM     15  H   UNL     1       3.623  12.035  17.533  0.00  0.00    +0.000 HD
ENDROOT
BRANCH   1  21
ATOM     16  C   UNL     1      -6.542  11.798  18.217  0.00  0.00    +0.000 C 
ATOM     17  C   UNL     1      -5.804  12.178  19.474  0.00  0.00    +0.000 A 
ATOM     18  C   UNL     1      -6.484  12.298  20.682  0.00  0.00    +0.000 A 
ATOM     19  C   UNL     1      -5.780  12.636  21.833  0.00  0.00    +0.000 A 
ATOM     20  C   UNL     1      -4.384  12.802  21.799  0.00  0.00    +0.000 A 
ATOM     21  C   UNL     1      -3.634  12.638  20.626  0.00  0.00    +0.000 A 
ATOM     22  C   UNL     1      -4.403  12.374  19.459  0.00  0.00    +0.000 A 
ENDBRANCH   1  21
BRANCH   4  23
ATOM     23  C   UNL     1      -1.579  11.372  17.988  0.00  0.00    +0.000 A 
ATOM     24  C   UNL     1      -1.989  11.880  16.766  0.00  0.00    +0.000 A 
ATOM     25  C   UNL     1      -2.974  11.199  16.048  0.00  0.00    +0.000 A 
ATOM     26  C   UNL     1      -3.525  10.005  16.528  0.00  0.00    +0.000 A 
ATOM     27  C   UNL     1      -3.069   9.435  17.700  0.00  0.00    +0.000 A 
ATOM     28  C   UNL     1      -2.088  10.100  18.406  0.00  0.00    +0.000 A 
ENDBRANCH   4  23
TORSDOF 2
ENDMDL
MODEL 4
REMARK VINA RESULT:      -6.8      2.369      4.260
REMARK  Name = 
REMARK  4 active torsions:
REMARK  status: ('A' for Active; 'I' for Inactive)
REMARK    1  A    between atoms: C_1  and  C_2
REMARK    2  A    between atoms: C_6  and  N_7
REMARK    3  A    between atoms: C_10  and  C_11
REMARK    4  A    between atoms: N_21  and  C_22
REMARK                            x       y       z     vdW  Elec       q    Type
REMARK                         _______ _______ _______ _____ _____    ______ ____
ROOT
ATOM      1  N   UNL     1      -1.953  12.933  20.801  0.00  0.00    +0.000 N 
ATOM      2  C   UNL     1      -1.458  14.041  19.971  0.00  0.00    +0.000 C 
ATOM      3  C   UNL     1      -0.245  13.515  19.243  0.00  0.00    +0.000 C 
ATOM      4  C   UNL     1      -0.447  12.024  19.109  0.00  0.00    +0.000 C 
ATOM      5  C   UNL     1      -1.035  11.747  20.565  0.00  0.00    +0.000 C 
ATOM      6  N   UNL     1       0.770  11.457  18.503  0.00  0.00    +0.000 N 
ATOM      7  C   UNL     1       1.994  11.978  18.289  0.00  0.00    +0.000 C 
ATOM      8  N   UNL     1       2.733  11.434  17.388  0.00  0.00    +0.000 NA
ATOM      9  N   UNL     1       2.337  13.160  18.930  0.00  0.00    +0.000 N 
ATOM     10  C   UNL     1       3.410  14.056  18.460  0.00  0.00    +0.000 C 
ATOM     11  S   UNL     1       1.309  13.730  20.157  0.00  0.00    +0.000 S 
ATOM     12  O   UNL     1       1.518  15.135  20.309  0.00  0.00    +0.000 OA
ATOM     13  O   UNL     1       1.461  12.825  21.280  0.00  0.00    +0.000 OA
ATOM     14  H   UNL     1       0.538  11.150  17.550  0.00  0.00    +0.000 HD
ATOM     15  H   UNL     1       3.635  11.901  17.329  0.00  0.00    +0.000 HD
ENDROOT
BRANCH   1  21
ATOM     16  C   UNL     1      -6.471  11.994  18.817  0.00  0.00    +0.000 C 
ATOM     17  C   UNL     1      -5.615  12.349  20.004  0.00  0.00    +0.000 A 
ATOM     18  C   UNL     1      -6.175  12.446  21.274  0.00  0.00    +0.000 A 
ATOM     19  C   UNL     1      -5.363  12.761  22.359  0.00  0.00    +0.000 A 
ATOM     20  C   UNL     1      -3.976  12.925  22.194  0.00  0.00    +0.000 A 
ATOM     21  C   UNL     1      -3.343  12.783  20.951  0.00  0.00    +0.000 A 
ATOM     22  C   UNL     1      -4.221  12.542  19.859  0.00  0.00    +0.000 A 
ENDBRANCH   1  21
BRANCH   4  23
ATOM     23  C   UNL     1      -1.505  11.279  18.278  0.00  0.00    +0.000 A 
ATOM     24  C   UNL     1      -2.145  10.100  18.624  0.00  0.00    +0.000 A 
ATOM     25  C   UNL     1      -3.006   9.504  17.700  0.00  0.00    +0.000 A 
ATOM     26  C   UNL     1      -3.253  10.094  16.455  0.00  0.00    +0.000 A 
ATOM     27  C   UNL     1      -2.695  11.313  16.126  0.00  0.00    +0.000 A 
ATOM     28  C   UNL     1      -1.851  11.909  17.040  0.00  0.00    +0.000 A 
ENDBRANCH   4  23
TORSDOF 2
ENDMDL
MODEL 5
REMARK VINA RESULT:      -6.7      1.114      1.411
REMARK  Name = 
REMARK  4 active torsions:
REMARK  status: ('A' for Active; 'I' for Inactive)
REMARK    1  A    between atoms: C_1  and  C_2
REMARK    2  A    between atoms: C_6  and  N_7
REMARK    3  A    between atoms: C_10  and  C_11
REMARK    4  A    between atoms: N_21  and  C_22
REMARK                            x       y       z     vdW  Elec       q    Type
REMARK                         _______ _______ _______ _____ _____    ______ ____
ROOT
ATOM      1  N   UNL     1      -0.473  12.699  18.601  0.00  0.00    +0.000 N 
ATOM      2  C   UNL     1       0.826  12.039  18.800  0.00  0.00    +0.000 C 
ATOM      3  C   UNL     1       1.561  12.859  19.831  0.00  0.00    +0.000 C 
ATOM      4  C   UNL     1       0.502  13.517  20.683  0.00  0.00    +0.000 C 
ATOM      5  C   UNL     1      -0.511  13.910  19.515  0.00  0.00    +0.000 C 
ATOM      6  N   UNL     1       1.180  14.416  21.631  0.00  0.00    +0.000 N 
ATOM      7  C   UNL     1       2.448  14.869  21.692  0.00  0.00    +0.000 C 
ATOM      8  N   UNL     1       2.883  15.296  22.824  0.00  0.00    +0.000 NA
ATOM      9  N   UNL     1       3.266  14.709  20.583  0.00  0.00    +0.000 N 
ATOM     10  C   UNL     1       4.740  14.729  20.652  0.00  0.00    +0.000 C 
ATOM     11  S   UNL     1       2.548  14.211  19.126  0.00  0.00    +0.000 S 
ATOM     12  O   UNL     1       3.553  13.616  18.303  0.00  0.00    +0.000 OA
ATOM     13  O   UNL     1       1.757  15.329  18.649  0.00  0.00    +0.000 OA
ATOM     14  H   UNL     1       1.090  14.013  22.573  0.00  0.00    +0.000 HD
ATOM     15  H   UNL     1       3.843  15.625  22.742  0.00  0.00    +0.000 HD
ENDROOT
BRANCH   1  21
ATOM     16  C   UNL     1      -5.410  11.902  19.076  0.00  0.00    +0.000 C 
ATOM     17  C   UNL     1      -4.051  11.438  18.623  0.00  0.00    +0.000 A 
ATOM     18  C   UNL     1      -3.911  10.250  17.913  0.00  0.00    +0.000 A 
ATOM     19  C   UNL     1      -2.648   9.848  17.492  0.00  0.00    +0.000 A 
ATOM     20  C   UNL     1      -1.521  10.655  17.727  0.00  0.00    +0.000 A 
ATOM     21  C   UNL     1      -1.604  11.891  18.386  0.00  0.00    +0.000 A 
ATOM     22  C   UNL     1      -2.899  12.223  18.870  0.00  0.00    +0.000 A 
ENDBRANCH   1  21
BRANCH   4  23
ATOM     23  C   UNL     1      -0.494  12.849  21.646  0.00  0.00    +0.000 A 
ATOM     24  C   UNL     1      -0.380  11.587  22.206  0.00  0.00    +0.000 A 
ATOM     25  C   UNL     1      -1.433  11.094  22.980  0.00  0.00    +0.000 A 
ATOM     26  C   UNL     1      -2.576  11.865  23.221  0.00  0.00    +0.000 A 
ATOM     27  C   UNL     1      -2.671  13.158  22.747  0.00  0.00    +0.000 A 
ATOM     28  C   UNL     1      -1.629  13.651  21.990  0.00  0.00    +0.000 A 
ENDBRANCH   4  23
TORSDOF 2
ENDMDL
MODEL 6
REMARK VINA RESULT:      -6.7      7.222      8.881
REMARK  Name = 
REMARK  4 active torsions:
REMARK  status: ('A' for Active; 'I' for Inactive)
REMARK    1  A    between atoms: C_1  and  C_2
REMARK    2  A    between atoms: C_6  and  N_7
REMARK    3  A    between atoms: C_10  and  C_11
REMARK    4  A    between atoms: N_21  and  C_22
REMARK                            x       y       z     vdW  Elec       q    Type
REMARK                         _______ _______ _______ _____ _____    ______ ____
ROOT
ATOM      1  N   UNL     1       3.126   7.401  18.761  0.00  0.00    +0.000 N 
ATOM      2  C   UNL     1       2.804   7.226  17.337  0.00  0.00    +0.000 C 
ATOM      3  C   UNL     1       3.582   6.019  16.875  0.00  0.00    +0.000 C 
ATOM      4  C   UNL     1       3.770   5.144  18.092  0.00  0.00    +0.000 C 
ATOM      5  C   UNL     1       4.094   6.297  19.146  0.00  0.00    +0.000 C 
ATOM      6  N   UNL     1       4.624   4.009  17.704  0.00  0.00    +0.000 N 
ATOM      7  C   UNL     1       5.373   3.781  16.607  0.00  0.00    +0.000 C 
ATOM      8  N   UNL     1       5.682   2.564  16.330  0.00  0.00    +0.000 NA
ATOM      9  N   UNL     1       5.641   4.839  15.751  0.00  0.00    +0.000 N 
ATOM     10  C   UNL     1       6.033   4.661  14.340  0.00  0.00    +0.000 C 
ATOM     11  S   UNL     1       5.252   6.407  16.275  0.00  0.00    +0.000 S 
ATOM     12  O   UNL     1       5.103   7.246  15.127  0.00  0.00    +0.000 OA
ATOM     13  O   UNL     1       6.192   6.740  17.327  0.00  0.00    +0.000 OA
ATOM     14  H   UNL     1       4.044   3.160  17.703  0.00  0.00    +0.000 HD
ATOM     15  H   UNL     1       6.260   2.518  15.493  0.00  0.00    +0.000 HD
ENDROOT
BRANCH   1  21
ATOM     16  C   UNL     1      -0.473  10.700  19.946  0.00  0.00    +0.000 C 
ATOM     17  C   UNL     1       0.322   9.463  20.271  0.00  0.00    +0.000 A 
ATOM     18  C   UNL     1      -0.000   8.688  21.381  0.00  0.00    +0.000 A 
ATOM     19  C   UNL     1       0.738   7.541  21.654  0.00  0.00    +0.000 A 
ATOM     20  C   UNL     1       1.769   7.128  20.791  0.00  0.00    +0.000 A 
ATOM     21  C   UNL     1       2.104   7.833  19.626  0.00  0.00    +0.000 A 
ATOM     22  C   UNL     1       1.380   9.040  19.430  0.00  0.00    +0.000 A 
ENDBRANCH   1  21
BRANCH   4  23
ATOM     23  C   UNL     1       2.698   4.384  18.891  0.00  0.00    +0.000 A 
ATOM     24  C   UNL     1       1.447   4.002  18.437  0.00  0.00    +0.000 A 
ATOM     25  C   UNL     1       0.556   3.409  19.334  0.00  0.00    +0.000 A 
ATOM     26  C   UNL     1       0.919   3.170  20.665  0.00  0.00    +0.000 A 
ATOM     27  C   UNL     1       2.191   3.463  21.115  0.00  0.00    +0.000 A 
ATOM     28  C   UNL     1       3.077   4.039  20.229  0.00  0.00    +0.000 A 
ENDBRANCH   4  23
TORSDOF 2
ENDMDL
MODEL 7
REMARK VINA RESULT:      -6.7      2.562      4.381
REMARK  Name = 
REMARK  4 active torsions:
REMARK  status: ('A' for Active; 'I' for Inactive)
REMARK    1  A    between atoms: C_1  and  C_2
REMARK    2  A    between atoms: C_6  and  N_7
REMARK    3  A    between atoms: C_10  and  C_11
REMARK    4  A    between atoms: N_21  and  C_22
REMARK                            x       y       z     vdW  Elec       q    Type
REMARK                         _______ _______ _______ _____ _____    ______ ____
ROOT
ATOM      1  N   UNL     1      -1.951  12.959  20.793  0.00  0.00    +0.000 N 
ATOM      2  C   UNL     1      -1.453  14.057  19.950  0.00  0.00    +0.000 C 
ATOM      3  C   UNL     1      -0.244  13.517  19.226  0.00  0.00    +0.000 C 
ATOM      4  C   UNL     1      -0.453  12.025  19.107  0.00  0.00    +0.000 C 
ATOM      5  C   UNL     1      -1.040  11.766  20.568  0.00  0.00    +0.000 C 
ATOM      6  N   UNL     1       0.759  11.446  18.506  0.00  0.00    +0.000 N 
ATOM      7  C   UNL     1       1.986  11.959  18.283  0.00  0.00    +0.000 C 
ATOM      8  N   UNL     1       2.720  11.401  17.387  0.00  0.00    +0.000 NA
ATOM      9  N   UNL     1       2.336  13.145  18.911  0.00  0.00    +0.000 N 
ATOM     10  C   UNL     1       3.413  14.031  18.430  0.00  0.00    +0.000 C 
ATOM     11  S   UNL     1       1.313  13.733  20.134  0.00  0.00    +0.000 S 
ATOM     12  O   UNL     1       1.530  15.139  20.272  0.00  0.00    +0.000 OA
ATOM     13  O   UNL     1       1.463  12.840  21.266  0.00  0.00    +0.000 OA
ATOM     14  H   UNL     1       0.524  11.131  17.556  0.00  0.00    +0.000 HD
ATOM     15  H   UNL     1       3.624  11.863  17.321  0.00  0.00    +0.000 HD
ENDROOT
BRANCH   1  21
ATOM     16  C   UNL     1      -6.021  12.898  23.736  0.00  0.00    +0.000 C 
ATOM     17  C   UNL     1      -5.392  12.751  22.376  0.00  0.00    +0.000 A 
ATOM     18  C   UNL     1      -6.185  12.561  21.249  0.00  0.00    +0.000 A 
ATOM     19  C   UNL     1      -5.583  12.442  20.000  0.00  0.00    +0.000 A 
ATOM     20  C   UNL     1      -4.190  12.568  19.859  0.00  0.00    +0.000 A 
ATOM     21  C   UNL     1      -3.342  12.818  20.948  0.00  0.00    +0.000 A 
ATOM     22  C   UNL     1      -3.990  12.851  22.213  0.00  0.00    +0.000 A 
ENDBRANCH   1  21
BRANCH   4  23
ATOM     23  C   UNL     1      -1.517  11.277  18.287  0.00  0.00    +0.000 A 
ATOM     24  C   UNL     1      -2.164  10.106  18.647  0.00  0.00    +0.000 A 
ATOM     25  C   UNL     1      -3.029   9.504  17.731  0.00  0.00    +0.000 A 
ATOM     26  C   UNL     1      -3.274  10.081  16.479  0.00  0.00    +0.000 A 
ATOM     27  C   UNL     1      -2.709  11.293  16.135  0.00  0.00    +0.000 A 
ATOM     28  C   UNL     1      -1.861  11.895  17.041  0.00  0.00    +0.000 A 
ENDBRANCH   4  23
TORSDOF 2
ENDMDL
MODEL 8
REMARK VINA RESULT:      -6.7      2.930      5.349
REMARK  Name = 
REMARK  4 active torsions:
REMARK  status: ('A' for Active; 'I' for Inactive)
REMARK    1  A    between atoms: C_1  and  C_2
REMARK    2  A    between atoms: C_6  and  N_7
REMARK    3  A    between atoms: C_10  and  C_11
REMARK    4  A    between atoms: N_21  and  C_22
REMARK                            x       y       z     vdW  Elec       q    Type
REMARK                         _______ _______ _______ _____ _____    ______ ____
ROOT
ATOM      1  N   UNL     1       0.488  10.999  20.330  0.00  0.00    +0.000 N 
ATOM      2  C   UNL     1      -0.505  10.696  21.371  0.00  0.00    +0.000 C 
ATOM      3  C   UNL     1      -1.553  11.777  21.281  0.00  0.00    +0.000 C 
ATOM      4  C   UNL     1      -1.550  12.253  19.848  0.00  0.00    +0.000 C 
ATOM      5  C   UNL     1       0.030  12.260  19.620  0.00  0.00    +0.000 C 
ATOM      6  N   UNL     1      -2.481  13.389  19.747  0.00  0.00    +0.000 N 
ATOM      7  C   UNL     1      -3.094  14.135  20.686  0.00  0.00    +0.000 C 
ATOM      8  N   UNL     1      -4.156  14.777  20.349  0.00  0.00    +0.000 NA
ATOM      9  N   UNL     1      -2.649  14.053  21.998  0.00  0.00    +0.000 N 
ATOM     10  C   UNL     1      -3.474  14.434  23.160  0.00  0.00    +0.000 C 
ATOM     11  S   UNL     1      -1.188  13.239  22.295  0.00  0.00    +0.000 S 
ATOM     12  O   UNL     1      -1.173  12.814  23.659  0.00  0.00    +0.000 OA
ATOM     13  O   UNL     1      -0.130  14.075  21.761  0.00  0.00    +0.000 OA
ATOM     14  H   UNL     1      -3.298  13.083  19.202  0.00  0.00    +0.000 HD
ATOM     15  H   UNL     1      -4.518  15.316  21.134  0.00  0.00    +0.000 HD
ENDROOT
BRANCH   1  21
ATOM     16  C   UNL     1       2.149   6.259  20.248  0.00  0.00    +0.000 C 
ATOM     17  C   UNL     1       1.941   7.580  19.557  0.00  0.00    +0.000 A 
ATOM     18  C   UNL     1       2.246   7.728  18.208  0.00  0.00    +0.000 A 
ATOM     19  C   UNL     1       2.032   8.954  17.587  0.00  0.00    +0.000 A 
ATOM     20  C   UNL     1       1.459  10.027  18.293  0.00  0.00    +0.000 A 
ATOM     21  C   UNL     1       1.076   9.925  19.638  0.00  0.00    +0.000 A 
ATOM     22  C   UNL     1       1.388   8.681  20.254  0.00  0.00    +0.000 A 
ENDBRANCH   1  21
BRANCH   4  23
ATOM     23  C   UNL     1      -1.969  11.478  18.587  0.00  0.00    +0.000 A 
ATOM     24  C   UNL     1      -1.709  11.834  17.275  0.00  0.00    +0.000 A 
ATOM     25  C   UNL     1      -2.256  11.065  16.245  0.00  0.00    +0.000 A 
ATOM     26  C   UNL     1      -3.030   9.932  16.522  0.00  0.00    +0.000 A 
ATOM     27  C   UNL     1      -3.228   9.509  17.821  0.00  0.00    +0.000 A 
ATOM     28  C   UNL     1      -2.680  10.260  18.839  0.00  0.00    +0.000 A 
ENDBRANCH   4  23
TORSDOF 2
ENDMDL
MODEL 9
REMARK VINA RESULT:      -6.5      0.912      1.680
REMARK  Name = 
REMARK  4 active torsions:
REMARK  status: ('A' for Active; 'I' for Inactive)
REMARK    1  A    between atoms: C_1  and  C_2
REMARK    2  A    between atoms: C_6  and  N_7
REMARK    3  A    between atoms: C_10  and  C_11
REMARK    4  A    between atoms: N_21  and  C_22
REMARK                            x       y       z     vdW  Elec       q    Type
REMARK                         _______ _______ _______ _____ _____    ______ ____
ROOT
ATOM      1  N   UNL     1      -0.546  13.118  18.521  0.00  0.00    +0.000 N 
ATOM      2  C   UNL     1       0.801  12.568  18.307  0.00  0.00    +0.000 C 
ATOM      3  C   UNL     1       1.674  13.157  19.388  0.00  0.00    +0.000 C 
ATOM      4  C   UNL     1       0.762  13.453  20.555  0.00  0.00    +0.000 C 
ATOM      5  C   UNL     1      -0.474  14.034  19.730  0.00  0.00    +0.000 C 
ATOM      6  N   UNL     1       1.558  14.134  21.589  0.00  0.00    +0.000 N 
ATOM      7  C   UNL     1       2.789  14.682  21.560  0.00  0.00    +0.000 C 
ATOM      8  N   UNL     1       3.407  14.837  22.676  0.00  0.00    +0.000 NA
ATOM      9  N   UNL     1       3.389  14.907  20.329  0.00  0.00    +0.000 N 
ATOM     10  C   UNL     1       4.846  15.061  20.153  0.00  0.00    +0.000 C 
ATOM     11  S   UNL     1       2.435  14.742  18.934  0.00  0.00    +0.000 S 
ATOM     12  O   UNL     1       3.296  14.492  17.821  0.00  0.00    +0.000 OA
ATOM     13  O   UNL     1       1.510  15.858  18.927  0.00  0.00    +0.000 OA
ATOM     14  H   UNL     1       1.670  13.489  22.381  0.00  0.00    +0.000 HD
ATOM     15  H   UNL     1       4.315  15.274  22.530  0.00  0.00    +0.000 HD
ENDROOT
BRANCH   1  21
ATOM     16  C   UNL     1      -2.898   9.715  15.672  0.00  0.00    +0.000 C 
ATOM     17  C   UNL     1      -2.873  10.610  16.882  0.00  0.00    +0.000 A 
ATOM     18  C   UNL     1      -3.900  10.560  17.819  0.00  0.00    +0.000 A 
ATOM     19  C   UNL     1      -3.849  11.386  18.937  0.00  0.00    +0.000 A 
ATOM     20  C   UNL     1      -2.746  12.229  19.158  0.00  0.00    +0.000 A 
ATOM     21  C   UNL     1      -1.652  12.284  18.282  0.00  0.00    +0.000 A 
ATOM     22  C   UNL     1      -1.784  11.485  17.113  0.00  0.00    +0.000 A 
ENDBRANCH   1  21
BRANCH   4  23
ATOM     23  C   UNL     1       0.004  12.454  21.446  0.00  0.00    +0.000 A 
ATOM     24  C   UNL     1      -1.061  12.739  22.285  0.00  0.00    +0.000 A 
ATOM     25  C   UNL     1      -1.564  11.727  23.105  0.00  0.00    +0.000 A 
ATOM     26  C   UNL     1      -1.032  10.433  23.067  0.00  0.00    +0.000 A 
ATOM     27  C   UNL     1      -0.031  10.105  22.175  0.00  0.00    +0.000 A 
ATOM     28  C   UNL     1       0.462  11.100  21.356  0.00  0.00    +0.000 A 
ENDBRANCH   4  23
TORSDOF 2
ENDMDL
