MODEL 1
REMARK VINA RESULT:      -7.3      0.000      0.000
REMARK  Name = 
REMARK  5 active torsions:
REMARK  status: ('A' for Active; 'I' for Inactive)
REMARK    1  A    between atoms: O_1  and  C_2
REMARK    2  A    between atoms: C_4  and  C_5
REMARK    3  A    between atoms: C_10  and  S_11
REMARK    4  A    between atoms: S_11  and  C_12
REMARK    5  A    between atoms: C_12  and  C_13
REMARK                            x       y       z     vdW  Elec       q    Type
REMARK                         _______ _______ _______ _____ _____    ______ ____
ROOT
ATOM      1  C   UNL     1       7.905   5.287  13.449  0.00  0.00    +0.000 A 
ATOM      2  C   UNL     1       7.144   4.645  12.506  0.00  0.00    +0.000 A 
ATOM      3  C   UNL     1       6.070   3.921  12.994  0.00  0.00    +0.000 A 
ATOM      4  N   UNL     1       5.792   3.855  14.327  0.00  0.00    +0.000 NA
ATOM      5  C   UNL     1       6.604   4.531  15.157  0.00  0.00    +0.000 A 
ATOM      6  N   UNL     1       7.660   5.253  14.759  0.00  0.00    +0.000 NA
ENDROOT
BRANCH   3   7
ATOM      7  C   UNL     1       5.168   3.186  12.012  0.00  0.00    +0.000 C 
ATOM      8  F   UNL     1       5.043   3.837  10.816  0.00  0.00    +0.000 F 
ATOM      9  F   UNL     1       5.625   1.942  11.700  0.00  0.00    +0.000 F 
ATOM     10  F   UNL     1       3.896   3.026  12.471  0.00  0.00    +0.000 F 
ENDBRANCH   3   7
BRANCH   1  11
ATOM     11  O   UNL     1       8.992   6.029  13.093  0.00  0.00    +0.000 OA
ATOM     12  H   UNL     1       8.849   6.415  12.217  0.00  0.00    +0.000 HD
ENDBRANCH   1  11
BRANCH   5  13
ATOM     13  S   UNL     1       6.242   4.573  16.892  0.00  0.00    +0.000 S 
BRANCH  13  14
ATOM     14  C   UNL     1       4.563   5.274  16.876  0.00  0.00    +0.000 C 
BRANCH  14  15
ATOM     15  C   UNL     1       3.561   4.287  17.434  0.00  0.00    +0.000 A 
ATOM     16  C   UNL     1       3.883   2.924  17.546  0.00  0.00    +0.000 A 
ATOM     17  C   UNL     1       2.941   2.004  18.011  0.00  0.00    +0.000 A 
ATOM     18  C   UNL     1       1.664   2.431  18.371  0.00  0.00    +0.000 A 
ATOM     19  C   UNL     1       1.332   3.780  18.272  0.00  0.00    +0.000 A 
ATOM     20  C   UNL     1       2.271   4.702  17.806  0.00  0.00    +0.000 A 
ENDBRANCH  14  15
ENDBRANCH  13  14
ENDBRANCH   5  13
TORSDOF 5
ENDMDL
MODEL 2
REMARK VINA RESULT:      -7.2      0.046      1.407
REMARK  Name = 
REMARK  5 active torsions:
REMARK  status: ('A' for Active; 'I' for Inactive)
REMARK    1  A    between atoms: O_1  and  C_2
REMARK    2  A    between atoms: C_4  and  C_5
REMARK    3  A    between atoms: C_10  and  S_11
REMARK    4  A    between atoms: S_11  and  C_12
REMARK    5  A    between atoms: C_12  and  C_13
REMARK                            x       y       z     vdW  Elec       q    Type
REMARK                         _______ _______ _______ _____ _____    ______ ____
ROOT
ATOM      1  C   UNL     1       7.887   5.291  13.464  0.00  0.00    +0.000 A 
ATOM      2  C   UNL     1       7.117   4.660  12.522  0.00  0.00    +0.000 A 
ATOM      3  C   UNL     1       6.043   3.935  13.011  0.00  0.00    +0.000 A 
ATOM      4  N   UNL     1       5.774   3.859  14.345  0.00  0.00    +0.000 NA
ATOM      5  C   UNL     1       6.595   4.525  15.175  0.00  0.00    +0.000 A 
ATOM      6  N   UNL     1       7.650   5.246  14.776  0.00  0.00    +0.000 NA
ENDROOT
BRANCH   3   7
ATOM      7  C   UNL     1       5.132   3.213  12.029  0.00  0.00    +0.000 C 
ATOM      8  F   UNL     1       3.864   3.037  12.510  0.00  0.00    +0.000 F 
ATOM      9  F   UNL     1       4.982   3.882  10.852  0.00  0.00    +0.000 F 
ATOM     10  F   UNL     1       5.573   1.965  11.708  0.00  0.00    +0.000 F 
ENDBRANCH   3   7
BRANCH   1  11
ATOM     11  O   UNL     1       8.974   6.032  13.107  0.00  0.00    +0.000 OA
ATOM     12  H   UNL     1       9.118   5.957  12.153  0.00  0.00    +0.000 HD
ENDBRANCH   1  11
BRANCH   5  13
ATOM     13  S   UNL     1       6.245   4.552  16.913  0.00  0.00    +0.000 S 
BRANCH  13  14
ATOM     14  C   UNL     1       4.570   5.262  16.914  0.00  0.00    +0.000 C 
BRANCH  14  15
ATOM     15  C   UNL     1       3.556   4.252  17.408  0.00  0.00    +0.000 A 
ATOM     16  C   UNL     1       2.270   4.659  17.799  0.00  0.00    +0.000 A 
ATOM     17  C   UNL     1       1.352   3.736  18.304  0.00  0.00    +0.000 A 
ATOM     18  C   UNL     1       1.705   2.393  18.427  0.00  0.00    +0.000 A 
ATOM     19  C   UNL     1       2.975   1.972  18.036  0.00  0.00    +0.000 A 
ATOM     20  C   UNL     1       3.895   2.894  17.532  0.00  0.00    +0.000 A 
ENDBRANCH  14  15
ENDBRANCH  13  14
ENDBRANCH   5  13
TORSDOF 5
ENDMDL
MODEL 3
REMARK VINA RESULT:      -7.2      3.138      4.257
REMARK  Name = 
REMARK  5 active torsions:
REMARK  status: ('A' for Active; 'I' for Inactive)
REMARK    1  A    between atoms: O_1  and  C_2
REMARK    2  A    between atoms: C_4  and  C_5
REMARK    3  A    between atoms: C_10  and  S_11
REMARK    4  A    between atoms: S_11  and  C_12
REMARK    5  A    between atoms: C_12  and  C_13
REMARK                            x       y       z     vdW  Elec       q    Type
REMARK                         _______ _______ _______ _____ _____    ______ ____
ROOT
ATOM      1  C   UNL     1       6.119   4.699  18.778  0.00  0.00    +0.000 A 
ATOM      2  C   UNL     1       6.348   5.131  17.498  0.00  0.00    +0.000 A 
ATOM      3  C   UNL     1       5.568   4.542  16.517  0.00  0.00    +0.000 A 
ATOM      4  N   UNL     1       4.633   3.595  16.813  0.00  0.00    +0.000 NA
ATOM      5  C   UNL     1       4.493   3.256  18.106  0.00  0.00    +0.000 A 
ATOM      6  N   UNL     1       5.209   3.781  19.107  0.00  0.00    +0.000 NA
ENDROOT
BRANCH   3   7
ATOM      7  C   UNL     1       5.753   4.974  15.069  0.00  0.00    +0.000 C 
ATOM      8  F   UNL     1       5.226   6.209  14.811  0.00  0.00    +0.000 F 
ATOM      9  F   UNL     1       7.062   5.056  14.702  0.00  0.00    +0.000 F 
ATOM     10  F   UNL     1       5.155   4.133  14.180  0.00  0.00    +0.000 F 
ENDBRANCH   3   7
BRANCH   1  11
ATOM     11  O   UNL     1       6.827   5.201  19.830  0.00  0.00    +0.000 OA
ATOM     12  H   UNL     1       6.229   5.370  20.572  0.00  0.00    +0.000 HD
ENDBRANCH   1  11
BRANCH   5  13
ATOM     13  S   UNL     1       3.227   2.106  18.574  0.00  0.00    +0.000 S 
BRANCH  13  14
ATOM     14  C   UNL     1       1.731   3.080  18.222  0.00  0.00    +0.000 C 
BRANCH  14  15
ATOM     15  C   UNL     1       1.850   4.476  18.795  0.00  0.00    +0.000 A 
ATOM     16  C   UNL     1       2.186   5.563  17.970  0.00  0.00    +0.000 A 
ATOM     17  C   UNL     1       2.347   6.842  18.506  0.00  0.00    +0.000 A 
ATOM     18  C   UNL     1       2.176   7.055  19.873  0.00  0.00    +0.000 A 
ATOM     19  C   UNL     1       1.835   5.988  20.703  0.00  0.00    +0.000 A 
ATOM     20  C   UNL     1       1.675   4.707  20.169  0.00  0.00    +0.000 A 
ENDBRANCH  14  15
ENDBRANCH  13  14
ENDBRANCH   5  13
TORSDOF 5
ENDMDL
MODEL 4
REMARK VINA RESULT:      -7.2      6.315      8.061
REMARK  Name = 
REMARK  5 active torsions:
REMARK  status: ('A' for Active; 'I' for Inactive)
REMARK    1  A    between atoms: O_1  and  C_2
REMARK    2  A    between atoms: C_4  and  C_5
REMARK    3  A    between atoms: C_10  and  S_11
REMARK    4  A    between atoms: S_11  and  C_12
REMARK    5  A    between atoms: C_12  and  C_13
REMARK                            x       y       z     vdW  Elec       q    Type
REMARK                         _______ _______ _______ _____ _____    ______ ____
ROOT
ATOM      1  C   UNL     1       8.021   5.788  18.969  0.00  0.00    +0.000 A 
ATOM      2  C   UNL     1       7.381   5.047  18.010  0.00  0.00    +0.000 A 
ATOM      3  C   UNL     1       6.938   5.752  16.903  0.00  0.00    +0.000 A 
ATOM      4  N   UNL     1       7.130   7.096  16.781  0.00  0.00    +0.000 NA
ATOM      5  C   UNL     1       7.776   7.716  17.783  0.00  0.00    +0.000 A 
ATOM      6  N   UNL     1       8.234   7.102  18.881  0.00  0.00    +0.000 NA
ENDROOT
BRANCH   3   7
ATOM      7  C   UNL     1       6.226   5.000  15.786  0.00  0.00    +0.000 C 
ATOM      8  F   UNL     1       5.686   5.832  14.846  0.00  0.00    +0.000 F 
ATOM      9  F   UNL     1       7.053   4.165  15.098  0.00  0.00    +0.000 F 
ATOM     10  F   UNL     1       5.191   4.236  16.231  0.00  0.00    +0.000 F 
ENDBRANCH   3   7
BRANCH   1  11
ATOM     11  O   UNL     1       8.500   5.209  20.107  0.00  0.00    +0.000 OA
ATOM     12  H   UNL     1       9.211   5.754  20.473  0.00  0.00    +0.000 HD
ENDBRANCH   1  11
BRANCH   5  13
ATOM     13  S   UNL     1       8.149   9.444  17.643  0.00  0.00    +0.000 S 
BRANCH  13  14
ATOM     14  C   UNL     1       9.020   9.735  19.214  0.00  0.00    +0.000 C 
BRANCH  14  15
ATOM     15  C   UNL     1      10.006  10.876  19.080  0.00  0.00    +0.000 A 
ATOM     16  C   UNL     1      10.392  11.345  17.813  0.00  0.00    +0.000 A 
ATOM     17  C   UNL     1      11.340  12.362  17.688  0.00  0.00    +0.000 A 
ATOM     18  C   UNL     1      11.917  12.925  18.825  0.00  0.00    +0.000 A 
ATOM     19  C   UNL     1      11.539  12.476  20.089  0.00  0.00    +0.000 A 
ATOM     20  C   UNL     1      10.592  11.458  20.217  0.00  0.00    +0.000 A 
ENDBRANCH  14  15
ENDBRANCH  13  14
ENDBRANCH   5  13
TORSDOF 5
ENDMDL
MODEL 5
REMARK VINA RESULT:      -7.2      3.204      4.135
REMARK  Name = 
REMARK  5 active torsions:
REMARK  status: ('A' for Active; 'I' for Inactive)
REMARK    1  A    between atoms: O_1  and  C_2
REMARK    2  A    between atoms: C_4  and  C_5
REMARK    3  A    between atoms: C_10  and  S_11
REMARK    4  A    between atoms: S_11  and  C_12
REMARK    5  A    between atoms: C_12  and  C_13
REMARK                            x       y       z     vdW  Elec       q    Type
REMARK                         _______ _______ _______ _____ _____    ______ ____
ROOT
ATOM      1  C   UNL     1       6.335   5.350  18.874  0.00  0.00    +0.000 A 
ATOM      2  C   UNL     1       6.730   4.827  17.671  0.00  0.00    +0.000 A 
ATOM      3  C   UNL     1       5.821   4.954  16.634  0.00  0.00    +0.000 A 
ATOM      4  N   UNL     1       4.613   5.561  16.806  0.00  0.00    +0.000 NA
ATOM      5  C   UNL     1       4.337   6.042  18.030  0.00  0.00    +0.000 A 
ATOM      6  N   UNL     1       5.165   5.957  19.079  0.00  0.00    +0.000 NA
ENDROOT
BRANCH   3   7
ATOM      7  C   UNL     1       6.187   4.408  15.260  0.00  0.00    +0.000 C 
ATOM      8  F   UNL     1       6.145   3.043  15.201  0.00  0.00    +0.000 F 
ATOM      9  F   UNL     1       5.348   4.838  14.278  0.00  0.00    +0.000 F 
ATOM     10  F   UNL     1       7.446   4.749  14.868  0.00  0.00    +0.000 F 
ENDBRANCH   3   7
BRANCH   1  11
ATOM     11  O   UNL     1       7.141   5.284  19.972  0.00  0.00    +0.000 OA
ATOM     12  H   UNL     1       6.674   5.645  20.739  0.00  0.00    +0.000 HD
ENDBRANCH   1  11
BRANCH   5  13
ATOM     13  S   UNL     1       2.828   6.932  18.299  0.00  0.00    +0.000 S 
BRANCH  13  14
ATOM     14  C   UNL     1       2.355   6.318  19.945  0.00  0.00    +0.000 C 
BRANCH  14  15
ATOM     15  C   UNL     1       1.927   4.867  19.876  0.00  0.00    +0.000 A 
ATOM     16  C   UNL     1       1.564   4.284  18.650  0.00  0.00    +0.000 A 
ATOM     17  C   UNL     1       1.119   2.962  18.593  0.00  0.00    +0.000 A 
ATOM     18  C   UNL     1       1.029   2.203  19.758  0.00  0.00    +0.000 A 
ATOM     19  C   UNL     1       1.393   2.764  20.981  0.00  0.00    +0.000 A 
ATOM     20  C   UNL     1       1.837   4.087  21.041  0.00  0.00    +0.000 A 
ENDBRANCH  14  15
ENDBRANCH  13  14
ENDBRANCH   5  13
TORSDOF 5
ENDMDL
MODEL 6
REMARK VINA RESULT:      -7.2      6.360      8.133
REMARK  Name = 
REMARK  5 active torsions:
REMARK  status: ('A' for Active; 'I' for Inactive)
REMARK    1  A    between atoms: O_1  and  C_2
REMARK    2  A    between atoms: C_4  and  C_5
REMARK    3  A    between atoms: C_10  and  S_11
REMARK    4  A    between atoms: S_11  and  C_12
REMARK    5  A    between atoms: C_12  and  C_13
REMARK                            x       y       z     vdW  Elec       q    Type
REMARK                         _______ _______ _______ _____ _____    ______ ____
ROOT
ATOM      1  C   UNL     1       7.991   5.811  18.941  0.00  0.00    +0.000 A 
ATOM      2  C   UNL     1       7.381   5.080  17.955  0.00  0.00    +0.000 A 
ATOM      3  C   UNL     1       6.972   5.796  16.843  0.00  0.00    +0.000 A 
ATOM      4  N   UNL     1       7.167   7.141  16.741  0.00  0.00    +0.000 NA
ATOM      5  C   UNL     1       7.781   7.751  17.769  0.00  0.00    +0.000 A 
ATOM      6  N   UNL     1       8.205   7.126  18.874  0.00  0.00    +0.000 NA
ENDROOT
BRANCH   3   7
ATOM      7  C   UNL     1       6.296   5.056  15.697  0.00  0.00    +0.000 C 
ATOM      8  F   UNL     1       5.393   4.123  16.125  0.00  0.00    +0.000 F 
ATOM      9  F   UNL     1       5.596   5.883  14.871  0.00  0.00    +0.000 F 
ATOM     10  F   UNL     1       7.173   4.376  14.908  0.00  0.00    +0.000 F 
ENDBRANCH   3   7
BRANCH   1  11
ATOM     11  O   UNL     1       8.435   5.220  20.087  0.00  0.00    +0.000 OA
ATOM     12  H   UNL     1       8.961   5.853  20.595  0.00  0.00    +0.000 HD
ENDBRANCH   1  11
BRANCH   5  13
ATOM     13  S   UNL     1       8.157   9.480  17.659  0.00  0.00    +0.000 S 
BRANCH  13  14
ATOM     14  C   UNL     1       9.101   9.724  19.195  0.00  0.00    +0.000 C 
BRANCH  14  15
ATOM     15  C   UNL     1       9.982  10.952  19.098  0.00  0.00    +0.000 A 
ATOM     16  C   UNL     1      10.367  11.651  20.254  0.00  0.00    +0.000 A 
ATOM     17  C   UNL     1      11.136  12.813  20.161  0.00  0.00    +0.000 A 
ATOM     18  C   UNL     1      11.531  13.293  18.914  0.00  0.00    +0.000 A 
ATOM     19  C   UNL     1      11.163  12.606  17.759  0.00  0.00    +0.000 A 
ATOM     20  C   UNL     1      10.393  11.445  17.848  0.00  0.00    +0.000 A 
ENDBRANCH  14  15
ENDBRANCH  13  14
ENDBRANCH   5  13
TORSDOF 5
ENDMDL
MODEL 7
REMARK VINA RESULT:      -7.2      3.212      4.350
REMARK  Name = 
REMARK  5 active torsions:
REMARK  status: ('A' for Active; 'I' for Inactive)
REMARK    1  A    between atoms: O_1  and  C_2
REMARK    2  A    between atoms: C_4  and  C_5
REMARK    3  A    between atoms: C_10  and  S_11
REMARK    4  A    between atoms: S_11  and  C_12
REMARK    5  A    between atoms: C_12  and  C_13
REMARK                            x       y       z     vdW  Elec       q    Type
REMARK                         _______ _______ _______ _____ _____    ______ ____
ROOT
ATOM      1  C   UNL     1       6.254   4.725  18.841  0.00  0.00    +0.000 A 
ATOM      2  C   UNL     1       6.605   4.992  17.544  0.00  0.00    +0.000 A 
ATOM      3  C   UNL     1       5.860   4.343  16.574  0.00  0.00    +0.000 A 
ATOM      4  N   UNL     1       4.842   3.495  16.897  0.00  0.00    +0.000 NA
ATOM      5  C   UNL     1       4.585   3.315  18.204  0.00  0.00    +0.000 A 
ATOM      6  N   UNL     1       5.261   3.908  19.195  0.00  0.00    +0.000 NA
ENDROOT
BRANCH   3   7
ATOM      7  C   UNL     1       6.179   4.593  15.107  0.00  0.00    +0.000 C 
ATOM      8  F   UNL     1       6.134   3.455  14.351  0.00  0.00    +0.000 F 
ATOM      9  F   UNL     1       5.306   5.455  14.514  0.00  0.00    +0.000 F 
ATOM     10  F   UNL     1       7.423   5.110  14.911  0.00  0.00    +0.000 F 
ENDBRANCH   3   7
BRANCH   1  11
ATOM     11  O   UNL     1       6.917   5.301  19.885  0.00  0.00    +0.000 OA
ATOM     12  H   UNL     1       7.773   5.634  19.581  0.00  0.00    +0.000 HD
ENDBRANCH   1  11
BRANCH   5  13
ATOM     13  S   UNL     1       3.212   2.305  18.692  0.00  0.00    +0.000 S 
BRANCH  13  14
ATOM     14  C   UNL     1       1.816   3.368  18.210  0.00  0.00    +0.000 C 
BRANCH  14  15
ATOM     15  C   UNL     1       1.965   4.754  18.801  0.00  0.00    +0.000 A 
ATOM     16  C   UNL     1       1.676   4.991  20.155  0.00  0.00    +0.000 A 
ATOM     17  C   UNL     1       1.762   6.279  20.688  0.00  0.00    +0.000 A 
ATOM     18  C   UNL     1       2.136   7.348  19.877  0.00  0.00    +0.000 A 
ATOM     19  C   UNL     1       2.433   7.128  18.533  0.00  0.00    +0.000 A 
ATOM     20  C   UNL     1       2.347   5.841  17.998  0.00  0.00    +0.000 A 
ENDBRANCH  14  15
ENDBRANCH  13  14
ENDBRANCH   5  13
TORSDOF 5
ENDMDL
MODEL 8
REMARK VINA RESULT:      -7.2      2.767      3.512
REMARK  Name = 
REMARK  5 active torsions:
REMARK  status: ('A' for Active; 'I' for Inactive)
REMARK    1  A    between atoms: O_1  and  C_2
REMARK    2  A    between atoms: C_4  and  C_5
REMARK    3  A    between atoms: C_10  and  S_11
REMARK    4  A    between atoms: S_11  and  C_12
REMARK    5  A    between atoms: C_12  and  C_13
REMARK                            x       y       z     vdW  Elec       q    Type
REMARK                         _______ _______ _______ _____ _____    ______ ____
ROOT
ATOM      1  C   UNL     1       7.042   4.911  17.972  0.00  0.00    +0.000 A 
ATOM      2  C   UNL     1       7.187   4.544  16.660  0.00  0.00    +0.000 A 
ATOM      3  C   UNL     1       6.102   4.807  15.840  0.00  0.00    +0.000 A 
ATOM      4  N   UNL     1       4.967   5.395  16.314  0.00  0.00    +0.000 NA
ATOM      5  C   UNL     1       4.943   5.717  17.618  0.00  0.00    +0.000 A 
ATOM      6  N   UNL     1       5.951   5.495  18.470  0.00  0.00    +0.000 NA
ENDROOT
BRANCH   3   7
ATOM      7  C   UNL     1       6.185   4.439  14.365  0.00  0.00    +0.000 C 
ATOM      8  F   UNL     1       4.998   4.604  13.708  0.00  0.00    +0.000 F 
ATOM      9  F   UNL     1       7.086   5.196  13.679  0.00  0.00    +0.000 F 
ATOM     10  F   UNL     1       6.537   3.139  14.157  0.00  0.00    +0.000 F 
ENDBRANCH   3   7
BRANCH   1  11
ATOM     11  O   UNL     1       8.039   4.701  18.879  0.00  0.00    +0.000 OA
ATOM     12  H   UNL     1       8.356   5.552  19.215  0.00  0.00    +0.000 HD
ENDBRANCH   1  11
BRANCH   5  13
ATOM     13  S   UNL     1       3.539   6.575  18.280  0.00  0.00    +0.000 S 
BRANCH  13  14
ATOM     14  C   UNL     1       2.205   5.399  17.895  0.00  0.00    +0.000 C 
BRANCH  14  15
ATOM     15  C   UNL     1       1.911   4.510  19.085  0.00  0.00    +0.000 A 
ATOM     16  C   UNL     1       2.421   4.822  20.356  0.00  0.00    +0.000 A 
ATOM     17  C   UNL     1       2.195   3.975  21.443  0.00  0.00    +0.000 A 
ATOM     18  C   UNL     1       1.456   2.805  21.277  0.00  0.00    +0.000 A 
ATOM     19  C   UNL     1       0.937   2.486  20.024  0.00  0.00    +0.000 A 
ATOM     20  C   UNL     1       1.163   3.330  18.935  0.00  0.00    +0.000 A 
ENDBRANCH  14  15
ENDBRANCH  13  14
ENDBRANCH   5  13
TORSDOF 5
ENDMDL
MODEL 9
REMARK VINA RESULT:      -7.2      2.792      3.512
REMARK  Name = 
REMARK  5 active torsions:
REMARK  status: ('A' for Active; 'I' for Inactive)
REMARK    1  A    between atoms: O_1  and  C_2
REMARK    2  A    between atoms: C_4  and  C_5
REMARK    3  A    between atoms: C_10  and  S_11
REMARK    4  A    between atoms: S_11  and  C_12
REMARK    5  A    between atoms: C_12  and  C_13
REMARK                            x       y       z     vdW  Elec       q    Type
REMARK                         _______ _______ _______ _____ _____    ______ ____
ROOT
ATOM      1  C   UNL     1       6.961   5.006  18.044  0.00  0.00    +0.000 A 
ATOM      2  C   UNL     1       7.121   4.608  16.742  0.00  0.00    +0.000 A 
ATOM      3  C   UNL     1       6.041   4.840  15.907  0.00  0.00    +0.000 A 
ATOM      4  N   UNL     1       4.896   5.427  16.357  0.00  0.00    +0.000 NA
ATOM      5  C   UNL     1       4.856   5.781  17.653  0.00  0.00    +0.000 A 
ATOM      6  N   UNL     1       5.859   5.590  18.519  0.00  0.00    +0.000 NA
ENDROOT
BRANCH   3   7
ATOM      7  C   UNL     1       6.142   4.438  14.442  0.00  0.00    +0.000 C 
ATOM      8  F   UNL     1       4.962   4.586  13.768  0.00  0.00    +0.000 F 
ATOM      9  F   UNL     1       7.050   5.179  13.749  0.00  0.00    +0.000 F 
ATOM     10  F   UNL     1       6.496   3.134  14.269  0.00  0.00    +0.000 F 
ENDBRANCH   3   7
BRANCH   1  11
ATOM     11  O   UNL     1       7.952   4.828  18.964  0.00  0.00    +0.000 OA
ATOM     12  H   UNL     1       7.568   4.521  19.798  0.00  0.00    +0.000 HD
ENDBRANCH   1  11
BRANCH   5  13
ATOM     13  S   UNL     1       3.438   6.640  18.281  0.00  0.00    +0.000 S 
BRANCH  13  14
ATOM     14  C   UNL     1       2.121   5.440  17.917  0.00  0.00    +0.000 C 
BRANCH  14  15
ATOM     15  C   UNL     1       1.935   4.477  19.070  0.00  0.00    +0.000 A 
ATOM     16  C   UNL     1       1.306   3.236  18.874  0.00  0.00    +0.000 A 
ATOM     17  C   UNL     1       1.087   2.370  19.947  0.00  0.00    +0.000 A 
ATOM     18  C   UNL     1       1.491   2.729  21.231  0.00  0.00    +0.000 A 
ATOM     19  C   UNL     1       2.123   3.954  21.440  0.00  0.00    +0.000 A 
ATOM     20  C   UNL     1       2.343   4.823  20.369  0.00  0.00    +0.000 A 
ENDBRANCH  14  15
ENDBRANCH  13  14
ENDBRANCH   5  13
TORSDOF 5
ENDMDL
