MODEL 1
REMARK VINA RESULT:      -8.2      0.000      0.000
REMARK  Name = 
REMARK  12 active torsions:
REMARK  status: ('A' for Active; 'I' for Inactive)
REMARK    1  A    between atoms: C_1  and  O_2
REMARK    2  A    between atoms: O_2  and  C_3
REMARK    3  A    between atoms: C_6  and  C_7
REMARK    4  A    between atoms: C_17  and  C_18
REMARK    5  A    between atoms: C_20  and  C_21
REMARK    6  A    between atoms: C_21  and  C_22
REMARK    7  A    between atoms: C_22  and  O_23
REMARK    8  A    between atoms: C_22  and  O_25
REMARK    9  A    between atoms: O_23  and  C_24
REMARK   10  A    between atoms: O_25  and  C_26
REMARK   11  A    between atoms: C_31  and  C_32
REMARK   12  A    between atoms: C_32  and  O_33
REMARK                            x       y       z     vdW  Elec       q    Type
REMARK                         _______ _______ _______ _____ _____    ______ ____
ROOT
ATOM      1  C   UNL     1       1.502   9.595  18.691  0.00  0.00    +0.000 A 
ATOM      2  C   UNL     1       1.125   8.741  19.711  0.00  0.00    +0.000 A 
ATOM      3  C   UNL     1       1.744   7.512  19.783  0.00  0.00    +0.000 A 
ATOM      4  C   UNL     1       2.645   7.107  18.774  0.00  0.00    +0.000 A 
ATOM      5  C   UNL     1       3.211   5.828  18.659  0.00  0.00    +0.000 A 
ATOM      6  N   UNL     1       2.864   4.785  19.541  0.00  0.00    +0.000 N 
ATOM      7  C   UNL     1       1.420   4.417  19.446  0.00  0.00    +0.000 C 
ATOM      8  C   UNL     1       1.068   3.566  20.670  0.00  0.00    +0.000 C 
ATOM      9  O   UNL     1       1.808   2.340  20.640  0.00  0.00    +0.000 OA
ATOM     10  C   UNL     1       3.220   2.610  20.660  0.00  0.00    +0.000 C 
ATOM     11  C   UNL     1       3.686   3.530  19.493  0.00  0.00    +0.000 C 
ATOM     12  C   UNL     1       5.193   3.741  19.658  0.00  0.00    +0.000 C 
ATOM     13  N   UNL     1       4.089   5.568  17.685  0.00  0.00    +0.000 NA
ATOM     14  C   UNL     1       4.439   6.553  16.845  0.00  0.00    +0.000 A 
ATOM     15  N   UNL     1       3.886   7.770  16.848  0.00  0.00    +0.000 NA
ATOM     16  C   UNL     1       2.998   8.036  17.792  0.00  0.00    +0.000 A 
ATOM     17  N   UNL     1       2.429   9.244  17.763  0.00  0.00    +0.000 NA
ENDROOT
BRANCH   1  21
ATOM     18  C   UNL     1       0.061  13.630  18.748  0.00  0.00    +0.000 A 
ATOM     19  C   UNL     1      -0.835  12.567  18.691  0.00  0.00    +0.000 A 
ATOM     20  C   UNL     1      -0.370  11.252  18.637  0.00  0.00    +0.000 A 
ATOM     21  C   UNL     1       1.005  10.977  18.598  0.00  0.00    +0.000 A 
ATOM     22  C   UNL     1       1.890  12.064  18.532  0.00  0.00    +0.000 A 
ATOM     23  C   UNL     1       1.436  13.394  18.594  0.00  0.00    +0.000 A 
BRANCH  18  25
ATOM     24  C   UNL     1      -1.095  15.090  20.181  0.00  0.00    +0.000 C 
ATOM     25  O   UNL     1      -0.352  14.915  18.970  0.00  0.00    +0.000 OA
ENDBRANCH  18  25
BRANCH  23  26
ATOM     26  C   UNL     1       2.447  14.507  18.497  0.00  0.00    +0.000 C 
BRANCH  26  27
ATOM     27  O   UNL     1       3.413  14.231  17.489  0.00  0.00    +0.000 OA
ATOM     28  H   UNL     1       3.070  14.617  16.666  0.00  0.00    +0.000 HD
ENDBRANCH  26  27
ENDBRANCH  23  26
ENDBRANCH   1  21
BRANCH  14  29
ATOM     29  C   UNL     1       5.275   6.143  15.671  0.00  0.00    +0.000 C 
BRANCH  29  30
ATOM     30  C   UNL     1       6.672   5.592  15.963  0.00  0.00    +0.000 C 
BRANCH  30  31
ATOM     31  O   UNL     1       7.286   5.202  14.722  0.00  0.00    +0.000 OA
ATOM     32  C   UNL     1       6.499   4.267  13.994  0.00  0.00    +0.000 C 
ENDBRANCH  30  31
BRANCH  30  33
ATOM     33  O   UNL     1       7.493   6.626  16.541  0.00  0.00    +0.000 OA
ATOM     34  C   UNL     1       7.632   6.559  17.950  0.00  0.00    +0.000 C 
ENDBRANCH  30  33
ENDBRANCH  29  30
ENDBRANCH  14  29
TORSDOF 8
ENDMDL
MODEL 2
REMARK VINA RESULT:      -8.0      0.895      1.743
REMARK  Name = 
REMARK  12 active torsions:
REMARK  status: ('A' for Active; 'I' for Inactive)
REMARK    1  A    between atoms: C_1  and  O_2
REMARK    2  A    between atoms: O_2  and  C_3
REMARK    3  A    between atoms: C_6  and  C_7
REMARK    4  A    between atoms: C_17  and  C_18
REMARK    5  A    between atoms: C_20  and  C_21
REMARK    6  A    between atoms: C_21  and  C_22
REMARK    7  A    between atoms: C_22  and  O_23
REMARK    8  A    between atoms: C_22  and  O_25
REMARK    9  A    between atoms: O_23  and  C_24
REMARK   10  A    between atoms: O_25  and  C_26
REMARK   11  A    between atoms: C_31  and  C_32
REMARK   12  A    between atoms: C_32  and  O_33
REMARK                            x       y       z     vdW  Elec       q    Type
REMARK                         _______ _______ _______ _____ _____    ______ ____
ROOT
ATOM      1  C   UNL     1       1.556   9.470  19.082  0.00  0.00    +0.000 A 
ATOM      2  C   UNL     1       1.188   8.566  20.061  0.00  0.00    +0.000 A 
ATOM      3  C   UNL     1       1.791   7.327  20.053  0.00  0.00    +0.000 A 
ATOM      4  C   UNL     1       2.666   6.967  19.005  0.00  0.00    +0.000 A 
ATOM      5  C   UNL     1       3.212   5.689  18.808  0.00  0.00    +0.000 A 
ATOM      6  N   UNL     1       2.868   4.604  19.639  0.00  0.00    +0.000 N 
ATOM      7  C   UNL     1       1.418   4.259  19.553  0.00  0.00    +0.000 C 
ATOM      8  C   UNL     1       1.079   3.347  20.736  0.00  0.00    +0.000 C 
ATOM      9  O   UNL     1       1.801   2.116  20.623  0.00  0.00    +0.000 OA
ATOM     10  C   UNL     1       3.217   2.366  20.630  0.00  0.00    +0.000 C 
ATOM     11  C   UNL     1       3.672   3.343  19.505  0.00  0.00    +0.000 C 
ATOM     12  C   UNL     1       5.185   3.525  19.650  0.00  0.00    +0.000 C 
ATOM     13  N   UNL     1       4.067   5.472  17.804  0.00  0.00    +0.000 NA
ATOM     14  C   UNL     1       4.414   6.498  17.012  0.00  0.00    +0.000 A 
ATOM     15  N   UNL     1       3.878   7.719  17.093  0.00  0.00    +0.000 NA
ATOM     16  C   UNL     1       3.013   7.944  18.068  0.00  0.00    +0.000 A 
ATOM     17  N   UNL     1       2.460   9.158  18.117  0.00  0.00    +0.000 NA
ENDROOT
BRANCH   1  21
ATOM     18  C   UNL     1       0.033  13.463  18.766  0.00  0.00    +0.000 A 
ATOM     19  C   UNL     1       1.339  13.178  18.379  0.00  0.00    +0.000 A 
ATOM     20  C   UNL     1       1.851  11.887  18.512  0.00  0.00    +0.000 A 
ATOM     21  C   UNL     1       1.077  10.861  19.076  0.00  0.00    +0.000 A 
ATOM     22  C   UNL     1      -0.192  11.195  19.572  0.00  0.00    +0.000 A 
ATOM     23  C   UNL     1      -0.725  12.490  19.438  0.00  0.00    +0.000 A 
BRANCH  18  25
ATOM     24  C   UNL     1       0.071  15.782  19.140  0.00  0.00    +0.000 C 
ATOM     25  O   UNL     1      -0.556  14.667  18.498  0.00  0.00    +0.000 OA
ENDBRANCH  18  25
BRANCH  23  26
ATOM     26  C   UNL     1      -2.086  12.774  20.016  0.00  0.00    +0.000 C 
BRANCH  26  27
ATOM     27  O   UNL     1      -3.084  12.759  19.002  0.00  0.00    +0.000 OA
ATOM     28  H   UNL     1      -3.919  12.524  19.440  0.00  0.00    +0.000 HD
ENDBRANCH  26  27
ENDBRANCH  23  26
ENDBRANCH   1  21
BRANCH  14  29
ATOM     29  C   UNL     1       5.220   6.142  15.801  0.00  0.00    +0.000 C 
BRANCH  29  30
ATOM     30  C   UNL     1       6.630   5.595  16.032  0.00  0.00    +0.000 C 
BRANCH  30  31
ATOM     31  O   UNL     1       7.233   5.308  14.758  0.00  0.00    +0.000 OA
ATOM     32  C   UNL     1       6.522   4.315  14.029  0.00  0.00    +0.000 C 
ENDBRANCH  30  31
BRANCH  30  33
ATOM     33  O   UNL     1       7.443   6.597  16.675  0.00  0.00    +0.000 OA
ATOM     34  C   UNL     1       7.666   6.387  18.059  0.00  0.00    +0.000 C 
ENDBRANCH  30  33
ENDBRANCH  29  30
ENDBRANCH  14  29
TORSDOF 8
ENDMDL
MODEL 3
REMARK VINA RESULT:      -8.0      2.085      4.845
REMARK  Name = 
REMARK  12 active torsions:
REMARK  status: ('A' for Active; 'I' for Inactive)
REMARK    1  A    between atoms: C_1  and  O_2
REMARK    2  A    between atoms: O_2  and  C_3
REMARK    3  A    between atoms: C_6  and  C_7
REMARK    4  A    between atoms: C_17  and  C_18
REMARK    5  A    between atoms: C_20  and  C_21
REMARK    6  A    between atoms: C_21  and  C_22
REMARK    7  A    between atoms: C_22  and  O_23
REMARK    8  A    between atoms: C_22  and  O_25
REMARK    9  A    between atoms: O_23  and  C_24
REMARK   10  A    between atoms: O_25  and  C_26
REMARK   11  A    between atoms: C_31  and  C_32
REMARK   12  A    between atoms: C_32  and  O_33
REMARK                            x       y       z     vdW  Elec       q    Type
REMARK                         _______ _______ _______ _____ _____    ______ ____
ROOT
ATOM      1  C   UNL     1       1.128   9.571  19.282  0.00  0.00    +0.000 A 
ATOM      2  C   UNL     1       1.791   9.552  18.068  0.00  0.00    +0.000 A 
ATOM      3  C   UNL     1       2.421   8.384  17.697  0.00  0.00    +0.000 A 
ATOM      4  C   UNL     1       2.479   7.291  18.589  0.00  0.00    +0.000 A 
ATOM      5  C   UNL     1       3.221   6.117  18.384  0.00  0.00    +0.000 A 
ATOM      6  N   UNL     1       4.049   5.955  17.256  0.00  0.00    +0.000 N 
ATOM      7  C   UNL     1       5.162   6.950  17.221  0.00  0.00    +0.000 C 
ATOM      8  C   UNL     1       5.762   6.937  15.811  0.00  0.00    +0.000 C 
ATOM      9  O   UNL     1       6.346   5.657  15.543  0.00  0.00    +0.000 OA
ATOM     10  C   UNL     1       5.347   4.627  15.624  0.00  0.00    +0.000 C 
ATOM     11  C   UNL     1       4.616   4.589  16.999  0.00  0.00    +0.000 C 
ATOM     12  C   UNL     1       3.579   3.465  16.927  0.00  0.00    +0.000 C 
ATOM     13  N   UNL     1       3.166   5.125  19.278  0.00  0.00    +0.000 NA
ATOM     14  C   UNL     1       2.372   5.258  20.351  0.00  0.00    +0.000 A 
ATOM     15  N   UNL     1       1.698   6.373  20.648  0.00  0.00    +0.000 NA
ATOM     16  C   UNL     1       1.760   7.374  19.784  0.00  0.00    +0.000 A 
ATOM     17  N   UNL     1       1.110   8.494  20.110  0.00  0.00    +0.000 NA
ENDROOT
BRANCH   1  21
ATOM     18  C   UNL     1      -1.511  12.715  20.512  0.00  0.00    +0.000 A 
ATOM     19  C   UNL     1      -1.129  12.601  19.178  0.00  0.00    +0.000 A 
ATOM     20  C   UNL     1      -0.243  11.600  18.778  0.00  0.00    +0.000 A 
ATOM     21  C   UNL     1       0.313  10.716  19.715  0.00  0.00    +0.000 A 
ATOM     22  C   UNL     1       0.014  10.924  21.070  0.00  0.00    +0.000 A 
ATOM     23  C   UNL     1      -0.885  11.923  21.487  0.00  0.00    +0.000 A 
BRANCH  18  25
ATOM     24  C   UNL     1      -3.807  13.207  20.458  0.00  0.00    +0.000 C 
ATOM     25  O   UNL     1      -2.499  13.570  20.912  0.00  0.00    +0.000 OA
ENDBRANCH  18  25
BRANCH  23  26
ATOM     26  C   UNL     1      -1.138  12.096  22.962  0.00  0.00    +0.000 C 
BRANCH  26  27
ATOM     27  O   UNL     1      -2.466  11.714  23.299  0.00  0.00    +0.000 OA
ATOM     28  H   UNL     1      -2.772  11.127  22.587  0.00  0.00    +0.000 HD
ENDBRANCH  26  27
ENDBRANCH  23  26
ENDBRANCH   1  21
BRANCH  14  29
ATOM     29  C   UNL     1       2.507   4.196  21.398  0.00  0.00    +0.000 C 
BRANCH  29  30
ATOM     30  C   UNL     1       1.929   2.817  21.078  0.00  0.00    +0.000 C 
BRANCH  30  31
ATOM     31  O   UNL     1       0.709   2.984  20.335  0.00  0.00    +0.000 OA
ATOM     32  C   UNL     1       0.749   2.339  19.067  0.00  0.00    +0.000 C 
ENDBRANCH  30  31
BRANCH  30  33
ATOM     33  O   UNL     1       2.845   2.086  20.238  0.00  0.00    +0.000 OA
ATOM     34  C   UNL     1       4.203   2.148  20.641  0.00  0.00    +0.000 C 
ENDBRANCH  30  33
ENDBRANCH  29  30
ENDBRANCH  14  29
TORSDOF 8
ENDMDL
MODEL 4
REMARK VINA RESULT:      -7.9      1.854      4.686
REMARK  Name = 
REMARK  12 active torsions:
REMARK  status: ('A' for Active; 'I' for Inactive)
REMARK    1  A    between atoms: C_1  and  O_2
REMARK    2  A    between atoms: O_2  and  C_3
REMARK    3  A    between atoms: C_6  and  C_7
REMARK    4  A    between atoms: C_17  and  C_18
REMARK    5  A    between atoms: C_20  and  C_21
REMARK    6  A    between atoms: C_21  and  C_22
REMARK    7  A    between atoms: C_22  and  O_23
REMARK    8  A    between atoms: C_22  and  O_25
REMARK    9  A    between atoms: O_23  and  C_24
REMARK   10  A    between atoms: O_25  and  C_26
REMARK   11  A    between atoms: C_31  and  C_32
REMARK   12  A    between atoms: C_32  and  O_33
REMARK                            x       y       z     vdW  Elec       q    Type
REMARK                         _______ _______ _______ _____ _____    ______ ____
ROOT
ATOM      1  C   UNL     1       1.252   9.590  19.225  0.00  0.00    +0.000 A 
ATOM      2  C   UNL     1       1.923   9.549  18.016  0.00  0.00    +0.000 A 
ATOM      3  C   UNL     1       2.531   8.366  17.658  0.00  0.00    +0.000 A 
ATOM      4  C   UNL     1       2.561   7.278  18.558  0.00  0.00    +0.000 A 
ATOM      5  C   UNL     1       3.280   6.088  18.367  0.00  0.00    +0.000 A 
ATOM      6  N   UNL     1       4.113   5.901  17.246  0.00  0.00    +0.000 N 
ATOM      7  C   UNL     1       5.246   6.872  17.211  0.00  0.00    +0.000 C 
ATOM      8  C   UNL     1       5.856   6.837  15.806  0.00  0.00    +0.000 C 
ATOM      9  O   UNL     1       6.415   5.544  15.552  0.00  0.00    +0.000 OA
ATOM     10  C   UNL     1       5.394   4.534  15.633  0.00  0.00    +0.000 C 
ATOM     11  C   UNL     1       4.653   4.521  17.003  0.00  0.00    +0.000 C 
ATOM     12  C   UNL     1       3.595   3.418  16.933  0.00  0.00    +0.000 C 
ATOM     13  N   UNL     1       3.199   5.104  19.268  0.00  0.00    +0.000 NA
ATOM     14  C   UNL     1       2.401   5.261  20.334  0.00  0.00    +0.000 A 
ATOM     15  N   UNL     1       1.748   6.392  20.618  0.00  0.00    +0.000 NA
ATOM     16  C   UNL     1       1.836   7.385  19.748  0.00  0.00    +0.000 A 
ATOM     17  N   UNL     1       1.207   8.520  20.060  0.00  0.00    +0.000 NA
ENDROOT
BRANCH   1  21
ATOM     18  C   UNL     1      -0.965  13.133  20.171  0.00  0.00    +0.000 A 
ATOM     19  C   UNL     1       0.325  12.961  20.664  0.00  0.00    +0.000 A 
ATOM     20  C   UNL     1       1.039  11.794  20.387  0.00  0.00    +0.000 A 
ATOM     21  C   UNL     1       0.457  10.755  19.644  0.00  0.00    +0.000 A 
ATOM     22  C   UNL     1      -0.885  10.895  19.261  0.00  0.00    +0.000 A 
ATOM     23  C   UNL     1      -1.614  12.068  19.525  0.00  0.00    +0.000 A 
BRANCH  18  25
ATOM     24  C   UNL     1      -0.805  15.474  20.066  0.00  0.00    +0.000 C 
ATOM     25  O   UNL     1      -1.629  14.323  20.278  0.00  0.00    +0.000 OA
ENDBRANCH  18  25
BRANCH  23  26
ATOM     26  C   UNL     1      -3.058  12.133  19.099  0.00  0.00    +0.000 C 
BRANCH  26  27
ATOM     27  O   UNL     1      -3.175  12.062  17.684  0.00  0.00    +0.000 OA
ATOM     28  H   UNL     1      -2.271  11.967  17.337  0.00  0.00    +0.000 HD
ENDBRANCH  26  27
ENDBRANCH  23  26
ENDBRANCH   1  21
BRANCH  14  29
ATOM     29  C   UNL     1       2.507   4.204  21.390  0.00  0.00    +0.000 C 
BRANCH  29  30
ATOM     30  C   UNL     1       1.987   2.809  21.042  0.00  0.00    +0.000 C 
BRANCH  30  31
ATOM     31  O   UNL     1       0.740   2.939  20.338  0.00  0.00    +0.000 OA
ATOM     32  C   UNL     1       0.785   2.367  19.036  0.00  0.00    +0.000 C 
ENDBRANCH  30  31
BRANCH  30  33
ATOM     33  O   UNL     1       2.912   2.150  20.154  0.00  0.00    +0.000 OA
ATOM     34  C   UNL     1       4.252   2.104  20.616  0.00  0.00    +0.000 C 
ENDBRANCH  30  33
ENDBRANCH  29  30
ENDBRANCH  14  29
TORSDOF 8
ENDMDL
MODEL 5
REMARK VINA RESULT:      -7.8      1.600      4.450
REMARK  Name = 
REMARK  12 active torsions:
REMARK  status: ('A' for Active; 'I' for Inactive)
REMARK    1  A    between atoms: C_1  and  O_2
REMARK    2  A    between atoms: O_2  and  C_3
REMARK    3  A    between atoms: C_6  and  C_7
REMARK    4  A    between atoms: C_17  and  C_18
REMARK    5  A    between atoms: C_20  and  C_21
REMARK    6  A    between atoms: C_21  and  C_22
REMARK    7  A    between atoms: C_22  and  O_23
REMARK    8  A    between atoms: C_22  and  O_25
REMARK    9  A    between atoms: O_23  and  C_24
REMARK   10  A    between atoms: O_25  and  C_26
REMARK   11  A    between atoms: C_31  and  C_32
REMARK   12  A    between atoms: C_32  and  O_33
REMARK                            x       y       z     vdW  Elec       q    Type
REMARK                         _______ _______ _______ _____ _____    ______ ____
ROOT
ATOM      1  C   UNL     1       1.278   9.632  19.164  0.00  0.00    +0.000 A 
ATOM      2  C   UNL     1       1.946   9.567  17.954  0.00  0.00    +0.000 A 
ATOM      3  C   UNL     1       2.539   8.373  17.610  0.00  0.00    +0.000 A 
ATOM      4  C   UNL     1       2.557   7.296  18.523  0.00  0.00    +0.000 A 
ATOM      5  C   UNL     1       3.262   6.095  18.346  0.00  0.00    +0.000 A 
ATOM      6  N   UNL     1       4.090   5.884  17.226  0.00  0.00    +0.000 N 
ATOM      7  C   UNL     1       5.235   6.841  17.177  0.00  0.00    +0.000 C 
ATOM      8  C   UNL     1       5.841   6.781  15.771  0.00  0.00    +0.000 C 
ATOM      9  O   UNL     1       6.384   5.478  15.531  0.00  0.00    +0.000 OA
ATOM     10  C   UNL     1       5.352   4.482  15.627  0.00  0.00    +0.000 C 
ATOM     11  C   UNL     1       4.613   4.495  16.999  0.00  0.00    +0.000 C 
ATOM     12  C   UNL     1       3.541   3.404  16.943  0.00  0.00    +0.000 C 
ATOM     13  N   UNL     1       3.171   5.123  19.259  0.00  0.00    +0.000 NA
ATOM     14  C   UNL     1       2.376   5.303  20.324  0.00  0.00    +0.000 A 
ATOM     15  N   UNL     1       1.738   6.445  20.596  0.00  0.00    +0.000 NA
ATOM     16  C   UNL     1       1.836   7.426  19.713  0.00  0.00    +0.000 A 
ATOM     17  N   UNL     1       1.221   8.573  20.012  0.00  0.00    +0.000 NA
ENDROOT
BRANCH   1  21
ATOM     18  C   UNL     1      -0.779  13.109  20.592  0.00  0.00    +0.000 A 
ATOM     19  C   UNL     1      -1.174  11.841  21.008  0.00  0.00    +0.000 A 
ATOM     20  C   UNL     1      -0.529  10.703  20.520  0.00  0.00    +0.000 A 
ATOM     21  C   UNL     1       0.498  10.812  19.570  0.00  0.00    +0.000 A 
ATOM     22  C   UNL     1       0.798  12.088  19.071  0.00  0.00    +0.000 A 
ATOM     23  C   UNL     1       0.164  13.244  19.561  0.00  0.00    +0.000 A 
BRANCH  18  25
ATOM     24  C   UNL     1      -2.280  14.013  22.157  0.00  0.00    +0.000 C 
ATOM     25  O   UNL     1      -1.269  14.246  21.171  0.00  0.00    +0.000 OA
ENDBRANCH  18  25
BRANCH  23  26
ATOM     26  C   UNL     1       0.527  14.577  18.959  0.00  0.00    +0.000 C 
BRANCH  26  27
ATOM     27  O   UNL     1      -0.637  15.285  18.550  0.00  0.00    +0.000 OA
ATOM     28  H   UNL     1      -0.661  15.239  17.579  0.00  0.00    +0.000 HD
ENDBRANCH  26  27
ENDBRANCH  23  26
ENDBRANCH   1  21
BRANCH  14  29
ATOM     29  C   UNL     1       2.472   4.258  21.393  0.00  0.00    +0.000 C 
BRANCH  29  30
ATOM     30  C   UNL     1       1.966   2.856  21.050  0.00  0.00    +0.000 C 
BRANCH  30  31
ATOM     31  O   UNL     1       0.708   2.969  20.363  0.00  0.00    +0.000 OA
ATOM     32  C   UNL     1       0.749   2.409  19.055  0.00  0.00    +0.000 C 
ENDBRANCH  30  31
BRANCH  30  33
ATOM     33  O   UNL     1       2.890   2.210  20.151  0.00  0.00    +0.000 OA
ATOM     34  C   UNL     1       4.219   2.107  20.633  0.00  0.00    +0.000 C 
ENDBRANCH  30  33
ENDBRANCH  29  30
ENDBRANCH  14  29
TORSDOF 8
ENDMDL
MODEL 6
REMARK VINA RESULT:      -7.8      1.486      1.845
REMARK  Name = 
REMARK  12 active torsions:
REMARK  status: ('A' for Active; 'I' for Inactive)
REMARK    1  A    between atoms: C_1  and  O_2
REMARK    2  A    between atoms: O_2  and  C_3
REMARK    3  A    between atoms: C_6  and  C_7
REMARK    4  A    between atoms: C_17  and  C_18
REMARK    5  A    between atoms: C_20  and  C_21
REMARK    6  A    between atoms: C_21  and  C_22
REMARK    7  A    between atoms: C_22  and  O_23
REMARK    8  A    between atoms: C_22  and  O_25
REMARK    9  A    between atoms: O_23  and  C_24
REMARK   10  A    between atoms: O_25  and  C_26
REMARK   11  A    between atoms: C_31  and  C_32
REMARK   12  A    between atoms: C_32  and  O_33
REMARK                            x       y       z     vdW  Elec       q    Type
REMARK                         _______ _______ _______ _____ _____    ______ ____
ROOT
ATOM      1  C   UNL     1       0.779   9.305  20.338  0.00  0.00    +0.000 A 
ATOM      2  C   UNL     1       0.623   8.227  21.191  0.00  0.00    +0.000 A 
ATOM      3  C   UNL     1       1.358   7.091  20.934  0.00  0.00    +0.000 A 
ATOM      4  C   UNL     1       2.151   7.003  19.768  0.00  0.00    +0.000 A 
ATOM      5  C   UNL     1       2.813   5.848  19.325  0.00  0.00    +0.000 A 
ATOM      6  N   UNL     1       2.686   4.618  20.002  0.00  0.00    +0.000 N 
ATOM      7  C   UNL     1       1.284   4.107  19.992  0.00  0.00    +0.000 C 
ATOM      8  C   UNL     1       1.179   2.996  21.041  0.00  0.00    +0.000 C 
ATOM      9  O   UNL     1       2.020   1.897  20.672  0.00  0.00    +0.000 OA
ATOM     10  C   UNL     1       3.391   2.324  20.592  0.00  0.00    +0.000 C 
ATOM     11  C   UNL     1       3.608   3.504  19.600  0.00  0.00    +0.000 C 
ATOM     12  C   UNL     1       5.098   3.855  19.637  0.00  0.00    +0.000 C 
ATOM     13  N   UNL     1       3.575   5.891  18.227  0.00  0.00    +0.000 NA
ATOM     14  C   UNL     1       3.716   7.057  17.579  0.00  0.00    +0.000 A 
ATOM     15  N   UNL     1       3.058   8.175  17.899  0.00  0.00    +0.000 NA
ATOM     16  C   UNL     1       2.282   8.143  18.971  0.00  0.00    +0.000 A 
ATOM     17  N   UNL     1       1.603   9.255  19.259  0.00  0.00    +0.000 NA
ENDROOT
BRANCH   1  21
ATOM     18  C   UNL     1      -0.763  13.218  21.154  0.00  0.00    +0.000 A 
ATOM     19  C   UNL     1      -0.750  12.248  22.152  0.00  0.00    +0.000 A 
ATOM     20  C   UNL     1      -0.280  10.961  21.882  0.00  0.00    +0.000 A 
ATOM     21  C   UNL     1       0.147  10.609  20.593  0.00  0.00    +0.000 A 
ATOM     22  C   UNL     1       0.011  11.562  19.573  0.00  0.00    +0.000 A 
ATOM     23  C   UNL     1      -0.452  12.865  19.832  0.00  0.00    +0.000 A 
BRANCH  18  25
ATOM     24  C   UNL     1      -2.301  14.723  22.099  0.00  0.00    +0.000 C 
ATOM     25  O   UNL     1      -1.056  14.527  21.421  0.00  0.00    +0.000 OA
ENDBRANCH  18  25
BRANCH  23  26
ATOM     26  C   UNL     1      -0.589  13.825  18.679  0.00  0.00    +0.000 C 
BRANCH  26  27
ATOM     27  O   UNL     1      -0.923  13.136  17.480  0.00  0.00    +0.000 OA
ATOM     28  H   UNL     1      -1.324  12.292  17.750  0.00  0.00    +0.000 HD
ENDBRANCH  26  27
ENDBRANCH  23  26
ENDBRANCH   1  21
BRANCH  14  29
ATOM     29  C   UNL     1       4.423   6.988  16.260  0.00  0.00    +0.000 C 
BRANCH  29  30
ATOM     30  C   UNL     1       5.720   6.179  16.200  0.00  0.00    +0.000 C 
BRANCH  30  31
ATOM     31  O   UNL     1       5.987   5.828  14.832  0.00  0.00    +0.000 OA
ATOM     32  C   UNL     1       6.290   4.447  14.671  0.00  0.00    +0.000 C 
ENDBRANCH  30  31
BRANCH  30  33
ATOM     33  O   UNL     1       6.822   6.988  16.658  0.00  0.00    +0.000 OA
ATOM     34  C   UNL     1       7.417   6.556  17.870  0.00  0.00    +0.000 C 
ENDBRANCH  30  33
ENDBRANCH  29  30
ENDBRANCH  14  29
TORSDOF 8
ENDMDL
MODEL 7
REMARK VINA RESULT:      -7.8      1.692      2.221
REMARK  Name = 
REMARK  12 active torsions:
REMARK  status: ('A' for Active; 'I' for Inactive)
REMARK    1  A    between atoms: C_1  and  O_2
REMARK    2  A    between atoms: O_2  and  C_3
REMARK    3  A    between atoms: C_6  and  C_7
REMARK    4  A    between atoms: C_17  and  C_18
REMARK    5  A    between atoms: C_20  and  C_21
REMARK    6  A    between atoms: C_21  and  C_22
REMARK    7  A    between atoms: C_22  and  O_23
REMARK    8  A    between atoms: C_22  and  O_25
REMARK    9  A    between atoms: O_23  and  C_24
REMARK   10  A    between atoms: O_25  and  C_26
REMARK   11  A    between atoms: C_31  and  C_32
REMARK   12  A    between atoms: C_32  and  O_33
REMARK                            x       y       z     vdW  Elec       q    Type
REMARK                         _______ _______ _______ _____ _____    ______ ____
ROOT
ATOM      1  C   UNL     1       0.825   9.479  20.120  0.00  0.00    +0.000 A 
ATOM      2  C   UNL     1       0.653   8.442  21.019  0.00  0.00    +0.000 A 
ATOM      3  C   UNL     1       1.379   7.289  20.818  0.00  0.00    +0.000 A 
ATOM      4  C   UNL     1       2.179   7.142  19.664  0.00  0.00    +0.000 A 
ATOM      5  C   UNL     1       2.834   5.962  19.277  0.00  0.00    +0.000 A 
ATOM      6  N   UNL     1       2.691   4.765  20.007  0.00  0.00    +0.000 N 
ATOM      7  C   UNL     1       1.283   4.266  20.009  0.00  0.00    +0.000 C 
ATOM      8  C   UNL     1       1.161   3.204  21.106  0.00  0.00    +0.000 C 
ATOM      9  O   UNL     1       1.994   2.082  20.792  0.00  0.00    +0.000 OA
ATOM     10  C   UNL     1       3.369   2.493  20.704  0.00  0.00    +0.000 C 
ATOM     11  C   UNL     1       3.605   3.626  19.661  0.00  0.00    +0.000 C 
ATOM     12  C   UNL     1       5.098   3.965  19.695  0.00  0.00    +0.000 C 
ATOM     13  N   UNL     1       3.604   5.950  18.184  0.00  0.00    +0.000 NA
ATOM     14  C   UNL     1       3.761   7.085  17.487  0.00  0.00    +0.000 A 
ATOM     15  N   UNL     1       3.111   8.221  17.751  0.00  0.00    +0.000 NA
ATOM     16  C   UNL     1       2.327   8.244  18.817  0.00  0.00    +0.000 A 
ATOM     17  N   UNL     1       1.657   9.374  19.051  0.00  0.00    +0.000 NA
ENDROOT
BRANCH   1  21
ATOM     18  C   UNL     1      -1.275  13.179  20.628  0.00  0.00    +0.000 A 
ATOM     19  C   UNL     1      -0.758  12.831  19.384  0.00  0.00    +0.000 A 
ATOM     20  C   UNL     1      -0.044  11.644  19.220  0.00  0.00    +0.000 A 
ATOM     21  C   UNL     1       0.204  10.798  20.313  0.00  0.00    +0.000 A 
ATOM     22  C   UNL     1      -0.218  11.225  21.581  0.00  0.00    +0.000 A 
ATOM     23  C   UNL     1      -0.947  12.415  21.759  0.00  0.00    +0.000 A 
BRANCH  18  25
ATOM     24  C   UNL     1      -1.567  15.497  20.375  0.00  0.00    +0.000 C 
ATOM     25  O   UNL     1      -2.118  14.243  20.791  0.00  0.00    +0.000 OA
ENDBRANCH  18  25
BRANCH  23  26
ATOM     26  C   UNL     1      -1.346  12.815  23.156  0.00  0.00    +0.000 C 
BRANCH  26  27
ATOM     27  O   UNL     1      -0.743  14.049  23.524  0.00  0.00    +0.000 OA
ATOM     28  H   UNL     1      -0.287  13.892  24.368  0.00  0.00    +0.000 HD
ENDBRANCH  26  27
ENDBRANCH  23  26
ENDBRANCH   1  21
BRANCH  14  29
ATOM     29  C   UNL     1       4.477   6.951  16.177  0.00  0.00    +0.000 C 
BRANCH  29  30
ATOM     30  C   UNL     1       5.782   6.153  16.169  0.00  0.00    +0.000 C 
BRANCH  30  31
ATOM     31  O   UNL     1       6.098   5.790  14.814  0.00  0.00    +0.000 OA
ATOM     32  C   UNL     1       6.671   4.491  14.717  0.00  0.00    +0.000 C 
ENDBRANCH  30  31
BRANCH  30  33
ATOM     33  O   UNL     1       6.861   6.977  16.654  0.00  0.00    +0.000 OA
ATOM     34  C   UNL     1       7.443   6.544  17.872  0.00  0.00    +0.000 C 
ENDBRANCH  30  33
ENDBRANCH  29  30
ENDBRANCH  14  29
TORSDOF 8
ENDMDL
MODEL 8
REMARK VINA RESULT:      -7.6      0.478      1.220
REMARK  Name = 
REMARK  12 active torsions:
REMARK  status: ('A' for Active; 'I' for Inactive)
REMARK    1  A    between atoms: C_1  and  O_2
REMARK    2  A    between atoms: O_2  and  C_3
REMARK    3  A    between atoms: C_6  and  C_7
REMARK    4  A    between atoms: C_17  and  C_18
REMARK    5  A    between atoms: C_20  and  C_21
REMARK    6  A    between atoms: C_21  and  C_22
REMARK    7  A    between atoms: C_22  and  O_23
REMARK    8  A    between atoms: C_22  and  O_25
REMARK    9  A    between atoms: O_23  and  C_24
REMARK   10  A    between atoms: O_25  and  C_26
REMARK   11  A    between atoms: C_31  and  C_32
REMARK   12  A    between atoms: C_32  and  O_33
REMARK                            x       y       z     vdW  Elec       q    Type
REMARK                         _______ _______ _______ _____ _____    ______ ____
ROOT
ATOM      1  C   UNL     1       1.567   9.438  18.717  0.00  0.00    +0.000 A 
ATOM      2  C   UNL     1       1.183   8.626  19.769  0.00  0.00    +0.000 A 
ATOM      3  C   UNL     1       1.773   7.386  19.872  0.00  0.00    +0.000 A 
ATOM      4  C   UNL     1       2.650   6.926  18.865  0.00  0.00    +0.000 A 
ATOM      5  C   UNL     1       3.183   5.631  18.784  0.00  0.00    +0.000 A 
ATOM      6  N   UNL     1       2.823   4.625  19.704  0.00  0.00    +0.000 N 
ATOM      7  C   UNL     1       1.369   4.290  19.638  0.00  0.00    +0.000 C 
ATOM      8  C   UNL     1       1.013   3.487  20.894  0.00  0.00    +0.000 C 
ATOM      9  O   UNL     1       1.723   2.243  20.893  0.00  0.00    +0.000 OA
ATOM     10  C   UNL     1       3.141   2.479  20.887  0.00  0.00    +0.000 C 
ATOM     11  C   UNL     1       3.614   3.350  19.685  0.00  0.00    +0.000 C 
ATOM     12  C   UNL     1       5.127   3.528  19.825  0.00  0.00    +0.000 C 
ATOM     13  N   UNL     1       4.042   5.319  17.808  0.00  0.00    +0.000 NA
ATOM     14  C   UNL     1       4.404   6.268  16.933  0.00  0.00    +0.000 A 
ATOM     15  N   UNL     1       3.882   7.497  16.903  0.00  0.00    +0.000 NA
ATOM     16  C   UNL     1       3.013   7.815  17.850  0.00  0.00    +0.000 A 
ATOM     17  N   UNL     1       2.473   9.034  17.789  0.00  0.00    +0.000 NA
ENDROOT
BRANCH   1  21
ATOM     18  C   UNL     1       0.194  13.497  18.664  0.00  0.00    +0.000 A 
ATOM     19  C   UNL     1      -0.712  12.448  18.531  0.00  0.00    +0.000 A 
ATOM     20  C   UNL     1      -0.267  11.126  18.513  0.00  0.00    +0.000 A 
ATOM     21  C   UNL     1       1.103  10.828  18.587  0.00  0.00    +0.000 A 
ATOM     22  C   UNL     1       2.007  11.900  18.595  0.00  0.00    +0.000 A 
ATOM     23  C   UNL     1       1.573  13.238  18.623  0.00  0.00    +0.000 A 
BRANCH  18  25
ATOM     24  C   UNL     1      -0.752  15.047  20.154  0.00  0.00    +0.000 C 
ATOM     25  O   UNL     1      -0.215  14.788  18.853  0.00  0.00    +0.000 OA
ENDBRANCH  18  25
BRANCH  23  26
ATOM     26  C   UNL     1       2.607  14.333  18.610  0.00  0.00    +0.000 C 
BRANCH  26  27
ATOM     27  O   UNL     1       3.506  14.172  17.520  0.00  0.00    +0.000 OA
ATOM     28  H   UNL     1       4.308  14.673  17.748  0.00  0.00    +0.000 HD
ENDBRANCH  26  27
ENDBRANCH  23  26
ENDBRANCH   1  21
BRANCH  14  29
ATOM     29  C   UNL     1       5.214   5.800  15.762  0.00  0.00    +0.000 C 
BRANCH  29  30
ATOM     30  C   UNL     1       6.735   5.920  15.868  0.00  0.00    +0.000 C 
BRANCH  30  31
ATOM     31  O   UNL     1       7.114   5.832  17.253  0.00  0.00    +0.000 OA
ATOM     32  C   UNL     1       7.661   4.563  17.589  0.00  0.00    +0.000 C 
ENDBRANCH  30  31
BRANCH  30  33
ATOM     33  O   UNL     1       7.361   4.817  15.182  0.00  0.00    +0.000 OA
ATOM     34  C   UNL     1       6.618   4.291  14.095  0.00  0.00    +0.000 C 
ENDBRANCH  30  33
ENDBRANCH  29  30
ENDBRANCH  14  29
TORSDOF 8
ENDMDL
MODEL 9
REMARK VINA RESULT:      -7.6      1.839      4.505
REMARK  Name = 
REMARK  12 active torsions:
REMARK  status: ('A' for Active; 'I' for Inactive)
REMARK    1  A    between atoms: C_1  and  O_2
REMARK    2  A    between atoms: O_2  and  C_3
REMARK    3  A    between atoms: C_6  and  C_7
REMARK    4  A    between atoms: C_17  and  C_18
REMARK    5  A    between atoms: C_20  and  C_21
REMARK    6  A    between atoms: C_21  and  C_22
REMARK    7  A    between atoms: C_22  and  O_23
REMARK    8  A    between atoms: C_22  and  O_25
REMARK    9  A    between atoms: O_23  and  C_24
REMARK   10  A    between atoms: O_25  and  C_26
REMARK   11  A    between atoms: C_31  and  C_32
REMARK   12  A    between atoms: C_32  and  O_33
REMARK                            x       y       z     vdW  Elec       q    Type
REMARK                         _______ _______ _______ _____ _____    ______ ____
ROOT
ATOM      1  C   UNL     1       1.384   9.420  18.989  0.00  0.00    +0.000 A 
ATOM      2  C   UNL     1       2.244   9.406  17.905  0.00  0.00    +0.000 A 
ATOM      3  C   UNL     1       2.948   8.248  17.657  0.00  0.00    +0.000 A 
ATOM      4  C   UNL     1       2.873   7.161  18.556  0.00  0.00    +0.000 A 
ATOM      5  C   UNL     1       3.659   6.000  18.491  0.00  0.00    +0.000 A 
ATOM      6  N   UNL     1       4.670   5.847  17.521  0.00  0.00    +0.000 N 
ATOM      7  C   UNL     1       5.755   6.862  17.666  0.00  0.00    +0.000 C 
ATOM      8  C   UNL     1       6.586   6.852  16.379  0.00  0.00    +0.000 C 
ATOM      9  O   UNL     1       7.229   5.582  16.225  0.00  0.00    +0.000 OA
ATOM     10  C   UNL     1       6.249   4.534  16.145  0.00  0.00    +0.000 C 
ATOM     11  C   UNL     1       5.295   4.490  17.376  0.00  0.00    +0.000 C 
ATOM     12  C   UNL     1       4.306   3.346  17.140  0.00  0.00    +0.000 C 
ATOM     13  N   UNL     1       3.471   5.013  19.372  0.00  0.00    +0.000 NA
ATOM     14  C   UNL     1       2.504   5.138  20.293  0.00  0.00    +0.000 A 
ATOM     15  N   UNL     1       1.770   6.242  20.461  0.00  0.00    +0.000 NA
ATOM     16  C   UNL     1       1.960   7.238  19.611  0.00  0.00    +0.000 A 
ATOM     17  N   UNL     1       1.245   8.348  19.811  0.00  0.00    +0.000 NA
ENDROOT
BRANCH   1  21
ATOM     18  C   UNL     1      -1.346  12.546  20.052  0.00  0.00    +0.000 A 
ATOM     19  C   UNL     1      -1.705  11.595  19.103  0.00  0.00    +0.000 A 
ATOM     20  C   UNL     1      -0.807  10.594  18.727  0.00  0.00    +0.000 A 
ATOM     21  C   UNL     1       0.487  10.552  19.267  0.00  0.00    +0.000 A 
ATOM     22  C   UNL     1       0.873  11.590  20.128  0.00  0.00    +0.000 A 
ATOM     23  C   UNL     1      -0.024  12.599  20.522  0.00  0.00    +0.000 A 
BRANCH  18  25
ATOM     24  C   UNL     1      -3.615  13.028  20.428  0.00  0.00    +0.000 C 
ATOM     25  O   UNL     1      -2.249  13.434  20.566  0.00  0.00    +0.000 OA
ENDBRANCH  18  25
BRANCH  23  26
ATOM     26  C   UNL     1       0.473  13.691  21.434  0.00  0.00    +0.000 C 
BRANCH  26  27
ATOM     27  O   UNL     1       0.208  14.975  20.883  0.00  0.00    +0.000 OA
ATOM     28  H   UNL     1       0.629  15.621  21.474  0.00  0.00    +0.000 HD
ENDBRANCH  26  27
ENDBRANCH  23  26
ENDBRANCH   1  21
BRANCH  14  29
ATOM     29  C   UNL     1       2.478   4.084  21.357  0.00  0.00    +0.000 C 
BRANCH  29  30
ATOM     30  C   UNL     1       2.030   2.681  20.946  0.00  0.00    +0.000 C 
BRANCH  30  31
ATOM     31  O   UNL     1       0.810   2.784  20.191  0.00  0.00    +0.000 OA
ATOM     32  C   UNL     1       0.944   2.283  18.866  0.00  0.00    +0.000 C 
ENDBRANCH  30  31
BRANCH  30  33
ATOM     33  O   UNL     1       3.019   2.086  20.082  0.00  0.00    +0.000 OA
ATOM     34  C   UNL     1       4.310   1.958  20.654  0.00  0.00    +0.000 C 
ENDBRANCH  30  33
ENDBRANCH  29  30
ENDBRANCH  14  29
TORSDOF 8
ENDMDL
