MODEL 1
REMARK VINA RESULT:      -7.9      0.000      0.000
REMARK  Name = 
REMARK  7 active torsions:
REMARK  status: ('A' for Active; 'I' for Inactive)
REMARK    1  A    between atoms: C_1  and  C_2
REMARK    2  A    between atoms: C_2  and  N_4
REMARK    3  A    between atoms: N_6  and  C_7
REMARK    4  A    between atoms: C_23  and  C_24
REMARK    5  A    between atoms: C_27  and  N_28
REMARK    6  A    between atoms: C_29  and  C_30
REMARK    7  A    between atoms: N_34  and  C_35
REMARK                            x       y       z     vdW  Elec       q    Type
REMARK                         _______ _______ _______ _____ _____    ______ ____
ROOT
ATOM      1  N   UNL     1      -0.969  12.904  19.608  0.00  0.00    +0.000 NA
ATOM      2  C   UNL     1      -0.631  11.914  20.370  0.00  0.00    +0.000 C 
ATOM      3  N   UNL     1      -1.004  11.952  21.705  0.00  0.00    +0.000 N 
ATOM      4  C   UNL     1      -0.370  10.938  22.405  0.00  0.00    +0.000 C 
ATOM      5  O   UNL     1      -0.426  10.693  23.599  0.00  0.00    +0.000 OA
ATOM      6  C   UNL     1       0.296  10.093  21.352  0.00  0.00    +0.000 C 
ATOM      7  C   UNL     1       0.782   8.900  21.719  0.00  0.00    +0.000 C 
ATOM      8  N   UNL     1       0.099  10.749  20.141  0.00  0.00    +0.000 N 
ATOM      9  C   UNL     1      -0.053  10.032  18.879  0.00  0.00    +0.000 C 
ENDROOT
BRANCH   3  10
ATOM     10  C   UNL     1      -2.188  12.492  22.185  0.00  0.00    +0.000 C 
ATOM     11  C   UNL     1      -2.288  13.665  22.853  0.00  0.00    +0.000 C 
ATOM     12  C   UNL     1      -1.108  14.531  23.093  0.00  0.00    +0.000 C 
ATOM     13  O   UNL     1      -0.013  14.384  22.567  0.00  0.00    +0.000 OA
ATOM     14  O   UNL     1      -1.289  15.582  23.969  0.00  0.00    +0.000 OA
ATOM     15  C   UNL     1      -2.552  16.046  24.335  0.00  0.00    +0.000 A 
ATOM     16  C   UNL     1      -2.566  17.251  25.036  0.00  0.00    +0.000 A 
ATOM     17  C   UNL     1      -3.784  17.806  25.411  0.00  0.00    +0.000 A 
ATOM     18  C   UNL     1      -4.973  17.153  25.084  0.00  0.00    +0.000 A 
ATOM     19  C   UNL     1      -4.944  15.941  24.381  0.00  0.00    +0.000 A 
ATOM     20  C   UNL     1      -3.721  15.382  24.002  0.00  0.00    +0.000 A 
ATOM     21  C   UNL     1      -3.652  14.109  23.265  0.00  0.00    +0.000 C 
ATOM     22  O   UNL     1      -4.666  13.468  23.018  0.00  0.00    +0.000 OA
ENDBRANCH   3  10
BRANCH   7  23
ATOM     23  C   UNL     1       1.306   7.858  20.837  0.00  0.00    +0.000 A 
ATOM     24  C   UNL     1       2.010   8.197  19.686  0.00  0.00    +0.000 A 
ATOM     25  C   UNL     1       2.601   7.200  18.902  0.00  0.00    +0.000 A 
ATOM     26  C   UNL     1       2.494   5.851  19.251  0.00  0.00    +0.000 A 
ATOM     27  C   UNL     1       1.723   5.508  20.368  0.00  0.00    +0.000 A 
ATOM     28  C   UNL     1       1.145   6.505  21.165  0.00  0.00    +0.000 A 
BRANCH  26  29
ATOM     29  N   UNL     1       3.162   4.813  18.561  0.00  0.00    +0.000 N 
ATOM     30  C   UNL     1       2.608   3.958  17.624  0.00  0.00    +0.000 C 
ATOM     31  C   UNL     1       3.617   3.048  16.969  0.00  0.00    +0.000 C 
ATOM     32  O   UNL     1       1.426   3.880  17.305  0.00  0.00    +0.000 OA
ATOM     33  H   UNL     1       4.160   4.744  18.717  0.00  0.00    +0.000 HD
ENDBRANCH  26  29
ENDBRANCH   7  23
BRANCH   1  35
ATOM     34  C   UNL     1       1.061  13.516  18.455  0.00  0.00    +0.000 C 
ATOM     35  C   UNL     1      -0.360  13.032  18.383  0.00  0.00    +0.000 C 
ATOM     36  O   UNL     1      -0.849  12.707  17.305  0.00  0.00    +0.000 OA
ENDBRANCH   1  35
TORSDOF 4
ENDMDL
MODEL 2
REMARK VINA RESULT:      -7.7      1.532      1.694
REMARK  Name = 
REMARK  7 active torsions:
REMARK  status: ('A' for Active; 'I' for Inactive)
REMARK    1  A    between atoms: C_1  and  C_2
REMARK    2  A    between atoms: C_2  and  N_4
REMARK    3  A    between atoms: N_6  and  C_7
REMARK    4  A    between atoms: C_23  and  C_24
REMARK    5  A    between atoms: C_27  and  N_28
REMARK    6  A    between atoms: C_29  and  C_30
REMARK    7  A    between atoms: N_34  and  C_35
REMARK                            x       y       z     vdW  Elec       q    Type
REMARK                         _______ _______ _______ _____ _____    ______ ____
ROOT
ATOM      1  N   UNL     1      -2.922  11.938  18.936  0.00  0.00    +0.000 NA
ATOM      2  C   UNL     1      -1.953  11.484  19.663  0.00  0.00    +0.000 C 
ATOM      3  N   UNL     1      -1.755  12.038  20.919  0.00  0.00    +0.000 N 
ATOM      4  C   UNL     1      -0.554  11.595  21.450  0.00  0.00    +0.000 C 
ATOM      5  O   UNL     1      -0.037  11.903  22.511  0.00  0.00    +0.000 OA
ATOM      6  C   UNL     1      -0.082  10.522  20.506  0.00  0.00    +0.000 C 
ATOM      7  C   UNL     1       0.935   9.743  20.900  0.00  0.00    +0.000 C 
ATOM      8  N   UNL     1      -0.978  10.513  19.442  0.00  0.00    +0.000 N 
ATOM      9  C   UNL     1      -1.317   9.294  18.716  0.00  0.00    +0.000 C 
ENDROOT
BRANCH   3  10
ATOM     10  C   UNL     1      -2.764  12.486  21.759  0.00  0.00    +0.000 C 
ATOM     11  C   UNL     1      -2.980  13.781  22.086  0.00  0.00    +0.000 C 
ATOM     12  C   UNL     1      -2.163  14.879  21.515  0.00  0.00    +0.000 C 
ATOM     13  O   UNL     1      -1.379  14.756  20.582  0.00  0.00    +0.000 OA
ATOM     14  O   UNL     1      -2.327  16.125  22.085  0.00  0.00    +0.000 OA
ATOM     15  C   UNL     1      -3.422  16.446  22.886  0.00  0.00    +0.000 A 
ATOM     16  C   UNL     1      -3.563  17.799  23.192  0.00  0.00    +0.000 A 
ATOM     17  C   UNL     1      -4.647  18.215  23.956  0.00  0.00    +0.000 A 
ATOM     18  C   UNL     1      -5.577  17.277  24.407  0.00  0.00    +0.000 A 
ATOM     19  C   UNL     1      -5.423  15.920  24.094  0.00  0.00    +0.000 A 
ATOM     20  C   UNL     1      -4.334  15.500  23.324  0.00  0.00    +0.000 A 
ATOM     21  C   UNL     1      -4.138  14.082  22.978  0.00  0.00    +0.000 C 
ATOM     22  O   UNL     1      -4.891  13.218  23.410  0.00  0.00    +0.000 OA
ENDBRANCH   3  10
BRANCH   7  23
ATOM     23  C   UNL     1       1.435   8.546  20.224  0.00  0.00    +0.000 A 
ATOM     24  C   UNL     1       1.981   8.633  18.948  0.00  0.00    +0.000 A 
ATOM     25  C   UNL     1       2.555   7.506  18.349  0.00  0.00    +0.000 A 
ATOM     26  C   UNL     1       2.586   6.276  19.010  0.00  0.00    +0.000 A 
ATOM     27  C   UNL     1       1.969   6.174  20.263  0.00  0.00    +0.000 A 
ATOM     28  C   UNL     1       1.411   7.305  20.873  0.00  0.00    +0.000 A 
BRANCH  26  29
ATOM     29  N   UNL     1       3.248   5.135  18.502  0.00  0.00    +0.000 N 
ATOM     30  C   UNL     1       2.686   4.129  17.734  0.00  0.00    +0.000 C 
ATOM     31  C   UNL     1       3.689   3.121  17.234  0.00  0.00    +0.000 C 
ATOM     32  O   UNL     1       1.499   3.996  17.449  0.00  0.00    +0.000 OA
ATOM     33  H   UNL     1       4.248   5.094  18.654  0.00  0.00    +0.000 HD
ENDBRANCH  26  29
ENDBRANCH   7  23
BRANCH   1  35
ATOM     34  C   UNL     1      -4.240  11.022  17.133  0.00  0.00    +0.000 C 
ATOM     35  C   UNL     1      -2.945  11.626  17.598  0.00  0.00    +0.000 C 
ATOM     36  O   UNL     1      -2.057  11.881  16.789  0.00  0.00    +0.000 OA
ENDBRANCH   1  35
TORSDOF 4
ENDMDL
MODEL 3
REMARK VINA RESULT:      -7.7      2.020      2.236
REMARK  Name = 
REMARK  7 active torsions:
REMARK  status: ('A' for Active; 'I' for Inactive)
REMARK    1  A    between atoms: C_1  and  C_2
REMARK    2  A    between atoms: C_2  and  N_4
REMARK    3  A    between atoms: N_6  and  C_7
REMARK    4  A    between atoms: C_23  and  C_24
REMARK    5  A    between atoms: C_27  and  N_28
REMARK    6  A    between atoms: C_29  and  C_30
REMARK    7  A    between atoms: N_34  and  C_35
REMARK                            x       y       z     vdW  Elec       q    Type
REMARK                         _______ _______ _______ _____ _____    ______ ____
ROOT
ATOM      1  N   UNL     1      -3.299  12.016  18.948  0.00  0.00    +0.000 NA
ATOM      2  C   UNL     1      -2.187  11.688  19.522  0.00  0.00    +0.000 C 
ATOM      3  N   UNL     1      -1.834  12.337  20.696  0.00  0.00    +0.000 N 
ATOM      4  C   UNL     1      -0.528  12.025  21.038  0.00  0.00    +0.000 C 
ATOM      5  O   UNL     1       0.128  12.441  21.978  0.00  0.00    +0.000 OA
ATOM      6  C   UNL     1      -0.125  10.932  20.084  0.00  0.00    +0.000 C 
ATOM      7  C   UNL     1       1.008  10.263  20.339  0.00  0.00    +0.000 C 
ATOM      8  N   UNL     1      -1.180  10.783  19.190  0.00  0.00    +0.000 N 
ATOM      9  C   UNL     1      -1.527   9.496  18.596  0.00  0.00    +0.000 C 
ENDROOT
BRANCH   3  10
ATOM     10  C   UNL     1      -2.726  12.759  21.671  0.00  0.00    +0.000 C 
ATOM     11  C   UNL     1      -2.937  14.049  22.020  0.00  0.00    +0.000 C 
ATOM     12  C   UNL     1      -2.250  15.168  21.330  0.00  0.00    +0.000 C 
ATOM     13  O   UNL     1      -1.605  15.063  20.294  0.00  0.00    +0.000 OA
ATOM     14  O   UNL     1      -2.373  16.413  21.911  0.00  0.00    +0.000 OA
ATOM     15  C   UNL     1      -3.352  16.706  22.861  0.00  0.00    +0.000 A 
ATOM     16  C   UNL     1      -3.494  18.056  23.177  0.00  0.00    +0.000 A 
ATOM     17  C   UNL     1      -4.469  18.443  24.088  0.00  0.00    +0.000 A 
ATOM     18  C   UNL     1      -5.291  17.479  24.674  0.00  0.00    +0.000 A 
ATOM     19  C   UNL     1      -5.137  16.125  24.349  0.00  0.00    +0.000 A 
ATOM     20  C   UNL     1      -4.157  15.734  23.432  0.00  0.00    +0.000 A 
ATOM     21  C   UNL     1      -3.964  14.320  23.068  0.00  0.00    +0.000 C 
ATOM     22  O   UNL     1      -4.615  13.435  23.609  0.00  0.00    +0.000 OA
ENDBRANCH   3  10
BRANCH   7  23
ATOM     23  C   UNL     1       1.492   9.066  19.650  0.00  0.00    +0.000 A 
ATOM     24  C   UNL     1       1.820   9.114  18.300  0.00  0.00    +0.000 A 
ATOM     25  C   UNL     1       2.383   7.997  17.672  0.00  0.00    +0.000 A 
ATOM     26  C   UNL     1       2.622   6.816  18.379  0.00  0.00    +0.000 A 
ATOM     27  C   UNL     1       2.222   6.747  19.720  0.00  0.00    +0.000 A 
ATOM     28  C   UNL     1       1.675   7.869  20.356  0.00  0.00    +0.000 A 
BRANCH  26  29
ATOM     29  N   UNL     1       3.288   5.698  17.827  0.00  0.00    +0.000 N 
ATOM     30  C   UNL     1       4.642   5.596  17.559  0.00  0.00    +0.000 C 
ATOM     31  C   UNL     1       5.063   4.222  17.101  0.00  0.00    +0.000 C 
ATOM     32  O   UNL     1       5.481   6.487  17.653  0.00  0.00    +0.000 OA
ATOM     33  H   UNL     1       2.726   4.868  17.689  0.00  0.00    +0.000 HD
ENDBRANCH  26  29
ENDBRANCH   7  23
BRANCH   1  35
ATOM     34  C   UNL     1      -4.893  11.069  17.402  0.00  0.00    +0.000 C 
ATOM     35  C   UNL     1      -3.516  11.615  17.652  0.00  0.00    +0.000 C 
ATOM     36  O   UNL     1      -2.727  11.754  16.720  0.00  0.00    +0.000 OA
ENDBRANCH   1  35
TORSDOF 4
ENDMDL
MODEL 4
REMARK VINA RESULT:      -7.6      3.728      4.900
REMARK  Name = 
REMARK  7 active torsions:
REMARK  status: ('A' for Active; 'I' for Inactive)
REMARK    1  A    between atoms: C_1  and  C_2
REMARK    2  A    between atoms: C_2  and  N_4
REMARK    3  A    between atoms: N_6  and  C_7
REMARK    4  A    between atoms: C_23  and  C_24
REMARK    5  A    between atoms: C_27  and  N_28
REMARK    6  A    between atoms: C_29  and  C_30
REMARK    7  A    between atoms: N_34  and  C_35
REMARK                            x       y       z     vdW  Elec       q    Type
REMARK                         _______ _______ _______ _____ _____    ______ ____
ROOT
ATOM      1  N   UNL     1       0.336  10.271  21.456  0.00  0.00    +0.000 NA
ATOM      2  C   UNL     1       0.991  10.028  20.367  0.00  0.00    +0.000 C 
ATOM      3  N   UNL     1       1.342  11.097  19.556  0.00  0.00    +0.000 N 
ATOM      4  C   UNL     1       1.828  10.635  18.343  0.00  0.00    +0.000 C 
ATOM      5  O   UNL     1       2.191  11.284  17.376  0.00  0.00    +0.000 OA
ATOM      6  C   UNL     1       1.963   9.145  18.519  0.00  0.00    +0.000 C 
ATOM      7  C   UNL     1       2.643   8.463  17.588  0.00  0.00    +0.000 C 
ATOM      8  N   UNL     1       1.432   8.848  19.770  0.00  0.00    +0.000 N 
ATOM      9  C   UNL     1       1.943   7.761  20.598  0.00  0.00    +0.000 C 
ENDROOT
BRANCH   3  10
ATOM     10  C   UNL     1       1.696  12.358  20.011  0.00  0.00    +0.000 C 
ATOM     11  C   UNL     1       1.053  13.505  19.691  0.00  0.00    +0.000 C 
ATOM     12  C   UNL     1      -0.161  13.509  18.840  0.00  0.00    +0.000 C 
ATOM     13  O   UNL     1      -0.794  12.512  18.517  0.00  0.00    +0.000 OA
ATOM     14  O   UNL     1      -0.598  14.742  18.402  0.00  0.00    +0.000 OA
ATOM     15  C   UNL     1      -0.181  15.938  18.987  0.00  0.00    +0.000 A 
ATOM     16  C   UNL     1      -0.883  17.075  18.591  0.00  0.00    +0.000 A 
ATOM     17  C   UNL     1      -0.558  18.305  19.149  0.00  0.00    +0.000 A 
ATOM     18  C   UNL     1       0.465  18.388  20.095  0.00  0.00    +0.000 A 
ATOM     19  C   UNL     1       1.165  17.238  20.482  0.00  0.00    +0.000 A 
ATOM     20  C   UNL     1       0.839  15.999  19.923  0.00  0.00    +0.000 A 
ATOM     21  C   UNL     1       1.554  14.770  20.305  0.00  0.00    +0.000 C 
ATOM     22  O   UNL     1       2.503  14.807  21.078  0.00  0.00    +0.000 OA
ENDBRANCH   3  10
BRANCH   7  23
ATOM     23  C   UNL     1       3.039   7.056  17.647  0.00  0.00    +0.000 A 
ATOM     24  C   UNL     1       4.383   6.700  17.621  0.00  0.00    +0.000 A 
ATOM     25  C   UNL     1       4.761   5.363  17.785  0.00  0.00    +0.000 A 
ATOM     26  C   UNL     1       3.805   4.361  17.974  0.00  0.00    +0.000 A 
ATOM     27  C   UNL     1       2.450   4.713  17.926  0.00  0.00    +0.000 A 
ATOM     28  C   UNL     1       2.069   6.053  17.780  0.00  0.00    +0.000 A 
BRANCH  26  29
ATOM     29  N   UNL     1       4.131   3.015  18.256  0.00  0.00    +0.000 N 
ATOM     30  C   UNL     1       3.928   2.351  19.453  0.00  0.00    +0.000 C 
ATOM     31  C   UNL     1       4.257   0.881  19.391  0.00  0.00    +0.000 C 
ATOM     32  O   UNL     1       3.529   2.838  20.507  0.00  0.00    +0.000 OA
ATOM     33  H   UNL     1       4.477   2.467  17.477  0.00  0.00    +0.000 HD
ENDBRANCH  26  29
ENDBRANCH   7  23
BRANCH   1  35
ATOM     34  C   UNL     1      -0.120   9.257  23.598  0.00  0.00    +0.000 C 
ATOM     35  C   UNL     1      -0.277   9.226  22.104  0.00  0.00    +0.000 C 
ATOM     36  O   UNL     1      -0.980   8.370  21.574  0.00  0.00    +0.000 OA
ENDBRANCH   1  35
TORSDOF 4
ENDMDL
MODEL 5
REMARK VINA RESULT:      -7.6      1.004      1.004
REMARK  Name = 
REMARK  7 active torsions:
REMARK  status: ('A' for Active; 'I' for Inactive)
REMARK    1  A    between atoms: C_1  and  C_2
REMARK    2  A    between atoms: C_2  and  N_4
REMARK    3  A    between atoms: N_6  and  C_7
REMARK    4  A    between atoms: C_23  and  C_24
REMARK    5  A    between atoms: C_27  and  N_28
REMARK    6  A    between atoms: C_29  and  C_30
REMARK    7  A    between atoms: N_34  and  C_35
REMARK                            x       y       z     vdW  Elec       q    Type
REMARK                         _______ _______ _______ _____ _____    ______ ____
ROOT
ATOM      1  N   UNL     1      -0.509  12.879  19.785  0.00  0.00    +0.000 NA
ATOM      2  C   UNL     1      -0.192  11.805  20.434  0.00  0.00    +0.000 C 
ATOM      3  N   UNL     1      -0.517  11.728  21.779  0.00  0.00    +0.000 N 
ATOM      4  C   UNL     1       0.091  10.623  22.354  0.00  0.00    +0.000 C 
ATOM      5  O   UNL     1       0.064  10.264  23.519  0.00  0.00    +0.000 OA
ATOM      6  C   UNL     1       0.680   9.857  21.198  0.00  0.00    +0.000 C 
ATOM      7  C   UNL     1       1.121   8.613  21.430  0.00  0.00    +0.000 C 
ATOM      8  N   UNL     1       0.474  10.637  20.065  0.00  0.00    +0.000 N 
ATOM      9  C   UNL     1       0.245  10.055  18.747  0.00  0.00    +0.000 C 
ENDROOT
BRANCH   3  10
ATOM     10  C   UNL     1      -1.657  12.270  22.355  0.00  0.00    +0.000 C 
ATOM     11  C   UNL     1      -1.714  13.471  22.976  0.00  0.00    +0.000 C 
ATOM     12  C   UNL     1      -0.535  14.368  23.053  0.00  0.00    +0.000 C 
ATOM     13  O   UNL     1       0.504  14.215  22.423  0.00  0.00    +0.000 OA
ATOM     14  O   UNL     1      -0.647  15.456  23.893  0.00  0.00    +0.000 OA
ATOM     15  C   UNL     1      -1.876  15.915  24.367  0.00  0.00    +0.000 A 
ATOM     16  C   UNL     1      -1.845  17.151  25.010  0.00  0.00    +0.000 A 
ATOM     17  C   UNL     1      -3.029  17.703  25.484  0.00  0.00    +0.000 A 
ATOM     18  C   UNL     1      -4.231  17.015  25.312  0.00  0.00    +0.000 A 
ATOM     19  C   UNL     1      -4.248  15.772  24.666  0.00  0.00    +0.000 A 
ATOM     20  C   UNL     1      -3.058  15.216  24.187  0.00  0.00    +0.000 A 
ATOM     21  C   UNL     1      -3.038  13.910  23.506  0.00  0.00    +0.000 C 
ATOM     22  O   UNL     1      -4.057  13.242  23.395  0.00  0.00    +0.000 OA
ENDBRANCH   3  10
BRANCH   7  23
ATOM     23  C   UNL     1       1.564   7.641  20.431  0.00  0.00    +0.000 A 
ATOM     24  C   UNL     1       2.120   8.068  19.230  0.00  0.00    +0.000 A 
ATOM     25  C   UNL     1       2.641   7.137  18.324  0.00  0.00    +0.000 A 
ATOM     26  C   UNL     1       2.610   5.768  18.600  0.00  0.00    +0.000 A 
ATOM     27  C   UNL     1       1.983   5.337  19.776  0.00  0.00    +0.000 A 
ATOM     28  C   UNL     1       1.478   6.267  20.693  0.00  0.00    +0.000 A 
BRANCH  26  29
ATOM     29  N   UNL     1       3.218   4.793  17.777  0.00  0.00    +0.000 N 
ATOM     30  C   UNL     1       4.507   4.303  17.895  0.00  0.00    +0.000 C 
ATOM     31  C   UNL     1       4.810   3.169  16.948  0.00  0.00    +0.000 C 
ATOM     32  O   UNL     1       5.379   4.701  18.662  0.00  0.00    +0.000 OA
ATOM     33  H   UNL     1       2.621   4.360  17.083  0.00  0.00    +0.000 HD
ENDBRANCH  26  29
ENDBRANCH   7  23
BRANCH   1  35
ATOM     34  C   UNL     1       1.525  13.449  18.615  0.00  0.00    +0.000 C 
ATOM     35  C   UNL     1       0.065  13.100  18.556  0.00  0.00    +0.000 C 
ATOM     36  O   UNL     1      -0.491  12.948  17.471  0.00  0.00    +0.000 OA
ENDBRANCH   1  35
TORSDOF 4
ENDMDL
MODEL 6
REMARK VINA RESULT:      -7.5      4.129      7.307
REMARK  Name = 
REMARK  7 active torsions:
REMARK  status: ('A' for Active; 'I' for Inactive)
REMARK    1  A    between atoms: C_1  and  C_2
REMARK    2  A    between atoms: C_2  and  N_4
REMARK    3  A    between atoms: N_6  and  C_7
REMARK    4  A    between atoms: C_23  and  C_24
REMARK    5  A    between atoms: C_27  and  N_28
REMARK    6  A    between atoms: C_29  and  C_30
REMARK    7  A    between atoms: N_34  and  C_35
REMARK                            x       y       z     vdW  Elec       q    Type
REMARK                         _______ _______ _______ _____ _____    ______ ____
ROOT
ATOM      1  N   UNL     1      -0.132  11.895  21.293  0.00  0.00    +0.000 NA
ATOM      2  C   UNL     1       0.112  13.063  20.792  0.00  0.00    +0.000 C 
ATOM      3  N   UNL     1      -0.909  14.001  20.778  0.00  0.00    +0.000 N 
ATOM      4  C   UNL     1      -0.540  15.095  20.011  0.00  0.00    +0.000 C 
ATOM      5  O   UNL     1      -1.196  16.087  19.743  0.00  0.00    +0.000 OA
ATOM      6  C   UNL     1       0.917  14.877  19.696  0.00  0.00    +0.000 C 
ATOM      7  C   UNL     1       1.605  15.900  19.171  0.00  0.00    +0.000 C 
ATOM      8  N   UNL     1       1.243  13.621  20.197  0.00  0.00    +0.000 N 
ATOM      9  C   UNL     1       2.569  13.309  20.721  0.00  0.00    +0.000 C 
ENDROOT
BRANCH   3  10
ATOM     10  C   UNL     1      -1.877  14.138  21.762  0.00  0.00    +0.000 C 
ATOM     11  C   UNL     1      -3.118  13.599  21.705  0.00  0.00    +0.000 C 
ATOM     12  C   UNL     1      -3.548  12.743  20.573  0.00  0.00    +0.000 C 
ATOM     13  O   UNL     1      -2.802  12.291  19.714  0.00  0.00    +0.000 OA
ATOM     14  O   UNL     1      -4.892  12.436  20.514  0.00  0.00    +0.000 OA
ATOM     15  C   UNL     1      -5.746  12.591  21.605  0.00  0.00    +0.000 A 
ATOM     16  C   UNL     1      -7.011  12.023  21.460  0.00  0.00    +0.000 A 
ATOM     17  C   UNL     1      -7.916  12.098  22.511  0.00  0.00    +0.000 A 
ATOM     18  C   UNL     1      -7.551  12.740  23.695  0.00  0.00    +0.000 A 
ATOM     19  C   UNL     1      -6.277  13.308  23.828  0.00  0.00    +0.000 A 
ATOM     20  C   UNL     1      -5.364  13.232  22.772  0.00  0.00    +0.000 A 
ATOM     21  C   UNL     1      -4.018  13.820  22.875  0.00  0.00    +0.000 C 
ATOM     22  O   UNL     1      -3.681  14.452  23.868  0.00  0.00    +0.000 OA
ENDBRANCH   3  10
BRANCH   7  23
ATOM     23  C   UNL     1       3.049  15.962  18.951  0.00  0.00    +0.000 A 
ATOM     24  C   UNL     1       3.869  16.649  19.841  0.00  0.00    +0.000 A 
ATOM     25  C   UNL     1       5.259  16.617  19.687  0.00  0.00    +0.000 A 
ATOM     26  C   UNL     1       5.852  15.905  18.641  0.00  0.00    +0.000 A 
ATOM     27  C   UNL     1       5.022  15.276  17.704  0.00  0.00    +0.000 A 
ATOM     28  C   UNL     1       3.630  15.292  17.867  0.00  0.00    +0.000 A 
BRANCH  26  29
ATOM     29  N   UNL     1       7.249  15.745  18.500  0.00  0.00    +0.000 N 
ATOM     30  C   UNL     1       8.180  16.754  18.320  0.00  0.00    +0.000 C 
ATOM     31  C   UNL     1       9.607  16.268  18.343  0.00  0.00    +0.000 C 
ATOM     32  O   UNL     1       7.949  17.947  18.145  0.00  0.00    +0.000 OA
ATOM     33  H   UNL     1       7.605  14.805  18.621  0.00  0.00    +0.000 HD
ENDBRANCH  26  29
ENDBRANCH   7  23
BRANCH   1  35
ATOM     34  C   UNL     1       0.781  10.426  19.609  0.00  0.00    +0.000 C 
ATOM     35  C   UNL     1       0.751  10.873  21.044  0.00  0.00    +0.000 C 
ATOM     36  O   UNL     1       1.537  10.393  21.857  0.00  0.00    +0.000 OA
ENDBRANCH   1  35
TORSDOF 4
ENDMDL
MODEL 7
REMARK VINA RESULT:      -7.5      1.803      2.194
REMARK  Name = 
REMARK  7 active torsions:
REMARK  status: ('A' for Active; 'I' for Inactive)
REMARK    1  A    between atoms: C_1  and  C_2
REMARK    2  A    between atoms: C_2  and  N_4
REMARK    3  A    between atoms: N_6  and  C_7
REMARK    4  A    between atoms: C_23  and  C_24
REMARK    5  A    between atoms: C_27  and  N_28
REMARK    6  A    between atoms: C_29  and  C_30
REMARK    7  A    between atoms: N_34  and  C_35
REMARK                            x       y       z     vdW  Elec       q    Type
REMARK                         _______ _______ _______ _____ _____    ______ ____
ROOT
ATOM      1  N   UNL     1       0.569  12.861  19.708  0.00  0.00    +0.000 NA
ATOM      2  C   UNL     1       0.547  11.622  20.081  0.00  0.00    +0.000 C 
ATOM      3  N   UNL     1      -0.394  11.233  21.022  0.00  0.00    +0.000 N 
ATOM      4  C   UNL     1      -0.124   9.947  21.462  0.00  0.00    +0.000 C 
ATOM      5  O   UNL     1      -0.712   9.299  22.312  0.00  0.00    +0.000 OA
ATOM      6  C   UNL     1       0.969   9.446  20.555  0.00  0.00    +0.000 C 
ATOM      7  C   UNL     1       1.262   8.139  20.589  0.00  0.00    +0.000 C 
ATOM      8  N   UNL     1       1.329  10.518  19.745  0.00  0.00    +0.000 N 
ATOM      9  C   UNL     1       1.784  10.341  18.370  0.00  0.00    +0.000 C 
ENDROOT
BRANCH   3  10
ATOM     10  C   UNL     1      -1.679  11.746  21.122  0.00  0.00    +0.000 C 
ATOM     11  C   UNL     1      -2.064  12.704  21.996  0.00  0.00    +0.000 C 
ATOM     12  C   UNL     1      -1.102  13.350  22.922  0.00  0.00    +0.000 C 
ATOM     13  O   UNL     1       0.116  13.236  22.858  0.00  0.00    +0.000 OA
ATOM     14  O   UNL     1      -1.643  14.145  23.911  0.00  0.00    +0.000 OA
ATOM     15  C   UNL     1      -2.953  14.623  23.858  0.00  0.00    +0.000 A 
ATOM     16  C   UNL     1      -3.274  15.594  24.805  0.00  0.00    +0.000 A 
ATOM     17  C   UNL     1      -4.546  16.152  24.803  0.00  0.00    +0.000 A 
ATOM     18  C   UNL     1      -5.485  15.734  23.858  0.00  0.00    +0.000 A 
ATOM     19  C   UNL     1      -5.150  14.755  22.914  0.00  0.00    +0.000 A 
ATOM     20  C   UNL     1      -3.870  14.194  22.912  0.00  0.00    +0.000 A 
ATOM     21  C   UNL     1      -3.484  13.161  21.937  0.00  0.00    +0.000 C 
ATOM     22  O   UNL     1      -4.296  12.715  21.136  0.00  0.00    +0.000 OA
ENDBRANCH   3  10
BRANCH   7  23
ATOM     23  C   UNL     1       2.155   7.417  19.682  0.00  0.00    +0.000 A 
ATOM     24  C   UNL     1       2.813   6.269  20.108  0.00  0.00    +0.000 A 
ATOM     25  C   UNL     1       3.582   5.522  19.208  0.00  0.00    +0.000 A 
ATOM     26  C   UNL     1       3.708   5.913  17.872  0.00  0.00    +0.000 A 
ATOM     27  C   UNL     1       3.105   7.109  17.465  0.00  0.00    +0.000 A 
ATOM     28  C   UNL     1       2.320   7.849  18.360  0.00  0.00    +0.000 A 
BRANCH  26  29
ATOM     29  N   UNL     1       4.377   5.142  16.894  0.00  0.00    +0.000 N 
ATOM     30  C   UNL     1       5.544   5.483  16.231  0.00  0.00    +0.000 C 
ATOM     31  C   UNL     1       6.078   4.384  15.348  0.00  0.00    +0.000 C 
ATOM     32  O   UNL     1       6.141   6.553  16.296  0.00  0.00    +0.000 OA
ATOM     33  H   UNL     1       4.003   4.217  16.723  0.00  0.00    +0.000 HD
ENDBRANCH  26  29
ENDBRANCH   7  23
BRANCH   1  35
ATOM     34  C   UNL     1       2.819  13.713  19.904  0.00  0.00    +0.000 C 
ATOM     35  C   UNL     1       1.666  13.324  19.022  0.00  0.00    +0.000 C 
ATOM     36  O   UNL     1       1.785  13.351  17.800  0.00  0.00    +0.000 OA
ENDBRANCH   1  35
TORSDOF 4
ENDMDL
MODEL 8
REMARK VINA RESULT:      -7.4      0.853      1.178
REMARK  Name = 
REMARK  7 active torsions:
REMARK  status: ('A' for Active; 'I' for Inactive)
REMARK    1  A    between atoms: C_1  and  C_2
REMARK    2  A    between atoms: C_2  and  N_4
REMARK    3  A    between atoms: N_6  and  C_7
REMARK    4  A    between atoms: C_23  and  C_24
REMARK    5  A    between atoms: C_27  and  N_28
REMARK    6  A    between atoms: C_29  and  C_30
REMARK    7  A    between atoms: N_34  and  C_35
REMARK                            x       y       z     vdW  Elec       q    Type
REMARK                         _______ _______ _______ _____ _____    ______ ____
ROOT
ATOM      1  N   UNL     1      -0.655  13.000  19.801  0.00  0.00    +0.000 NA
ATOM      2  C   UNL     1      -0.418  11.933  20.493  0.00  0.00    +0.000 C 
ATOM      3  N   UNL     1      -0.954  11.841  21.768  0.00  0.00    +0.000 N 
ATOM      4  C   UNL     1      -0.416  10.751  22.434  0.00  0.00    +0.000 C 
ATOM      5  O   UNL     1      -0.622  10.387  23.579  0.00  0.00    +0.000 OA
ATOM      6  C   UNL     1       0.373  10.007  21.389  0.00  0.00    +0.000 C 
ATOM      7  C   UNL     1       0.805   8.774  21.690  0.00  0.00    +0.000 C 
ATOM      8  N   UNL     1       0.331  10.785  20.238  0.00  0.00    +0.000 N 
ATOM      9  C   UNL     1       0.335  10.203  18.899  0.00  0.00    +0.000 C 
ENDROOT
BRANCH   3  10
ATOM     10  C   UNL     1      -2.187  12.349  22.151  0.00  0.00    +0.000 C 
ATOM     11  C   UNL     1      -2.371  13.509  22.823  0.00  0.00    +0.000 C 
ATOM     12  C   UNL     1      -1.236  14.396  23.176  0.00  0.00    +0.000 C 
ATOM     13  O   UNL     1      -0.096  14.280  22.745  0.00  0.00    +0.000 OA
ATOM     14  O   UNL     1      -1.514  15.430  24.046  0.00  0.00    +0.000 OA
ATOM     15  C   UNL     1      -2.814  15.862  24.308  0.00  0.00    +0.000 A 
ATOM     16  C   UNL     1      -2.916  17.055  25.021  0.00  0.00    +0.000 A 
ATOM     17  C   UNL     1      -4.173  17.579  25.296  0.00  0.00    +0.000 A 
ATOM     18  C   UNL     1      -5.315  16.905  24.859  0.00  0.00    +0.000 A 
ATOM     19  C   UNL     1      -5.199  15.705  24.145  0.00  0.00    +0.000 A 
ATOM     20  C   UNL     1      -3.935  15.178  23.866  0.00  0.00    +0.000 A 
ATOM     21  C   UNL     1      -3.775  13.918  23.121  0.00  0.00    +0.000 C 
ATOM     22  O   UNL     1      -4.749  13.259  22.779  0.00  0.00    +0.000 OA
ENDBRANCH   3  10
BRANCH   7  23
ATOM     23  C   UNL     1       1.432   7.819  20.776  0.00  0.00    +0.000 A 
ATOM     24  C   UNL     1       1.371   6.454  21.034  0.00  0.00    +0.000 A 
ATOM     25  C   UNL     1       1.878   5.538  20.105  0.00  0.00    +0.000 A 
ATOM     26  C   UNL     1       2.456   5.971  18.909  0.00  0.00    +0.000 A 
ATOM     27  C   UNL     1       2.582   7.348  18.686  0.00  0.00    +0.000 A 
ATOM     28  C   UNL     1       2.060   8.266  19.606  0.00  0.00    +0.000 A 
BRANCH  26  29
ATOM     29  N   UNL     1       2.882   5.092  17.887  0.00  0.00    +0.000 N 
ATOM     30  C   UNL     1       4.191   4.769  17.570  0.00  0.00    +0.000 C 
ATOM     31  C   UNL     1       4.309   3.695  16.518  0.00  0.00    +0.000 C 
ATOM     32  O   UNL     1       5.208   5.266  18.045  0.00  0.00    +0.000 OA
ATOM     33  H   UNL     1       2.152   4.595  17.393  0.00  0.00    +0.000 HD
ENDBRANCH  26  29
ENDBRANCH   7  23
BRANCH   1  35
ATOM     34  C   UNL     1       1.516  13.659  18.976  0.00  0.00    +0.000 C 
ATOM     35  C   UNL     1       0.103  13.242  18.681  0.00  0.00    +0.000 C 
ATOM     36  O   UNL     1      -0.258  13.059  17.521  0.00  0.00    +0.000 OA
ENDBRANCH   1  35
TORSDOF 4
ENDMDL
MODEL 9
REMARK VINA RESULT:      -7.4      3.821      4.988
REMARK  Name = 
REMARK  7 active torsions:
REMARK  status: ('A' for Active; 'I' for Inactive)
REMARK    1  A    between atoms: C_1  and  C_2
REMARK    2  A    between atoms: C_2  and  N_4
REMARK    3  A    between atoms: N_6  and  C_7
REMARK    4  A    between atoms: C_23  and  C_24
REMARK    5  A    between atoms: C_27  and  N_28
REMARK    6  A    between atoms: C_29  and  C_30
REMARK    7  A    between atoms: N_34  and  C_35
REMARK                            x       y       z     vdW  Elec       q    Type
REMARK                         _______ _______ _______ _____ _____    ______ ____
ROOT
ATOM      1  N   UNL     1       0.580  10.743  21.809  0.00  0.00    +0.000 NA
ATOM      2  C   UNL     1       1.057  10.338  20.676  0.00  0.00    +0.000 C 
ATOM      3  N   UNL     1       1.337  11.284  19.702  0.00  0.00    +0.000 N 
ATOM      4  C   UNL     1       1.618  10.659  18.498  0.00  0.00    +0.000 C 
ATOM      5  O   UNL     1       1.867  11.171  17.419  0.00  0.00    +0.000 OA
ATOM      6  C   UNL     1       1.705   9.193  18.830  0.00  0.00    +0.000 C 
ATOM      7  C   UNL     1       2.209   8.368  17.902  0.00  0.00    +0.000 C 
ATOM      8  N   UNL     1       1.348   9.072  20.169  0.00  0.00    +0.000 N 
ATOM      9  C   UNL     1       1.922   8.054  21.043  0.00  0.00    +0.000 C 
ENDROOT
BRANCH   3  10
ATOM     10  C   UNL     1       1.814  12.563  19.949  0.00  0.00    +0.000 C 
ATOM     11  C   UNL     1       1.160  13.706  19.637  0.00  0.00    +0.000 C 
ATOM     12  C   UNL     1      -0.193  13.693  19.032  0.00  0.00    +0.000 C 
ATOM     13  O   UNL     1      -0.910  12.704  18.939  0.00  0.00    +0.000 OA
ATOM     14  O   UNL     1      -0.664  14.900  18.558  0.00  0.00    +0.000 OA
ATOM     15  C   UNL     1      -0.102  16.122  18.926  0.00  0.00    +0.000 A 
ATOM     16  C   UNL     1      -0.829  17.251  18.552  0.00  0.00    +0.000 A 
ATOM     17  C   UNL     1      -0.362  18.510  18.908  0.00  0.00    +0.000 A 
ATOM     18  C   UNL     1       0.826  18.629  19.632  0.00  0.00    +0.000 A 
ATOM     19  C   UNL     1       1.548  17.486  20.000  0.00  0.00    +0.000 A 
ATOM     20  C   UNL     1       1.079  16.219  19.644  0.00  0.00    +0.000 A 
ATOM     21  C   UNL     1       1.812  14.996  20.011  0.00  0.00    +0.000 C 
ATOM     22  O   UNL     1       2.892  15.057  20.585  0.00  0.00    +0.000 OA
ENDBRANCH   3  10
BRANCH   7  23
ATOM     23  C   UNL     1       2.541   6.954  18.074  0.00  0.00    +0.000 A 
ATOM     24  C   UNL     1       1.554   5.980  17.964  0.00  0.00    +0.000 A 
ATOM     25  C   UNL     1       1.893   4.624  18.023  0.00  0.00    +0.000 A 
ATOM     26  C   UNL     1       3.219   4.219  18.197  0.00  0.00    +0.000 A 
ATOM     27  C   UNL     1       4.199   5.202  18.381  0.00  0.00    +0.000 A 
ATOM     28  C   UNL     1       3.865   6.561  18.305  0.00  0.00    +0.000 A 
BRANCH  26  29
ATOM     29  N   UNL     1       3.634   2.869  18.153  0.00  0.00    +0.000 N 
ATOM     30  C   UNL     1       3.873   2.044  19.238  0.00  0.00    +0.000 C 
ATOM     31  C   UNL     1       4.170   0.616  18.856  0.00  0.00    +0.000 C 
ATOM     32  O   UNL     1       3.870   2.366  20.423  0.00  0.00    +0.000 OA
ATOM     33  H   UNL     1       3.686   2.448  17.233  0.00  0.00    +0.000 HD
ENDBRANCH  26  29
ENDBRANCH   7  23
BRANCH   1  35
ATOM     34  C   UNL     1      -1.018   8.944  22.010  0.00  0.00    +0.000 C 
ATOM     35  C   UNL     1       0.019   9.818  22.657  0.00  0.00    +0.000 C 
ATOM     36  O   UNL     1       0.361   9.616  23.819  0.00  0.00    +0.000 OA
ENDBRANCH   1  35
TORSDOF 4
ENDMDL
