MODEL 1
REMARK VINA RESULT:      -5.8      0.000      0.000
REMARK  Name = 
REMARK  4 active torsions:
REMARK  status: ('A' for Active; 'I' for Inactive)
REMARK    1  A    between atoms: O_1  and  C_2
REMARK    2  A    between atoms: N_5  and  C_6
REMARK    3  A    between atoms: C_6  and  C_7
REMARK    4  A    between atoms: C_7  and  N_8
REMARK                            x       y       z     vdW  Elec       q    Type
REMARK                         _______ _______ _______ _____ _____    ______ ____
ROOT
ATOM      1  C   UNL     1       7.215   4.773  16.121  0.00  0.00    +0.000 C 
ATOM      2  C   UNL     1       6.763   6.152  16.583  0.00  0.00    +0.000 C 
ATOM      3  C   UNL     1       5.642   6.057  17.617  0.00  0.00    +0.000 C 
ATOM      4  N   UNL     1       4.493   5.295  17.097  0.00  0.00    +0.000 NA
ATOM      5  C   UNL     1       4.922   3.923  16.752  0.00  0.00    +0.000 C 
ATOM      6  C   UNL     1       6.021   3.932  15.687  0.00  0.00    +0.000 C 
ENDROOT
BRANCH   1   7
ATOM      7  O   UNL     1       7.902   4.104  17.178  0.00  0.00    +0.000 OA
ATOM      8  H   UNL     1       7.565   3.192  17.216  0.00  0.00    +0.000 HD
ENDBRANCH   1   7
BRANCH   4   9
ATOM      9  C   UNL     1       3.393   5.237  18.091  0.00  0.00    +0.000 C 
BRANCH   9  10
ATOM     10  C   UNL     1       2.586   3.935  18.030  0.00  0.00    +0.000 C 
BRANCH  10  11
ATOM     11  N   UNL     1       2.277   3.420  19.351  0.00  0.00    +0.000 N 
ATOM     12  C   UNL     1       1.039   3.282  19.910  0.00  0.00    +0.000 A 
ATOM     13  C   UNL     1       1.250   2.848  21.197  0.00  0.00    +0.000 A 
ATOM     14  C   UNL     1       2.649   2.755  21.317  0.00  0.00    +0.000 A 
ATOM     15  N   UNL     1       3.279   3.094  20.191  0.00  0.00    +0.000 NA
ENDBRANCH  10  11
ENDBRANCH   9  10
ENDBRANCH   4   9
TORSDOF 4
ENDMDL
MODEL 2
REMARK VINA RESULT:      -5.8      2.280      5.496
REMARK  Name = 
REMARK  4 active torsions:
REMARK  status: ('A' for Active; 'I' for Inactive)
REMARK    1  A    between atoms: O_1  and  C_2
REMARK    2  A    between atoms: N_5  and  C_6
REMARK    3  A    between atoms: C_6  and  C_7
REMARK    4  A    between atoms: C_7  and  N_8
REMARK                            x       y       z     vdW  Elec       q    Type
REMARK                         _______ _______ _______ _____ _____    ______ ____
ROOT
ATOM      1  C   UNL     1       2.002   2.781  18.652  0.00  0.00    +0.000 C 
ATOM      2  C   UNL     1       1.784   4.176  18.081  0.00  0.00    +0.000 C 
ATOM      3  C   UNL     1       3.103   4.818  17.651  0.00  0.00    +0.000 C 
ATOM      4  N   UNL     1       4.063   4.871  18.768  0.00  0.00    +0.000 NA
ATOM      5  C   UNL     1       4.350   3.501  19.243  0.00  0.00    +0.000 C 
ATOM      6  C   UNL     1       3.077   2.802  19.730  0.00  0.00    +0.000 C 
ENDROOT
BRANCH   1   7
ATOM      7  O   UNL     1       2.394   1.883  17.614  0.00  0.00    +0.000 OA
ATOM      8  H   UNL     1       2.711   2.419  16.866  0.00  0.00    +0.000 HD
ENDBRANCH   1   7
BRANCH   4   9
ATOM      9  C   UNL     1       5.329   5.528  18.356  0.00  0.00    +0.000 C 
BRANCH   9  10
ATOM     10  C   UNL     1       6.392   4.542  17.857  0.00  0.00    +0.000 C 
BRANCH  10  11
ATOM     11  N   UNL     1       6.468   4.507  16.408  0.00  0.00    +0.000 N 
ATOM     12  C   UNL     1       5.802   3.658  15.572  0.00  0.00    +0.000 A 
ATOM     13  C   UNL     1       6.262   3.935  14.306  0.00  0.00    +0.000 A 
ATOM     14  C   UNL     1       7.202   4.965  14.486  0.00  0.00    +0.000 A 
ATOM     15  N   UNL     1       7.326   5.323  15.765  0.00  0.00    +0.000 NA
ENDBRANCH  10  11
ENDBRANCH   9  10
ENDBRANCH   4   9
TORSDOF 4
ENDMDL
MODEL 3
REMARK VINA RESULT:      -5.7      2.636      5.770
REMARK  Name = 
REMARK  4 active torsions:
REMARK  status: ('A' for Active; 'I' for Inactive)
REMARK    1  A    between atoms: O_1  and  C_2
REMARK    2  A    between atoms: N_5  and  C_6
REMARK    3  A    between atoms: C_6  and  C_7
REMARK    4  A    between atoms: C_7  and  N_8
REMARK                            x       y       z     vdW  Elec       q    Type
REMARK                         _______ _______ _______ _____ _____    ______ ____
ROOT
ATOM      1  C   UNL     1       1.408   2.820  20.730  0.00  0.00    +0.000 C 
ATOM      2  C   UNL     1       2.435   2.361  19.703  0.00  0.00    +0.000 C 
ATOM      3  C   UNL     1       3.632   3.309  19.646  0.00  0.00    +0.000 C 
ATOM      4  N   UNL     1       3.210   4.691  19.358  0.00  0.00    +0.000 NA
ATOM      5  C   UNL     1       2.297   5.164  20.420  0.00  0.00    +0.000 C 
ATOM      6  C   UNL     1       1.048   4.284  20.514  0.00  0.00    +0.000 C 
ENDROOT
BRANCH   1   7
ATOM      7  O   UNL     1       1.927   2.653  22.050  0.00  0.00    +0.000 OA
ATOM      8  H   UNL     1       1.199   2.819  22.674  0.00  0.00    +0.000 HD
ENDBRANCH   1   7
BRANCH   4   9
ATOM      9  C   UNL     1       4.380   5.601  19.266  0.00  0.00    +0.000 C 
BRANCH   9  10
ATOM     10  C   UNL     1       5.674   4.888  18.858  0.00  0.00    +0.000 C 
BRANCH  10  11
ATOM     11  N   UNL     1       5.941   5.011  17.436  0.00  0.00    +0.000 N 
ATOM     12  C   UNL     1       5.127   5.569  16.493  0.00  0.00    +0.000 A 
ATOM     13  C   UNL     1       5.754   5.372  15.286  0.00  0.00    +0.000 A 
ATOM     14  C   UNL     1       6.939   4.686  15.608  0.00  0.00    +0.000 A 
ATOM     15  N   UNL     1       7.062   4.470  16.919  0.00  0.00    +0.000 NA
ENDBRANCH  10  11
ENDBRANCH   9  10
ENDBRANCH   4   9
TORSDOF 4
ENDMDL
MODEL 4
REMARK VINA RESULT:      -5.7      2.783      5.844
REMARK  Name = 
REMARK  4 active torsions:
REMARK  status: ('A' for Active; 'I' for Inactive)
REMARK    1  A    between atoms: O_1  and  C_2
REMARK    2  A    between atoms: N_5  and  C_6
REMARK    3  A    between atoms: C_6  and  C_7
REMARK    4  A    between atoms: C_7  and  N_8
REMARK                            x       y       z     vdW  Elec       q    Type
REMARK                         _______ _______ _______ _____ _____    ______ ____
ROOT
ATOM      1  C   UNL     1       1.025   3.187  20.789  0.00  0.00    +0.000 C 
ATOM      2  C   UNL     1       1.181   2.398  19.496  0.00  0.00    +0.000 C 
ATOM      3  C   UNL     1       2.574   2.577  18.894  0.00  0.00    +0.000 C 
ATOM      4  N   UNL     1       2.879   4.000  18.659  0.00  0.00    +0.000 NA
ATOM      5  C   UNL     1       2.831   4.736  19.940  0.00  0.00    +0.000 C 
ATOM      6  C   UNL     1       1.448   4.637  20.589  0.00  0.00    +0.000 C 
ENDROOT
BRANCH   1   7
ATOM      7  O   UNL     1       1.823   2.602  21.818  0.00  0.00    +0.000 OA
ATOM      8  H   UNL     1       1.346   1.824  22.153  0.00  0.00    +0.000 HD
ENDBRANCH   1   7
BRANCH   4   9
ATOM      9  C   UNL     1       4.218   4.166  18.040  0.00  0.00    +0.000 C 
BRANCH   9  10
ATOM     10  C   UNL     1       5.349   4.300  19.066  0.00  0.00    +0.000 C 
BRANCH  10  11
ATOM     11  N   UNL     1       6.281   5.358  18.718  0.00  0.00    +0.000 N 
ATOM     12  C   UNL     1       6.192   6.214  17.658  0.00  0.00    +0.000 A 
ATOM     13  C   UNL     1       7.340   6.970  17.684  0.00  0.00    +0.000 A 
ATOM     14  C   UNL     1       8.056   6.493  18.797  0.00  0.00    +0.000 A 
ATOM     15  N   UNL     1       7.410   5.515  19.436  0.00  0.00    +0.000 NA
ENDBRANCH  10  11
ENDBRANCH   9  10
ENDBRANCH   4   9
TORSDOF 4
ENDMDL
MODEL 5
REMARK VINA RESULT:      -5.7      2.280      5.633
REMARK  Name = 
REMARK  4 active torsions:
REMARK  status: ('A' for Active; 'I' for Inactive)
REMARK    1  A    between atoms: O_1  and  C_2
REMARK    2  A    between atoms: N_5  and  C_6
REMARK    3  A    between atoms: C_6  and  C_7
REMARK    4  A    between atoms: C_7  and  N_8
REMARK                            x       y       z     vdW  Elec       q    Type
REMARK                         _______ _______ _______ _____ _____    ______ ____
ROOT
ATOM      1  C   UNL     1       1.653   3.877  21.332  0.00  0.00    +0.000 C 
ATOM      2  C   UNL     1       2.625   2.712  21.460  0.00  0.00    +0.000 C 
ATOM      3  C   UNL     1       3.516   2.587  20.225  0.00  0.00    +0.000 C 
ATOM      4  N   UNL     1       2.716   2.447  18.996  0.00  0.00    +0.000 NA
ATOM      5  C   UNL     1       1.854   3.636  18.826  0.00  0.00    +0.000 C 
ATOM      6  C   UNL     1       0.899   3.807  20.010  0.00  0.00    +0.000 C 
ENDROOT
BRANCH   1   7
ATOM      7  O   UNL     1       2.361   5.115  21.405  0.00  0.00    +0.000 OA
ATOM      8  H   UNL     1       3.310   4.915  21.333  0.00  0.00    +0.000 HD
ENDBRANCH   1   7
BRANCH   4   9
ATOM      9  C   UNL     1       3.586   2.290  17.804  0.00  0.00    +0.000 C 
BRANCH   9  10
ATOM     10  C   UNL     1       3.764   3.586  17.005  0.00  0.00    +0.000 C 
BRANCH  10  11
ATOM     11  N   UNL     1       5.156   3.985  16.913  0.00  0.00    +0.000 N 
ATOM     12  C   UNL     1       5.939   4.471  17.920  0.00  0.00    +0.000 A 
ATOM     13  C   UNL     1       7.143   4.798  17.340  0.00  0.00    +0.000 A 
ATOM     14  C   UNL     1       6.984   4.470  15.982  0.00  0.00    +0.000 A 
ATOM     15  N   UNL     1       5.777   3.967  15.717  0.00  0.00    +0.000 NA
ENDBRANCH  10  11
ENDBRANCH   9  10
ENDBRANCH   4   9
TORSDOF 4
ENDMDL
MODEL 6
REMARK VINA RESULT:      -5.6      2.695      5.642
REMARK  Name = 
REMARK  4 active torsions:
REMARK  status: ('A' for Active; 'I' for Inactive)
REMARK    1  A    between atoms: O_1  and  C_2
REMARK    2  A    between atoms: N_5  and  C_6
REMARK    3  A    between atoms: C_6  and  C_7
REMARK    4  A    between atoms: C_7  and  N_8
REMARK                            x       y       z     vdW  Elec       q    Type
REMARK                         _______ _______ _______ _____ _____    ______ ____
ROOT
ATOM      1  C   UNL     1       1.414   3.772  21.030  0.00  0.00    +0.000 C 
ATOM      2  C   UNL     1       1.847   5.024  20.279  0.00  0.00    +0.000 C 
ATOM      3  C   UNL     1       2.548   4.677  18.967  0.00  0.00    +0.000 C 
ATOM      4  N   UNL     1       3.706   3.794  19.193  0.00  0.00    +0.000 NA
ATOM      5  C   UNL     1       3.257   2.536  19.824  0.00  0.00    +0.000 C 
ATOM      6  C   UNL     1       2.576   2.798  21.170  0.00  0.00    +0.000 C 
ENDROOT
BRANCH   1   7
ATOM      7  O   UNL     1       0.344   3.131  20.335  0.00  0.00    +0.000 OA
ATOM      8  H   UNL     1      -0.379   3.776  20.249  0.00  0.00    +0.000 HD
ENDBRANCH   1   7
BRANCH   4   9
ATOM      9  C   UNL     1       4.405   3.489  17.919  0.00  0.00    +0.000 C 
BRANCH   9  10
ATOM     10  C   UNL     1       4.799   4.741  17.127  0.00  0.00    +0.000 C 
BRANCH  10  11
ATOM     11  N   UNL     1       5.974   5.391  17.680  0.00  0.00    +0.000 N 
ATOM     12  C   UNL     1       6.396   6.667  17.438  0.00  0.00    +0.000 A 
ATOM     13  C   UNL     1       7.594   6.800  18.100  0.00  0.00    +0.000 A 
ATOM     14  C   UNL     1       7.806   5.551  18.709  0.00  0.00    +0.000 A 
ATOM     15  N   UNL     1       6.817   4.690  18.463  0.00  0.00    +0.000 NA
ENDBRANCH  10  11
ENDBRANCH   9  10
ENDBRANCH   4   9
TORSDOF 4
ENDMDL
MODEL 7
REMARK VINA RESULT:      -5.6      1.306      1.386
REMARK  Name = 
REMARK  4 active torsions:
REMARK  status: ('A' for Active; 'I' for Inactive)
REMARK    1  A    between atoms: O_1  and  C_2
REMARK    2  A    between atoms: N_5  and  C_6
REMARK    3  A    between atoms: C_6  and  C_7
REMARK    4  A    between atoms: C_7  and  N_8
REMARK                            x       y       z     vdW  Elec       q    Type
REMARK                         _______ _______ _______ _____ _____    ______ ____
ROOT
ATOM      1  C   UNL     1       6.081   5.356  14.996  0.00  0.00    +0.000 C 
ATOM      2  C   UNL     1       5.218   6.467  15.579  0.00  0.00    +0.000 C 
ATOM      3  C   UNL     1       5.131   6.369  17.102  0.00  0.00    +0.000 C 
ATOM      4  N   UNL     1       4.620   5.054  17.527  0.00  0.00    +0.000 NA
ATOM      5  C   UNL     1       5.526   3.989  17.046  0.00  0.00    +0.000 C 
ATOM      6  C   UNL     1       5.635   3.997  15.519  0.00  0.00    +0.000 C 
ENDROOT
BRANCH   1   7
ATOM      7  O   UNL     1       7.450   5.567  15.342  0.00  0.00    +0.000 OA
ATOM      8  H   UNL     1       7.468   6.061  16.180  0.00  0.00    +0.000 HD
ENDBRANCH   1   7
BRANCH   4   9
ATOM      9  C   UNL     1       4.503   4.976  19.005  0.00  0.00    +0.000 C 
BRANCH   9  10
ATOM     10  C   UNL     1       4.327   3.545  19.526  0.00  0.00    +0.000 C 
BRANCH  10  11
ATOM     11  N   UNL     1       3.000   3.320  20.071  0.00  0.00    +0.000 N 
ATOM     12  C   UNL     1       1.815   3.753  19.550  0.00  0.00    +0.000 A 
ATOM     13  C   UNL     1       0.847   3.385  20.454  0.00  0.00    +0.000 A 
ATOM     14  C   UNL     1       1.550   2.735  21.485  0.00  0.00    +0.000 A 
ATOM     15  N   UNL     1       2.863   2.686  21.252  0.00  0.00    +0.000 NA
ENDBRANCH  10  11
ENDBRANCH   9  10
ENDBRANCH   4   9
TORSDOF 4
ENDMDL
MODEL 8
REMARK VINA RESULT:      -5.6      0.615      1.167
REMARK  Name = 
REMARK  4 active torsions:
REMARK  status: ('A' for Active; 'I' for Inactive)
REMARK    1  A    between atoms: O_1  and  C_2
REMARK    2  A    between atoms: N_5  and  C_6
REMARK    3  A    between atoms: C_6  and  C_7
REMARK    4  A    between atoms: C_7  and  N_8
REMARK                            x       y       z     vdW  Elec       q    Type
REMARK                         _______ _______ _______ _____ _____    ______ ____
ROOT
ATOM      1  C   UNL     1       7.210   4.795  16.035  0.00  0.00    +0.000 C 
ATOM      2  C   UNL     1       6.801   6.186  16.503  0.00  0.00    +0.000 C 
ATOM      3  C   UNL     1       5.709   6.120  17.569  0.00  0.00    +0.000 C 
ATOM      4  N   UNL     1       4.530   5.380  17.086  0.00  0.00    +0.000 NA
ATOM      5  C   UNL     1       4.919   3.998  16.738  0.00  0.00    +0.000 C 
ATOM      6  C   UNL     1       5.987   3.978  15.641  0.00  0.00    +0.000 C 
ENDROOT
BRANCH   1   7
ATOM      7  O   UNL     1       7.913   4.117  17.076  0.00  0.00    +0.000 OA
ATOM      8  H   UNL     1       8.093   4.764  17.779  0.00  0.00    +0.000 HD
ENDBRANCH   1   7
BRANCH   4   9
ATOM      9  C   UNL     1       3.457   5.351  18.113  0.00  0.00    +0.000 C 
BRANCH   9  10
ATOM     10  C   UNL     1       3.861   4.611  19.393  0.00  0.00    +0.000 C 
BRANCH  10  11
ATOM     11  N   UNL     1       2.734   3.944  20.018  0.00  0.00    +0.000 N 
ATOM     12  C   UNL     1       2.765   3.140  21.121  0.00  0.00    +0.000 A 
ATOM     13  C   UNL     1       1.484   2.665  21.280  0.00  0.00    +0.000 A 
ATOM     14  C   UNL     1       0.757   3.241  20.223  0.00  0.00    +0.000 A 
ATOM     15  N   UNL     1       1.513   4.029  19.455  0.00  0.00    +0.000 NA
ENDBRANCH  10  11
ENDBRANCH   9  10
ENDBRANCH   4   9
TORSDOF 4
ENDMDL
MODEL 9
REMARK VINA RESULT:      -5.6      1.535      1.848
REMARK  Name = 
REMARK  4 active torsions:
REMARK  status: ('A' for Active; 'I' for Inactive)
REMARK    1  A    between atoms: O_1  and  C_2
REMARK    2  A    between atoms: N_5  and  C_6
REMARK    3  A    between atoms: C_6  and  C_7
REMARK    4  A    between atoms: C_7  and  N_8
REMARK                            x       y       z     vdW  Elec       q    Type
REMARK                         _______ _______ _______ _____ _____    ______ ____
ROOT
ATOM      1  C   UNL     1       6.805   4.589  16.441  0.00  0.00    +0.000 C 
ATOM      2  C   UNL     1       6.995   4.636  17.951  0.00  0.00    +0.000 C 
ATOM      3  C   UNL     1       5.657   4.741  18.682  0.00  0.00    +0.000 C 
ATOM      4  N   UNL     1       4.890   5.915  18.231  0.00  0.00    +0.000 NA
ATOM      5  C   UNL     1       4.617   5.805  16.782  0.00  0.00    +0.000 C 
ATOM      6  C   UNL     1       5.916   5.734  15.974  0.00  0.00    +0.000 C 
ENDROOT
BRANCH   1   7
ATOM      7  O   UNL     1       6.211   3.348  16.061  0.00  0.00    +0.000 OA
ATOM      8  H   UNL     1       6.552   2.663  16.662  0.00  0.00    +0.000 HD
ENDBRANCH   1   7
BRANCH   4   9
ATOM      9  C   UNL     1       3.607   6.033  18.970  0.00  0.00    +0.000 C 
BRANCH   9  10
ATOM     10  C   UNL     1       2.390   5.593  18.148  0.00  0.00    +0.000 C 
BRANCH  10  11
ATOM     11  N   UNL     1       1.731   4.435  18.724  0.00  0.00    +0.000 N 
ATOM     12  C   UNL     1       1.502   4.195  20.049  0.00  0.00    +0.000 A 
ATOM     13  C   UNL     1       0.942   2.941  20.115  0.00  0.00    +0.000 A 
ATOM     14  C   UNL     1       0.875   2.509  18.778  0.00  0.00    +0.000 A 
ATOM     15  N   UNL     1       1.348   3.420  17.925  0.00  0.00    +0.000 NA
ENDBRANCH  10  11
ENDBRANCH   9  10
ENDBRANCH   4   9
TORSDOF 4
ENDMDL
