MODEL 1
REMARK VINA RESULT:      -7.3      0.000      0.000
REMARK  Name = 
REMARK  12 active torsions:
REMARK  status: ('A' for Active; 'I' for Inactive)
REMARK    1  A    between atoms: C_1  and  C_2
REMARK    2  A    between atoms: C_2  and  N_3
REMARK    3  A    between atoms: N_3  and  C_4
REMARK    4  A    between atoms: N_3  and  C_6
REMARK    5  A    between atoms: C_4  and  C_5
REMARK    6  A    between atoms: C_6  and  C_7
REMARK    7  A    between atoms: C_7  and  C_8
REMARK    8  A    between atoms: C_8  and  N_9
REMARK    9  A    between atoms: C_10  and  C_12
REMARK   10  A    between atoms: C_12  and  C_13
REMARK   11  A    between atoms: C_13  and  C_14
REMARK   12  A    between atoms: C_14  and  N_15
REMARK                            x       y       z     vdW  Elec       q    Type
REMARK                         _______ _______ _______ _____ _____    ______ ____
ROOT
ATOM      1  C   UNL     1       5.025   4.330  15.868  0.00  0.00    +0.000 C 
ENDROOT
BRANCH   1   2
ATOM      2  N   UNL     1       4.126   4.500  17.008  0.00  0.00    +0.000 N 
ATOM      3  C   UNL     1       3.563   3.354  17.570  0.00  0.00    +0.000 C 
ATOM      4  O   UNL     1       3.664   2.228  17.093  0.00  0.00    +0.000 OA
ATOM      5  C   UNL     1       2.798   3.533  18.823  0.00  0.00    +0.000 A 
ATOM      6  C   UNL     1       2.366   2.406  19.538  0.00  0.00    +0.000 A 
ATOM      7  C   UNL     1       1.643   2.563  20.717  0.00  0.00    +0.000 A 
ATOM      8  C   UNL     1       1.329   3.846  21.173  0.00  0.00    +0.000 A 
ATOM      9  C   UNL     1       1.748   4.980  20.463  0.00  0.00    +0.000 A 
ATOM     10  C   UNL     1       1.425   6.275  20.904  0.00  0.00    +0.000 A 
ATOM     11  C   UNL     1       1.851   7.397  20.193  0.00  0.00    +0.000 A 
ATOM     12  C   UNL     1       2.623   7.239  19.045  0.00  0.00    +0.000 A 
ATOM     13  C   UNL     1       2.956   5.955  18.596  0.00  0.00    +0.000 A 
ATOM     14  C   UNL     1       2.510   4.822  19.282  0.00  0.00    +0.000 A 
ATOM     15  C   UNL     1       3.826   5.800  17.406  0.00  0.00    +0.000 C 
ATOM     16  O   UNL     1       4.244   6.803  16.835  0.00  0.00    +0.000 OA
ENDBRANCH   1   2
BRANCH   1  17
ATOM     17  C   UNL     1       6.483   4.107  16.294  0.00  0.00    +0.000 C 
BRANCH  17  18
ATOM     18  C   UNL     1       7.368   5.314  15.968  0.00  0.00    +0.000 C 
BRANCH  18  20
ATOM     19  N   UNL     1       7.416   7.572  16.853  0.00  0.00    +0.000 N 
ATOM     20  C   UNL     1       7.510   6.234  17.159  0.00  0.00    +0.000 C 
ATOM     21  O   UNL     1       7.704   5.821  18.297  0.00  0.00    +0.000 OA
ATOM     22  H   UNL     1       7.447   7.876  15.888  0.00  0.00    +0.000 HD
BRANCH  19  23
ATOM     23  C   UNL     1       7.546   8.576  17.888  0.00  0.00    +0.000 C 
BRANCH  23  24
ATOM     24  C   UNL     1       8.799   9.428  17.713  0.00  0.00    +0.000 C 
BRANCH  24  25
ATOM     25  C   UNL     1       8.801  10.697  18.581  0.00  0.00    +0.000 C 
BRANCH  25  26
ATOM     26  N   UNL     1       9.847  10.727  19.622  0.00  0.00    +0.000 NA
BRANCH  26  28
ATOM     27  C   UNL     1      10.885  12.157  17.808  0.00  0.00    +0.000 C 
ATOM     28  C   UNL     1      11.012  11.512  19.183  0.00  0.00    +0.000 C 
ENDBRANCH  26  28
BRANCH  26  29
ATOM     29  C   UNL     1       9.299  11.143  20.926  0.00  0.00    +0.000 C 
ATOM     30  C   UNL     1       9.682  12.541  21.405  0.00  0.00    +0.000 C 
ENDBRANCH  26  29
ENDBRANCH  25  26
ENDBRANCH  24  25
ENDBRANCH  23  24
ENDBRANCH  19  23
ENDBRANCH  18  20
ENDBRANCH  17  18
ENDBRANCH   1  17
TORSDOF 10
ENDMDL
MODEL 2
REMARK VINA RESULT:      -6.9      0.998      1.717
REMARK  Name = 
REMARK  12 active torsions:
REMARK  status: ('A' for Active; 'I' for Inactive)
REMARK    1  A    between atoms: C_1  and  C_2
REMARK    2  A    between atoms: C_2  and  N_3
REMARK    3  A    between atoms: N_3  and  C_4
REMARK    4  A    between atoms: N_3  and  C_6
REMARK    5  A    between atoms: C_4  and  C_5
REMARK    6  A    between atoms: C_6  and  C_7
REMARK    7  A    between atoms: C_7  and  C_8
REMARK    8  A    between atoms: C_8  and  N_9
REMARK    9  A    between atoms: C_10  and  C_12
REMARK   10  A    between atoms: C_12  and  C_13
REMARK   11  A    between atoms: C_13  and  C_14
REMARK   12  A    between atoms: C_14  and  N_15
REMARK                            x       y       z     vdW  Elec       q    Type
REMARK                         _______ _______ _______ _____ _____    ______ ____
ROOT
ATOM      1  C   UNL     1       5.575   4.254  15.813  0.00  0.00    +0.000 C 
ENDROOT
BRANCH   1   2
ATOM      2  N   UNL     1       4.644   4.807  16.796  0.00  0.00    +0.000 N 
ATOM      3  C   UNL     1       4.085   3.933  17.728  0.00  0.00    +0.000 C 
ATOM      4  O   UNL     1       4.217   2.714  17.700  0.00  0.00    +0.000 OA
ATOM      5  C   UNL     1       3.285   4.540  18.814  0.00  0.00    +0.000 A 
ATOM      6  C   UNL     1       2.853   3.744  19.885  0.00  0.00    +0.000 A 
ATOM      7  C   UNL     1       2.097   4.304  20.910  0.00  0.00    +0.000 A 
ATOM      8  C   UNL     1       1.750   5.656  20.858  0.00  0.00    +0.000 A 
ATOM      9  C   UNL     1       2.168   6.461  19.789  0.00  0.00    +0.000 A 
ATOM     10  C   UNL     1       1.813   7.819  19.718  0.00  0.00    +0.000 A 
ATOM     11  C   UNL     1       2.239   8.613  18.653  0.00  0.00    +0.000 A 
ATOM     12  C   UNL     1       3.042   8.064  17.657  0.00  0.00    +0.000 A 
ATOM     13  C   UNL     1       3.409   6.713  17.717  0.00  0.00    +0.000 A 
ATOM     14  C   UNL     1       2.963   5.900  18.763  0.00  0.00    +0.000 A 
ATOM     15  C   UNL     1       4.312   6.155  16.683  0.00  0.00    +0.000 C 
ATOM     16  O   UNL     1       4.728   6.888  15.792  0.00  0.00    +0.000 OA
ENDBRANCH   1   2
BRANCH   1  17
ATOM     17  C   UNL     1       6.953   4.927  15.864  0.00  0.00    +0.000 C 
BRANCH  17  18
ATOM     18  C   UNL     1       7.644   4.720  17.217  0.00  0.00    +0.000 C 
BRANCH  18  20
ATOM     19  N   UNL     1       7.862   7.091  17.675  0.00  0.00    +0.000 N 
ATOM     20  C   UNL     1       7.397   5.886  18.147  0.00  0.00    +0.000 C 
ATOM     21  O   UNL     1       6.842   5.763  19.233  0.00  0.00    +0.000 OA
ATOM     22  H   UNL     1       8.478   7.120  16.872  0.00  0.00    +0.000 HD
BRANCH  19  23
ATOM     23  C   UNL     1       7.712   8.299  18.460  0.00  0.00    +0.000 C 
BRANCH  23  24
ATOM     24  C   UNL     1       8.798   9.326  18.154  0.00  0.00    +0.000 C 
BRANCH  24  25
ATOM     25  C   UNL     1       9.251  10.120  19.390  0.00  0.00    +0.000 C 
BRANCH  25  26
ATOM     26  N   UNL     1       9.836  11.442  19.089  0.00  0.00    +0.000 NA
BRANCH  26  28
ATOM     27  C   UNL     1      10.091  12.752  21.241  0.00  0.00    +0.000 C 
ATOM     28  C   UNL     1      10.736  11.884  20.167  0.00  0.00    +0.000 C 
ENDBRANCH  26  28
BRANCH  26  29
ATOM     29  C   UNL     1      10.447  11.470  17.748  0.00  0.00    +0.000 C 
ATOM     30  C   UNL     1      10.817  12.846  17.201  0.00  0.00    +0.000 C 
ENDBRANCH  26  29
ENDBRANCH  25  26
ENDBRANCH  24  25
ENDBRANCH  23  24
ENDBRANCH  19  23
ENDBRANCH  18  20
ENDBRANCH  17  18
ENDBRANCH   1  17
TORSDOF 10
ENDMDL
MODEL 3
REMARK VINA RESULT:      -6.7      4.066      7.798
REMARK  Name = 
REMARK  12 active torsions:
REMARK  status: ('A' for Active; 'I' for Inactive)
REMARK    1  A    between atoms: C_1  and  C_2
REMARK    2  A    between atoms: C_2  and  N_3
REMARK    3  A    between atoms: N_3  and  C_4
REMARK    4  A    between atoms: N_3  and  C_6
REMARK    5  A    between atoms: C_4  and  C_5
REMARK    6  A    between atoms: C_6  and  C_7
REMARK    7  A    between atoms: C_7  and  C_8
REMARK    8  A    between atoms: C_8  and  N_9
REMARK    9  A    between atoms: C_10  and  C_12
REMARK   10  A    between atoms: C_12  and  C_13
REMARK   11  A    between atoms: C_13  and  C_14
REMARK   12  A    between atoms: C_14  and  N_15
REMARK                            x       y       z     vdW  Elec       q    Type
REMARK                         _______ _______ _______ _____ _____    ______ ____
ROOT
ATOM      1  C   UNL     1       2.213   7.666  18.025  0.00  0.00    +0.000 C 
ENDROOT
BRANCH   1   2
ATOM      2  N   UNL     1       1.624   8.682  18.897  0.00  0.00    +0.000 N 
ATOM      3  C   UNL     1       1.508   9.980  18.399  0.00  0.00    +0.000 C 
ATOM      4  O   UNL     1       1.985  10.357  17.333  0.00  0.00    +0.000 OA
ATOM      5  C   UNL     1       0.756  10.947  19.228  0.00  0.00    +0.000 A 
ATOM      6  C   UNL     1       0.442  12.210  18.706  0.00  0.00    +0.000 A 
ATOM      7  C   UNL     1      -0.263  13.128  19.479  0.00  0.00    +0.000 A 
ATOM      8  C   UNL     1      -0.635  12.797  20.784  0.00  0.00    +0.000 A 
ATOM      9  C   UNL     1      -0.320  11.540  21.320  0.00  0.00    +0.000 A 
ATOM     10  C   UNL     1      -0.676  11.200  22.637  0.00  0.00    +0.000 A 
ATOM     11  C   UNL     1      -0.363   9.946  23.159  0.00  0.00    +0.000 A 
ATOM     12  C   UNL     1       0.292   9.008  22.366  0.00  0.00    +0.000 A 
ATOM     13  C   UNL     1       0.649   9.331  21.050  0.00  0.00    +0.000 A 
ATOM     14  C   UNL     1       0.368  10.595  20.524  0.00  0.00    +0.000 A 
ATOM     15  C   UNL     1       1.294   8.305  20.196  0.00  0.00    +0.000 C 
ATOM     16  O   UNL     1       1.501   7.186  20.656  0.00  0.00    +0.000 OA
ENDBRANCH   1   2
BRANCH   1  17
ATOM     17  C   UNL     1       3.747   7.694  18.041  0.00  0.00    +0.000 C 
BRANCH  17  18
ATOM     18  C   UNL     1       4.346   7.097  16.763  0.00  0.00    +0.000 C 
BRANCH  18  20
ATOM     19  N   UNL     1       5.122   5.382  18.292  0.00  0.00    +0.000 N 
ATOM     20  C   UNL     1       4.817   5.677  16.984  0.00  0.00    +0.000 C 
ATOM     21  O   UNL     1       4.928   4.865  16.073  0.00  0.00    +0.000 OA
ATOM     22  H   UNL     1       5.200   6.124  18.977  0.00  0.00    +0.000 HD
BRANCH  19  23
ATOM     23  C   UNL     1       5.600   4.066  18.660  0.00  0.00    +0.000 C 
BRANCH  23  24
ATOM     24  C   UNL     1       4.566   3.277  19.456  0.00  0.00    +0.000 C 
BRANCH  24  25
ATOM     25  C   UNL     1       3.577   2.501  18.572  0.00  0.00    +0.000 C 
BRANCH  25  26
ATOM     26  N   UNL     1       2.285   2.194  19.218  0.00  0.00    +0.000 NA
BRANCH  26  28
ATOM     27  C   UNL     1       1.351   3.358  21.264  0.00  0.00    +0.000 C 
ATOM     28  C   UNL     1       2.362   2.380  20.677  0.00  0.00    +0.000 C 
ENDBRANCH  26  28
BRANCH  26  29
ATOM     29  C   UNL     1       1.174   2.920  18.578  0.00  0.00    +0.000 C 
ATOM     30  C   UNL     1       1.562   4.065  17.646  0.00  0.00    +0.000 C 
ENDBRANCH  26  29
ENDBRANCH  25  26
ENDBRANCH  24  25
ENDBRANCH  23  24
ENDBRANCH  19  23
ENDBRANCH  18  20
ENDBRANCH  17  18
ENDBRANCH   1  17
TORSDOF 10
ENDMDL
MODEL 4
REMARK VINA RESULT:      -6.7      1.455      2.025
REMARK  Name = 
REMARK  12 active torsions:
REMARK  status: ('A' for Active; 'I' for Inactive)
REMARK    1  A    between atoms: C_1  and  C_2
REMARK    2  A    between atoms: C_2  and  N_3
REMARK    3  A    between atoms: N_3  and  C_4
REMARK    4  A    between atoms: N_3  and  C_6
REMARK    5  A    between atoms: C_4  and  C_5
REMARK    6  A    between atoms: C_6  and  C_7
REMARK    7  A    between atoms: C_7  and  C_8
REMARK    8  A    between atoms: C_8  and  N_9
REMARK    9  A    between atoms: C_10  and  C_12
REMARK   10  A    between atoms: C_12  and  C_13
REMARK   11  A    between atoms: C_13  and  C_14
REMARK   12  A    between atoms: C_14  and  N_15
REMARK                            x       y       z     vdW  Elec       q    Type
REMARK                         _______ _______ _______ _____ _____    ______ ____
ROOT
ATOM      1  C   UNL     1       5.849   6.092  16.273  0.00  0.00    +0.000 C 
ENDROOT
BRANCH   1   2
ATOM      2  N   UNL     1       4.802   5.487  17.095  0.00  0.00    +0.000 N 
ATOM      3  C   UNL     1       4.545   4.126  16.925  0.00  0.00    +0.000 C 
ATOM      4  O   UNL     1       5.043   3.433  16.043  0.00  0.00    +0.000 OA
ATOM      5  C   UNL     1       3.608   3.500  17.882  0.00  0.00    +0.000 A 
ATOM      6  C   UNL     1       3.449   2.107  17.887  0.00  0.00    +0.000 A 
ATOM      7  C   UNL     1       2.568   1.508  18.782  0.00  0.00    +0.000 A 
ATOM      8  C   UNL     1       1.825   2.300  19.660  0.00  0.00    +0.000 A 
ATOM      9  C   UNL     1       1.968   3.695  19.660  0.00  0.00    +0.000 A 
ATOM     10  C   UNL     1       1.215   4.504  20.529  0.00  0.00    +0.000 A 
ATOM     11  C   UNL     1       1.369   5.890  20.525  0.00  0.00    +0.000 A 
ATOM     12  C   UNL     1       2.292   6.483  19.668  0.00  0.00    +0.000 A 
ATOM     13  C   UNL     1       3.053   5.689  18.801  0.00  0.00    +0.000 A 
ATOM     14  C   UNL     1       2.887   4.302  18.773  0.00  0.00    +0.000 A 
ATOM     15  C   UNL     1       4.075   6.326  17.935  0.00  0.00    +0.000 C 
ATOM     16  O   UNL     1       4.238   7.540  17.996  0.00  0.00    +0.000 OA
ENDBRANCH   1   2
BRANCH   1  17
ATOM     17  C   UNL     1       7.260   5.771  16.785  0.00  0.00    +0.000 C 
BRANCH  17  18
ATOM     18  C   UNL     1       7.590   6.533  18.073  0.00  0.00    +0.000 C 
BRANCH  18  20
ATOM     19  N   UNL     1       8.647   8.641  18.641  0.00  0.00    +0.000 N 
ATOM     20  C   UNL     1       7.743   8.015  17.814  0.00  0.00    +0.000 C 
ATOM     21  O   UNL     1       7.107   8.607  16.951  0.00  0.00    +0.000 OA
ATOM     22  H   UNL     1       9.007   8.162  19.457  0.00  0.00    +0.000 HD
BRANCH  19  23
ATOM     23  C   UNL     1       8.893  10.063  18.523  0.00  0.00    +0.000 C 
BRANCH  23  24
ATOM     24  C   UNL     1       9.888  10.565  19.565  0.00  0.00    +0.000 C 
BRANCH  24  25
ATOM     25  C   UNL     1       9.224  11.012  20.877  0.00  0.00    +0.000 C 
BRANCH  25  26
ATOM     26  N   UNL     1       9.695  12.314  21.391  0.00  0.00    +0.000 NA
BRANCH  26  28
ATOM     27  C   UNL     1      11.017  14.184  20.311  0.00  0.00    +0.000 C 
ATOM     28  C   UNL     1       9.763  13.318  20.317  0.00  0.00    +0.000 C 
ENDBRANCH  26  28
BRANCH  26  29
ATOM     29  C   UNL     1       8.916  12.744  22.566  0.00  0.00    +0.000 C 
ATOM     30  C   UNL     1       7.841  13.798  22.317  0.00  0.00    +0.000 C 
ENDBRANCH  26  29
ENDBRANCH  25  26
ENDBRANCH  24  25
ENDBRANCH  23  24
ENDBRANCH  19  23
ENDBRANCH  18  20
ENDBRANCH  17  18
ENDBRANCH   1  17
TORSDOF 10
ENDMDL
MODEL 5
REMARK VINA RESULT:      -6.7      4.570      7.499
REMARK  Name = 
REMARK  12 active torsions:
REMARK  status: ('A' for Active; 'I' for Inactive)
REMARK    1  A    between atoms: C_1  and  C_2
REMARK    2  A    between atoms: C_2  and  N_3
REMARK    3  A    between atoms: N_3  and  C_4
REMARK    4  A    between atoms: N_3  and  C_6
REMARK    5  A    between atoms: C_4  and  C_5
REMARK    6  A    between atoms: C_6  and  C_7
REMARK    7  A    between atoms: C_7  and  C_8
REMARK    8  A    between atoms: C_8  and  N_9
REMARK    9  A    between atoms: C_10  and  C_12
REMARK   10  A    between atoms: C_12  and  C_13
REMARK   11  A    between atoms: C_13  and  C_14
REMARK   12  A    between atoms: C_14  and  N_15
REMARK                            x       y       z     vdW  Elec       q    Type
REMARK                         _______ _______ _______ _____ _____    ______ ____
ROOT
ATOM      1  C   UNL     1       2.771   8.590  18.372  0.00  0.00    +0.000 C 
ENDROOT
BRANCH   1   2
ATOM      2  N   UNL     1       2.805   7.139  18.553  0.00  0.00    +0.000 N 
ATOM      3  C   UNL     1       2.146   6.605  19.660  0.00  0.00    +0.000 C 
ATOM      4  O   UNL     1       1.655   7.275  20.563  0.00  0.00    +0.000 OA
ATOM      5  C   UNL     1       2.047   5.131  19.729  0.00  0.00    +0.000 A 
ATOM      6  C   UNL     1       1.241   4.536  20.711  0.00  0.00    +0.000 A 
ATOM      7  C   UNL     1       1.143   3.149  20.786  0.00  0.00    +0.000 A 
ATOM      8  C   UNL     1       1.867   2.352  19.896  0.00  0.00    +0.000 A 
ATOM      9  C   UNL     1       2.682   2.935  18.916  0.00  0.00    +0.000 A 
ATOM     10  C   UNL     1       3.427   2.143  18.024  0.00  0.00    +0.000 A 
ATOM     11  C   UNL     1       4.231   2.732  17.049  0.00  0.00    +0.000 A 
ATOM     12  C   UNL     1       4.284   4.119  16.938  0.00  0.00    +0.000 A 
ATOM     13  C   UNL     1       3.543   4.921  17.817  0.00  0.00    +0.000 A 
ATOM     14  C   UNL     1       2.758   4.344  18.818  0.00  0.00    +0.000 A 
ATOM     15  C   UNL     1       3.562   6.394  17.652  0.00  0.00    +0.000 C 
ATOM     16  O   UNL     1       4.225   6.887  16.746  0.00  0.00    +0.000 OA
ENDBRANCH   1   2
BRANCH   1  17
ATOM     17  C   UNL     1       1.529   9.059  17.603  0.00  0.00    +0.000 C 
BRANCH  17  18
ATOM     18  C   UNL     1       0.612   9.929  18.469  0.00  0.00    +0.000 C 
BRANCH  18  20
ATOM     19  N   UNL     1       0.993  11.640  20.145  0.00  0.00    +0.000 N 
ATOM     20  C   UNL     1       1.292  11.219  18.871  0.00  0.00    +0.000 C 
ATOM     21  O   UNL     1       2.036  11.839  18.120  0.00  0.00    +0.000 OA
ATOM     22  H   UNL     1       0.235  11.208  20.659  0.00  0.00    +0.000 HD
BRANCH  19  23
ATOM     23  C   UNL     1       1.558  12.866  20.669  0.00  0.00    +0.000 C 
BRANCH  23  24
ATOM     24  C   UNL     1       0.564  13.639  21.530  0.00  0.00    +0.000 C 
BRANCH  24  25
ATOM     25  C   UNL     1      -0.869  13.618  20.974  0.00  0.00    +0.000 C 
BRANCH  25  26
ATOM     26  N   UNL     1      -1.698  12.494  21.455  0.00  0.00    +0.000 NA
BRANCH  26  28
ATOM     27  C   UNL     1      -1.006  10.680  23.082  0.00  0.00    +0.000 C 
ATOM     28  C   UNL     1      -1.363  12.143  22.846  0.00  0.00    +0.000 C 
ENDBRANCH  26  28
BRANCH  26  29
ATOM     29  C   UNL     1      -3.132  12.745  21.228  0.00  0.00    +0.000 C 
ATOM     30  C   UNL     1      -4.022  12.761  22.469  0.00  0.00    +0.000 C 
ENDBRANCH  26  29
ENDBRANCH  25  26
ENDBRANCH  24  25
ENDBRANCH  23  24
ENDBRANCH  19  23
ENDBRANCH  18  20
ENDBRANCH  17  18
ENDBRANCH   1  17
TORSDOF 10
ENDMDL
MODEL 6
REMARK VINA RESULT:      -6.6      5.002      8.042
REMARK  Name = 
REMARK  12 active torsions:
REMARK  status: ('A' for Active; 'I' for Inactive)
REMARK    1  A    between atoms: C_1  and  C_2
REMARK    2  A    between atoms: C_2  and  N_3
REMARK    3  A    between atoms: N_3  and  C_4
REMARK    4  A    between atoms: N_3  and  C_6
REMARK    5  A    between atoms: C_4  and  C_5
REMARK    6  A    between atoms: C_6  and  C_7
REMARK    7  A    between atoms: C_7  and  C_8
REMARK    8  A    between atoms: C_8  and  N_9
REMARK    9  A    between atoms: C_10  and  C_12
REMARK   10  A    between atoms: C_12  and  C_13
REMARK   11  A    between atoms: C_13  and  C_14
REMARK   12  A    between atoms: C_14  and  N_15
REMARK                            x       y       z     vdW  Elec       q    Type
REMARK                         _______ _______ _______ _____ _____    ______ ____
ROOT
ATOM      1  C   UNL     1       2.015   8.826  19.290  0.00  0.00    +0.000 C 
ENDROOT
BRANCH   1   2
ATOM      2  N   UNL     1       2.308   7.398  19.171  0.00  0.00    +0.000 N 
ATOM      3  C   UNL     1       1.793   6.544  20.146  0.00  0.00    +0.000 C 
ATOM      4  O   UNL     1       1.224   6.921  21.166  0.00  0.00    +0.000 OA
ATOM      5  C   UNL     1       1.955   5.093  19.914  0.00  0.00    +0.000 A 
ATOM      6  C   UNL     1       1.301   4.179  20.753  0.00  0.00    +0.000 A 
ATOM      7  C   UNL     1       1.450   2.811  20.544  0.00  0.00    +0.000 A 
ATOM      8  C   UNL     1       2.270   2.351  19.511  0.00  0.00    +0.000 A 
ATOM      9  C   UNL     1       2.935   3.254  18.670  0.00  0.00    +0.000 A 
ATOM     10  C   UNL     1       3.775   2.803  17.636  0.00  0.00    +0.000 A 
ATOM     11  C   UNL     1       4.428   3.710  16.802  0.00  0.00    +0.000 A 
ATOM     12  C   UNL     1       4.234   5.077  16.977  0.00  0.00    +0.000 A 
ATOM     13  C   UNL     1       3.396   5.541  17.999  0.00  0.00    +0.000 A 
ATOM     14  C   UNL     1       2.760   4.644  18.862  0.00  0.00    +0.000 A 
ATOM     15  C   UNL     1       3.151   6.996  18.139  0.00  0.00    +0.000 C 
ATOM     16  O   UNL     1       3.685   7.772  17.352  0.00  0.00    +0.000 OA
ENDBRANCH   1   2
BRANCH   1  17
ATOM     17  C   UNL     1       0.899   9.280  18.339  0.00  0.00    +0.000 C 
BRANCH  17  18
ATOM     18  C   UNL     1       0.502  10.741  18.575  0.00  0.00    +0.000 C 
BRANCH  18  20
ATOM     19  N   UNL     1      -1.441  11.876  19.479  0.00  0.00    +0.000 N 
ATOM     20  C   UNL     1      -1.000  10.908  18.606  0.00  0.00    +0.000 C 
ATOM     21  O   UNL     1      -1.757  10.230  17.922  0.00  0.00    +0.000 OA
ATOM     22  H   UNL     1      -0.807  12.276  20.158  0.00  0.00    +0.000 HD
BRANCH  19  23
ATOM     23  C   UNL     1      -2.856  12.143  19.630  0.00  0.00    +0.000 C 
BRANCH  23  24
ATOM     24  C   UNL     1      -3.126  13.313  20.570  0.00  0.00    +0.000 C 
BRANCH  24  25
ATOM     25  C   UNL     1      -2.995  12.944  22.057  0.00  0.00    +0.000 C 
BRANCH  25  26
ATOM     26  N   UNL     1      -1.629  12.578  22.480  0.00  0.00    +0.000 NA
BRANCH  26  28
ATOM     27  C   UNL     1      -2.013  14.566  24.001  0.00  0.00    +0.000 C 
ATOM     28  C   UNL     1      -1.025  13.638  23.304  0.00  0.00    +0.000 C 
ENDBRANCH  26  28
BRANCH  26  29
ATOM     29  C   UNL     1      -1.596  11.242  23.103  0.00  0.00    +0.000 C 
ATOM     30  C   UNL     1      -0.446  10.329  22.687  0.00  0.00    +0.000 C 
ENDBRANCH  26  29
ENDBRANCH  25  26
ENDBRANCH  24  25
ENDBRANCH  23  24
ENDBRANCH  19  23
ENDBRANCH  18  20
ENDBRANCH  17  18
ENDBRANCH   1  17
TORSDOF 10
ENDMDL
MODEL 7
REMARK VINA RESULT:      -6.6      5.903      9.550
REMARK  Name = 
REMARK  12 active torsions:
REMARK  status: ('A' for Active; 'I' for Inactive)
REMARK    1  A    between atoms: C_1  and  C_2
REMARK    2  A    between atoms: C_2  and  N_3
REMARK    3  A    between atoms: N_3  and  C_4
REMARK    4  A    between atoms: N_3  and  C_6
REMARK    5  A    between atoms: C_4  and  C_5
REMARK    6  A    between atoms: C_6  and  C_7
REMARK    7  A    between atoms: C_7  and  C_8
REMARK    8  A    between atoms: C_8  and  N_9
REMARK    9  A    between atoms: C_10  and  C_12
REMARK   10  A    between atoms: C_12  and  C_13
REMARK   11  A    between atoms: C_13  and  C_14
REMARK   12  A    between atoms: C_14  and  N_15
REMARK                            x       y       z     vdW  Elec       q    Type
REMARK                         _______ _______ _______ _____ _____    ______ ____
ROOT
ATOM      1  C   UNL     1       2.509   8.773  18.540  0.00  0.00    +0.000 C 
ENDROOT
BRANCH   1   2
ATOM      2  N   UNL     1       2.636   7.321  18.664  0.00  0.00    +0.000 N 
ATOM      3  C   UNL     1       2.018   6.704  19.752  0.00  0.00    +0.000 C 
ATOM      4  O   UNL     1       1.490   7.306  20.681  0.00  0.00    +0.000 OA
ATOM      5  C   UNL     1       2.013   5.225  19.764  0.00  0.00    +0.000 A 
ATOM      6  C   UNL     1       1.253   4.542  20.724  0.00  0.00    +0.000 A 
ATOM      7  C   UNL     1       1.243   3.151  20.746  0.00  0.00    +0.000 A 
ATOM      8  C   UNL     1       2.012   2.436  19.824  0.00  0.00    +0.000 A 
ATOM      9  C   UNL     1       2.784   3.107  18.864  0.00  0.00    +0.000 A 
ATOM     10  C   UNL     1       3.573   2.400  17.941  0.00  0.00    +0.000 A 
ATOM     11  C   UNL     1       4.332   3.076  16.987  0.00  0.00    +0.000 A 
ATOM     12  C   UNL     1       4.296   4.466  16.930  0.00  0.00    +0.000 A 
ATOM     13  C   UNL     1       3.510   5.185  17.841  0.00  0.00    +0.000 A 
ATOM     14  C   UNL     1       2.769   4.521  18.821  0.00  0.00    +0.000 A 
ATOM     15  C   UNL     1       3.434   6.661  17.733  0.00  0.00    +0.000 C 
ATOM     16  O   UNL     1       4.060   7.230  16.844  0.00  0.00    +0.000 OA
ENDBRANCH   1   2
BRANCH   1  17
ATOM     17  C   UNL     1       1.213   9.192  17.831  0.00  0.00    +0.000 C 
BRANCH  17  18
ATOM     18  C   UNL     1       0.472  10.294  18.596  0.00  0.00    +0.000 C 
BRANCH  18  20
ATOM     19  N   UNL     1      -1.734  11.255  18.903  0.00  0.00    +0.000 N 
ATOM     20  C   UNL     1      -0.960  10.425  18.126  0.00  0.00    +0.000 C 
ATOM     21  O   UNL     1      -1.393   9.832  17.145  0.00  0.00    +0.000 OA
ATOM     22  H   UNL     1      -1.395  11.572  19.803  0.00  0.00    +0.000 HD
BRANCH  19  23
ATOM     23  C   UNL     1      -3.130  11.471  18.587  0.00  0.00    +0.000 C 
BRANCH  23  24
ATOM     24  C   UNL     1      -3.841  12.304  19.649  0.00  0.00    +0.000 C 
BRANCH  24  25
ATOM     25  C   UNL     1      -5.305  12.617  19.301  0.00  0.00    +0.000 C 
BRANCH  25  26
ATOM     26  N   UNL     1      -6.264  12.364  20.394  0.00  0.00    +0.000 NA
BRANCH  26  28
ATOM     27  C   UNL     1      -7.916  14.016  19.417  0.00  0.00    +0.000 C 
ATOM     28  C   UNL     1      -7.125  13.535  20.628  0.00  0.00    +0.000 C 
ENDBRANCH  26  28
BRANCH  26  29
ATOM     29  C   UNL     1      -7.004  11.107  20.184  0.00  0.00    +0.000 C 
ATOM     30  C   UNL     1      -6.805  10.422  18.834  0.00  0.00    +0.000 C 
ENDBRANCH  26  29
ENDBRANCH  25  26
ENDBRANCH  24  25
ENDBRANCH  23  24
ENDBRANCH  19  23
ENDBRANCH  18  20
ENDBRANCH  17  18
ENDBRANCH   1  17
TORSDOF 10
ENDMDL
MODEL 8
REMARK VINA RESULT:      -6.5      4.679      7.494
REMARK  Name = 
REMARK  12 active torsions:
REMARK  status: ('A' for Active; 'I' for Inactive)
REMARK    1  A    between atoms: C_1  and  C_2
REMARK    2  A    between atoms: C_2  and  N_3
REMARK    3  A    between atoms: N_3  and  C_4
REMARK    4  A    between atoms: N_3  and  C_6
REMARK    5  A    between atoms: C_4  and  C_5
REMARK    6  A    between atoms: C_6  and  C_7
REMARK    7  A    between atoms: C_7  and  C_8
REMARK    8  A    between atoms: C_8  and  N_9
REMARK    9  A    between atoms: C_10  and  C_12
REMARK   10  A    between atoms: C_12  and  C_13
REMARK   11  A    between atoms: C_13  and  C_14
REMARK   12  A    between atoms: C_14  and  N_15
REMARK                            x       y       z     vdW  Elec       q    Type
REMARK                         _______ _______ _______ _____ _____    ______ ____
ROOT
ATOM      1  C   UNL     1       3.287   8.168  17.842  0.00  0.00    +0.000 C 
ENDROOT
BRANCH   1   2
ATOM      2  N   UNL     1       3.164   6.762  18.224  0.00  0.00    +0.000 N 
ATOM      3  C   UNL     1       2.446   6.462  19.382  0.00  0.00    +0.000 C 
ATOM      4  O   UNL     1       2.024   7.301  20.172  0.00  0.00    +0.000 OA
ATOM      5  C   UNL     1       2.188   5.031  19.654  0.00  0.00    +0.000 A 
ATOM      6  C   UNL     1       1.319   4.669  20.692  0.00  0.00    +0.000 A 
ATOM      7  C   UNL     1       1.071   3.325  20.959  0.00  0.00    +0.000 A 
ATOM      8  C   UNL     1       1.711   2.339  20.204  0.00  0.00    +0.000 A 
ATOM      9  C   UNL     1       2.589   2.688  19.168  0.00  0.00    +0.000 A 
ATOM     10  C   UNL     1       3.250   1.705  18.411  0.00  0.00    +0.000 A 
ATOM     11  C   UNL     1       4.117   2.062  17.380  0.00  0.00    +0.000 A 
ATOM     12  C   UNL     1       4.319   3.406  17.078  0.00  0.00    +0.000 A 
ATOM     13  C   UNL     1       3.664   4.397  17.820  0.00  0.00    +0.000 A 
ATOM     14  C   UNL     1       2.816   4.053  18.876  0.00  0.00    +0.000 A 
ATOM     15  C   UNL     1       3.841   5.822  17.452  0.00  0.00    +0.000 C 
ATOM     16  O   UNL     1       4.558   6.110  16.499  0.00  0.00    +0.000 OA
ENDBRANCH   1   2
BRANCH   1  17
ATOM     17  C   UNL     1       1.924   8.849  17.652  0.00  0.00    +0.000 C 
BRANCH  17  18
ATOM     18  C   UNL     1       1.977  10.343  17.987  0.00  0.00    +0.000 C 
BRANCH  18  20
ATOM     19  N   UNL     1       0.523   9.890  19.875  0.00  0.00    +0.000 N 
ATOM     20  C   UNL     1       0.803  10.758  18.846  0.00  0.00    +0.000 C 
ATOM     21  O   UNL     1       0.153  11.775  18.634  0.00  0.00    +0.000 OA
ATOM     22  H   UNL     1       0.957   8.975  19.901  0.00  0.00    +0.000 HD
BRANCH  19  23
ATOM     23  C   UNL     1      -0.581  10.145  20.776  0.00  0.00    +0.000 C 
BRANCH  23  24
ATOM     24  C   UNL     1      -0.167  11.002  21.968  0.00  0.00    +0.000 C 
BRANCH  24  25
ATOM     25  C   UNL     1      -1.319  11.283  22.946  0.00  0.00    +0.000 C 
BRANCH  25  26
ATOM     26  N   UNL     1      -1.593  12.715  23.178  0.00  0.00    +0.000 NA
BRANCH  26  28
ATOM     27  C   UNL     1      -0.243  14.723  22.428  0.00  0.00    +0.000 C 
ATOM     28  C   UNL     1      -1.122  13.536  22.049  0.00  0.00    +0.000 C 
ENDBRANCH  26  28
BRANCH  26  29
ATOM     29  C   UNL     1      -3.003  12.944  23.539  0.00  0.00    +0.000 C 
ATOM     30  C   UNL     1      -3.269  14.047  24.562  0.00  0.00    +0.000 C 
ENDBRANCH  26  29
ENDBRANCH  25  26
ENDBRANCH  24  25
ENDBRANCH  23  24
ENDBRANCH  19  23
ENDBRANCH  18  20
ENDBRANCH  17  18
ENDBRANCH   1  17
TORSDOF 10
ENDMDL
MODEL 9
REMARK VINA RESULT:      -6.5      3.105      9.945
REMARK  Name = 
REMARK  12 active torsions:
REMARK  status: ('A' for Active; 'I' for Inactive)
REMARK    1  A    between atoms: C_1  and  C_2
REMARK    2  A    between atoms: C_2  and  N_3
REMARK    3  A    between atoms: N_3  and  C_4
REMARK    4  A    between atoms: N_3  and  C_6
REMARK    5  A    between atoms: C_4  and  C_5
REMARK    6  A    between atoms: C_6  and  C_7
REMARK    7  A    between atoms: C_7  and  C_8
REMARK    8  A    between atoms: C_8  and  N_9
REMARK    9  A    between atoms: C_10  and  C_12
REMARK   10  A    between atoms: C_12  and  C_13
REMARK   11  A    between atoms: C_13  and  C_14
REMARK   12  A    between atoms: C_14  and  N_15
REMARK                            x       y       z     vdW  Elec       q    Type
REMARK                         _______ _______ _______ _____ _____    ______ ____
ROOT
ATOM      1  C   UNL     1       9.546  10.677  17.897  0.00  0.00    +0.000 C 
ENDROOT
BRANCH   1   2
ATOM      2  N   UNL     1       9.291  12.021  18.415  0.00  0.00    +0.000 N 
ATOM      3  C   UNL     1       8.289  12.776  17.804  0.00  0.00    +0.000 C 
ATOM      4  O   UNL     1       7.699  12.444  16.781  0.00  0.00    +0.000 OA
ATOM      5  C   UNL     1       7.933  14.057  18.450  0.00  0.00    +0.000 A 
ATOM      6  C   UNL     1       6.814  14.773  18.000  0.00  0.00    +0.000 A 
ATOM      7  C   UNL     1       6.471  15.981  18.599  0.00  0.00    +0.000 A 
ATOM      8  C   UNL     1       7.259  16.491  19.635  0.00  0.00    +0.000 A 
ATOM      9  C   UNL     1       8.385  15.789  20.089  0.00  0.00    +0.000 A 
ATOM     10  C   UNL     1       9.192  16.298  21.120  0.00  0.00    +0.000 A 
ATOM     11  C   UNL     1      10.307  15.590  21.568  0.00  0.00    +0.000 A 
ATOM     12  C   UNL     1      10.616  14.354  21.006  0.00  0.00    +0.000 A 
ATOM     13  C   UNL     1       9.817  13.832  19.981  0.00  0.00    +0.000 A 
ATOM     14  C   UNL     1       8.715  14.546  19.501  0.00  0.00    +0.000 A 
ATOM     15  C   UNL     1      10.121  12.489  19.430  0.00  0.00    +0.000 C 
ATOM     16  O   UNL     1      11.068  11.856  19.885  0.00  0.00    +0.000 OA
ENDBRANCH   1   2
BRANCH   1  17
ATOM     17  C   UNL     1       8.691   9.607  18.590  0.00  0.00    +0.000 C 
BRANCH  17  18
ATOM     18  C   UNL     1       7.883   8.778  17.585  0.00  0.00    +0.000 C 
BRANCH  18  20
ATOM     19  N   UNL     1       6.691   6.672  17.442  0.00  0.00    +0.000 N 
ATOM     20  C   UNL     1       7.718   7.350  18.054  0.00  0.00    +0.000 C 
ATOM     21  O   UNL     1       8.433   6.847  18.912  0.00  0.00    +0.000 OA
ATOM     22  H   UNL     1       6.011   7.173  16.884  0.00  0.00    +0.000 HD
BRANCH  19  23
ATOM     23  C   UNL     1       6.400   5.298  17.794  0.00  0.00    +0.000 C 
BRANCH  23  24
ATOM     24  C   UNL     1       5.543   5.193  19.052  0.00  0.00    +0.000 C 
BRANCH  24  25
ATOM     25  C   UNL     1       4.564   4.008  19.026  0.00  0.00    +0.000 C 
BRANCH  25  26
ATOM     26  N   UNL     1       3.334   4.210  19.818  0.00  0.00    +0.000 NA
BRANCH  26  28
ATOM     27  C   UNL     1       1.823   4.234  17.786  0.00  0.00    +0.000 C 
ATOM     28  C   UNL     1       2.316   4.940  19.044  0.00  0.00    +0.000 C 
ENDBRANCH  26  28
BRANCH  26  29
ATOM     29  C   UNL     1       2.853   2.944  20.400  0.00  0.00    +0.000 C 
ATOM     30  C   UNL     1       1.929   3.064  21.610  0.00  0.00    +0.000 C 
ENDBRANCH  26  29
ENDBRANCH  25  26
ENDBRANCH  24  25
ENDBRANCH  23  24
ENDBRANCH  19  23
ENDBRANCH  18  20
ENDBRANCH  17  18
ENDBRANCH   1  17
TORSDOF 10
ENDMDL
