MODEL 1
REMARK VINA RESULT:      -8.6      0.000      0.000
REMARK  Name = 
REMARK  8 active torsions:
REMARK  status: ('A' for Active; 'I' for Inactive)
REMARK    1  A    between atoms: C_2  and  C_3
REMARK    2  A    between atoms: C_3  and  C_21
REMARK    3  A    between atoms: C_4  and  C_5
REMARK    4  A    between atoms: C_9  and  O_10
REMARK    5  A    between atoms: O_10  and  C_11
REMARK    6  A    between atoms: C_11  and  C_12
REMARK    7  A    between atoms: C_12  and  C_13
REMARK    8  A    between atoms: C_13  and  N_14
REMARK                            x       y       z     vdW  Elec       q    Type
REMARK                         _______ _______ _______ _____ _____    ______ ____
ROOT
ATOM      1  C   UNL     1       3.001   4.670  18.241  0.00  0.00    +0.000 A 
ATOM      2  C   UNL     1       2.424   3.415  18.568  0.00  0.00    +0.000 A 
ATOM      3  C   UNL     1       1.579   3.272  19.672  0.00  0.00    +0.000 A 
ATOM      4  C   UNL     1       1.285   4.365  20.477  0.00  0.00    +0.000 A 
ATOM      5  C   UNL     1       1.847   5.614  20.206  0.00  0.00    +0.000 A 
ATOM      6  C   UNL     1       2.719   5.758  19.096  0.00  0.00    +0.000 A 
ENDROOT
BRANCH   1   8
ATOM      7  C   UNL     1       5.203   5.035  16.992  0.00  0.00    +0.000 C 
ATOM      8  C   UNL     1       3.843   4.924  17.000  0.00  0.00    +0.000 C 
BRANCH   7   9
ATOM      9  C   UNL     1       6.084   5.103  15.770  0.00  0.00    +0.000 A 
ATOM     10  N   UNL     1       7.245   5.804  15.864  0.00  0.00    +0.000 NA
ATOM     11  O   UNL     1       7.914   5.689  14.754  0.00  0.00    +0.000 OA
ATOM     12  C   UNL     1       7.250   4.956  13.911  0.00  0.00    +0.000 A 
ATOM     13  C   UNL     1       7.651   4.600  12.633  0.00  0.00    +0.000 A 
ATOM     14  C   UNL     1       6.789   3.811  11.870  0.00  0.00    +0.000 A 
ATOM     15  C   UNL     1       5.544   3.403  12.405  0.00  0.00    +0.000 A 
ATOM     16  C   UNL     1       5.164   3.765  13.724  0.00  0.00    +0.000 A 
ATOM     17  C   UNL     1       6.054   4.551  14.477  0.00  0.00    +0.000 A 
ENDBRANCH   7   9
BRANCH   7  19
ATOM     18  N   UNL     1       6.535   4.800  19.221  0.00  0.00    +0.000 NA
ATOM     19  C   UNL     1       5.956   4.905  18.225  0.00  0.00    +0.000 C 
ENDBRANCH   7  19
ENDBRANCH   1   8
BRANCH   5  20
ATOM     20  O   UNL     1       1.494   6.644  21.016  0.00  0.00    +0.000 OA
BRANCH  20  21
ATOM     21  C   UNL     1       1.478   7.978  20.669  0.00  0.00    +0.000 C 
BRANCH  21  22
ATOM     22  C   UNL     1       0.458   8.742  21.524  0.00  0.00    +0.000 C 
BRANCH  22  23
ATOM     23  C   UNL     1      -0.207   9.884  20.727  0.00  0.00    +0.000 C 
BRANCH  23  24
ATOM     24  N   UNL     1       0.486  10.203  19.451  0.00  0.00    +0.000 NA
ATOM     25  C   UNL     1       1.067  11.565  19.482  0.00  0.00    +0.000 C 
ATOM     26  C   UNL     1      -0.030  12.648  19.365  0.00  0.00    +0.000 C 
ATOM     27  O   UNL     1      -0.797  12.474  18.187  0.00  0.00    +0.000 OA
ATOM     28  C   UNL     1      -1.414  11.198  18.194  0.00  0.00    +0.000 C 
ATOM     29  C   UNL     1      -0.352  10.089  18.235  0.00  0.00    +0.000 C 
ENDBRANCH  23  24
ENDBRANCH  22  23
ENDBRANCH  21  22
ENDBRANCH  20  21
ENDBRANCH   5  20
TORSDOF 8
ENDMDL
MODEL 2
REMARK VINA RESULT:      -8.4      0.900      1.196
REMARK  Name = 
REMARK  8 active torsions:
REMARK  status: ('A' for Active; 'I' for Inactive)
REMARK    1  A    between atoms: C_2  and  C_3
REMARK    2  A    between atoms: C_3  and  C_21
REMARK    3  A    between atoms: C_4  and  C_5
REMARK    4  A    between atoms: C_9  and  O_10
REMARK    5  A    between atoms: O_10  and  C_11
REMARK    6  A    between atoms: C_11  and  C_12
REMARK    7  A    between atoms: C_12  and  C_13
REMARK    8  A    between atoms: C_13  and  N_14
REMARK                            x       y       z     vdW  Elec       q    Type
REMARK                         _______ _______ _______ _____ _____    ______ ____
ROOT
ATOM      1  C   UNL     1       3.284   4.741  18.468  0.00  0.00    +0.000 A 
ATOM      2  C   UNL     1       2.992   3.463  19.011  0.00  0.00    +0.000 A 
ATOM      3  C   UNL     1       2.203   3.325  20.156  0.00  0.00    +0.000 A 
ATOM      4  C   UNL     1       1.684   4.448  20.790  0.00  0.00    +0.000 A 
ATOM      5  C   UNL     1       1.964   5.725  20.304  0.00  0.00    +0.000 A 
ATOM      6  C   UNL     1       2.779   5.869  19.152  0.00  0.00    +0.000 A 
ENDROOT
BRANCH   1   8
ATOM      7  C   UNL     1       5.402   5.094  17.076  0.00  0.00    +0.000 C 
ATOM      8  C   UNL     1       4.046   4.962  17.171  0.00  0.00    +0.000 C 
BRANCH   7   9
ATOM      9  C   UNL     1       6.207   5.131  15.802  0.00  0.00    +0.000 A 
ATOM     10  N   UNL     1       7.374   5.828  15.810  0.00  0.00    +0.000 NA
ATOM     11  O   UNL     1       7.973   5.685  14.664  0.00  0.00    +0.000 OA
ATOM     12  C   UNL     1       7.256   4.937  13.879  0.00  0.00    +0.000 A 
ATOM     13  C   UNL     1       7.578   4.552  12.587  0.00  0.00    +0.000 A 
ATOM     14  C   UNL     1       6.667   3.751  11.895  0.00  0.00    +0.000 A 
ATOM     15  C   UNL     1       5.456   3.361  12.514  0.00  0.00    +0.000 A 
ATOM     16  C   UNL     1       5.158   3.753  13.846  0.00  0.00    +0.000 A 
ATOM     17  C   UNL     1       6.096   4.550  14.526  0.00  0.00    +0.000 A 
ENDBRANCH   7   9
BRANCH   7  19
ATOM     18  N   UNL     1       6.908   4.957  19.200  0.00  0.00    +0.000 NA
ATOM     19  C   UNL     1       6.229   5.019  18.266  0.00  0.00    +0.000 C 
ENDBRANCH   7  19
ENDBRANCH   1   8
BRANCH   5  20
ATOM     20  O   UNL     1       1.401   6.775  20.955  0.00  0.00    +0.000 OA
BRANCH  20  21
ATOM     21  C   UNL     1       1.558   8.107  20.633  0.00  0.00    +0.000 C 
BRANCH  21  22
ATOM     22  C   UNL     1       1.326   8.988  21.867  0.00  0.00    +0.000 C 
BRANCH  22  23
ATOM     23  C   UNL     1       0.010   9.786  21.754  0.00  0.00    +0.000 C 
BRANCH  23  24
ATOM     24  N   UNL     1       0.203  11.260  21.761  0.00  0.00    +0.000 NA
ATOM     25  C   UNL     1      -1.088  11.971  21.614  0.00  0.00    +0.000 C 
ATOM     26  C   UNL     1      -1.626  11.868  20.169  0.00  0.00    +0.000 C 
ATOM     27  O   UNL     1      -0.685  12.372  19.237  0.00  0.00    +0.000 OA
ATOM     28  C   UNL     1       0.524  11.639  19.325  0.00  0.00    +0.000 C 
ATOM     29  C   UNL     1       1.132  11.776  20.729  0.00  0.00    +0.000 C 
ENDBRANCH  23  24
ENDBRANCH  22  23
ENDBRANCH  21  22
ENDBRANCH  20  21
ENDBRANCH   5  20
TORSDOF 8
ENDMDL
MODEL 3
REMARK VINA RESULT:      -8.0      1.460      1.819
REMARK  Name = 
REMARK  8 active torsions:
REMARK  status: ('A' for Active; 'I' for Inactive)
REMARK    1  A    between atoms: C_2  and  C_3
REMARK    2  A    between atoms: C_3  and  C_21
REMARK    3  A    between atoms: C_4  and  C_5
REMARK    4  A    between atoms: C_9  and  O_10
REMARK    5  A    between atoms: O_10  and  C_11
REMARK    6  A    between atoms: C_11  and  C_12
REMARK    7  A    between atoms: C_12  and  C_13
REMARK    8  A    between atoms: C_13  and  N_14
REMARK                            x       y       z     vdW  Elec       q    Type
REMARK                         _______ _______ _______ _____ _____    ______ ____
ROOT
ATOM      1  C   UNL     1       3.223   5.256  18.354  0.00  0.00    +0.000 A 
ATOM      2  C   UNL     1       2.746   4.029  18.882  0.00  0.00    +0.000 A 
ATOM      3  C   UNL     1       1.932   3.996  20.017  0.00  0.00    +0.000 A 
ATOM      4  C   UNL     1       1.571   5.176  20.656  0.00  0.00    +0.000 A 
ATOM      5  C   UNL     1       2.034   6.405  20.184  0.00  0.00    +0.000 A 
ATOM      6  C   UNL     1       2.875   6.440  19.042  0.00  0.00    +0.000 A 
ENDROOT
BRANCH   1   8
ATOM      7  C   UNL     1       5.386   5.334  16.990  0.00  0.00    +0.000 C 
ATOM      8  C   UNL     1       4.024   5.376  17.066  0.00  0.00    +0.000 C 
BRANCH   7   9
ATOM      9  C   UNL     1       6.206   5.266  15.727  0.00  0.00    +0.000 A 
ATOM     10  N   UNL     1       7.407   5.903  15.715  0.00  0.00    +0.000 NA
ATOM     11  O   UNL     1       8.011   5.673  14.586  0.00  0.00    +0.000 OA
ATOM     12  C   UNL     1       7.265   4.923  13.830  0.00  0.00    +0.000 A 
ATOM     13  C   UNL     1       7.581   4.456  12.563  0.00  0.00    +0.000 A 
ATOM     14  C   UNL     1       6.639   3.668  11.901  0.00  0.00    +0.000 A 
ATOM     15  C   UNL     1       5.403   3.370  12.522  0.00  0.00    +0.000 A 
ATOM     16  C   UNL     1       5.111   3.844  13.828  0.00  0.00    +0.000 A 
ATOM     17  C   UNL     1       6.080   4.628  14.479  0.00  0.00    +0.000 A 
ENDBRANCH   7   9
BRANCH   7  19
ATOM     18  N   UNL     1       6.829   5.036  19.142  0.00  0.00    +0.000 NA
ATOM     19  C   UNL     1       6.181   5.157  18.190  0.00  0.00    +0.000 C 
ENDBRANCH   7  19
ENDBRANCH   1   8
BRANCH   5  20
ATOM     20  O   UNL     1       1.618   7.519  20.838  0.00  0.00    +0.000 OA
BRANCH  20  21
ATOM     21  C   UNL     1       1.219   8.701  20.252  0.00  0.00    +0.000 C 
BRANCH  21  22
ATOM     22  C   UNL     1       0.405   9.543  21.242  0.00  0.00    +0.000 C 
BRANCH  22  23
ATOM     23  C   UNL     1       0.330  11.020  20.803  0.00  0.00    +0.000 C 
BRANCH  23  24
ATOM     24  N   UNL     1       0.227  11.976  21.937  0.00  0.00    +0.000 NA
ATOM     25  C   UNL     1      -1.000  11.735  22.731  0.00  0.00    +0.000 C 
ATOM     26  C   UNL     1      -2.261  12.215  21.978  0.00  0.00    +0.000 C 
ATOM     27  O   UNL     1      -2.163  13.587  21.639  0.00  0.00    +0.000 OA
ATOM     28  C   UNL     1      -1.031  13.804  20.815  0.00  0.00    +0.000 C 
ATOM     29  C   UNL     1       0.255  13.407  21.557  0.00  0.00    +0.000 C 
ENDBRANCH  23  24
ENDBRANCH  22  23
ENDBRANCH  21  22
ENDBRANCH  20  21
ENDBRANCH   5  20
TORSDOF 8
ENDMDL
MODEL 4
REMARK VINA RESULT:      -7.9      0.952      1.126
REMARK  Name = 
REMARK  8 active torsions:
REMARK  status: ('A' for Active; 'I' for Inactive)
REMARK    1  A    between atoms: C_2  and  C_3
REMARK    2  A    between atoms: C_3  and  C_21
REMARK    3  A    between atoms: C_4  and  C_5
REMARK    4  A    between atoms: C_9  and  O_10
REMARK    5  A    between atoms: O_10  and  C_11
REMARK    6  A    between atoms: C_11  and  C_12
REMARK    7  A    between atoms: C_12  and  C_13
REMARK    8  A    between atoms: C_13  and  N_14
REMARK                            x       y       z     vdW  Elec       q    Type
REMARK                         _______ _______ _______ _____ _____    ______ ____
ROOT
ATOM      1  C   UNL     1       3.046   5.087  18.363  0.00  0.00    +0.000 A 
ATOM      2  C   UNL     1       2.573   3.829  18.820  0.00  0.00    +0.000 A 
ATOM      3  C   UNL     1       1.721   3.733  19.923  0.00  0.00    +0.000 A 
ATOM      4  C   UNL     1       1.316   4.877  20.599  0.00  0.00    +0.000 A 
ATOM      5  C   UNL     1       1.773   6.133  20.199  0.00  0.00    +0.000 A 
ATOM      6  C   UNL     1       2.653   6.233  19.090  0.00  0.00    +0.000 A 
ENDROOT
BRANCH   1   8
ATOM      7  C   UNL     1       5.252   5.214  17.075  0.00  0.00    +0.000 C 
ATOM      8  C   UNL     1       3.889   5.278  17.112  0.00  0.00    +0.000 C 
BRANCH   7   9
ATOM      9  C   UNL     1       6.110   5.215  15.835  0.00  0.00    +0.000 A 
ATOM     10  N   UNL     1       7.294   5.883  15.884  0.00  0.00    +0.000 NA
ATOM     11  O   UNL     1       7.936   5.712  14.766  0.00  0.00    +0.000 OA
ATOM     12  C   UNL     1       7.234   4.972  13.960  0.00  0.00    +0.000 A 
ATOM     13  C   UNL     1       7.599   4.562  12.687  0.00  0.00    +0.000 A 
ATOM     14  C   UNL     1       6.698   3.775  11.967  0.00  0.00    +0.000 A 
ATOM     15  C   UNL     1       5.452   3.423  12.539  0.00  0.00    +0.000 A 
ATOM     16  C   UNL     1       5.110   3.839  13.852  0.00  0.00    +0.000 A 
ATOM     17  C   UNL     1       6.038   4.622  14.562  0.00  0.00    +0.000 A 
ENDBRANCH   7   9
BRANCH   7  19
ATOM     18  N   UNL     1       6.620   4.744  19.245  0.00  0.00    +0.000 NA
ATOM     19  C   UNL     1       6.006   4.941  18.284  0.00  0.00    +0.000 C 
ENDBRANCH   7  19
ENDBRANCH   1   8
BRANCH   5  20
ATOM     20  O   UNL     1       1.315   7.210  20.886  0.00  0.00    +0.000 OA
BRANCH  20  21
ATOM     21  C   UNL     1       1.645   8.526  20.644  0.00  0.00    +0.000 C 
BRANCH  21  22
ATOM     22  C   UNL     1       1.030   8.998  19.320  0.00  0.00    +0.000 C 
BRANCH  22  23
ATOM     23  C   UNL     1      -0.048  10.079  19.549  0.00  0.00    +0.000 C 
BRANCH  23  24
ATOM     24  N   UNL     1      -0.431  10.811  18.313  0.00  0.00    +0.000 NA
ATOM     25  C   UNL     1      -1.056  12.114  18.634  0.00  0.00    +0.000 C 
ATOM     26  C   UNL     1      -2.489  11.930  19.184  0.00  0.00    +0.000 C 
ATOM     27  O   UNL     1      -3.300  11.214  18.269  0.00  0.00    +0.000 OA
ATOM     28  C   UNL     1      -2.740   9.937  18.021  0.00  0.00    +0.000 C 
ATOM     29  C   UNL     1      -1.340  10.076  17.404  0.00  0.00    +0.000 C 
ENDBRANCH  23  24
ENDBRANCH  22  23
ENDBRANCH  21  22
ENDBRANCH  20  21
ENDBRANCH   5  20
TORSDOF 8
ENDMDL
MODEL 5
REMARK VINA RESULT:      -7.9      0.930      1.402
REMARK  Name = 
REMARK  8 active torsions:
REMARK  status: ('A' for Active; 'I' for Inactive)
REMARK    1  A    between atoms: C_2  and  C_3
REMARK    2  A    between atoms: C_3  and  C_21
REMARK    3  A    between atoms: C_4  and  C_5
REMARK    4  A    between atoms: C_9  and  O_10
REMARK    5  A    between atoms: O_10  and  C_11
REMARK    6  A    between atoms: C_11  and  C_12
REMARK    7  A    between atoms: C_12  and  C_13
REMARK    8  A    between atoms: C_13  and  N_14
REMARK                            x       y       z     vdW  Elec       q    Type
REMARK                         _______ _______ _______ _____ _____    ______ ____
ROOT
ATOM      1  C   UNL     1       3.180   5.649  18.271  0.00  0.00    +0.000 A 
ATOM      2  C   UNL     1       2.522   4.481  18.736  0.00  0.00    +0.000 A 
ATOM      3  C   UNL     1       1.694   4.514  19.860  0.00  0.00    +0.000 A 
ATOM      4  C   UNL     1       1.498   5.703  20.552  0.00  0.00    +0.000 A 
ATOM      5  C   UNL     1       2.143   6.872  20.145  0.00  0.00    +0.000 A 
ATOM      6  C   UNL     1       2.998   6.837  19.014  0.00  0.00    +0.000 A 
ENDROOT
BRANCH   1   8
ATOM      7  C   UNL     1       5.345   5.434  16.925  0.00  0.00    +0.000 C 
ATOM      8  C   UNL     1       4.011   5.712  16.999  0.00  0.00    +0.000 C 
BRANCH   7   9
ATOM      9  C   UNL     1       6.161   5.306  15.664  0.00  0.00    +0.000 A 
ATOM     10  N   UNL     1       7.379   5.909  15.632  0.00  0.00    +0.000 NA
ATOM     11  O   UNL     1       7.974   5.630  14.509  0.00  0.00    +0.000 OA
ATOM     12  C   UNL     1       7.207   4.879  13.776  0.00  0.00    +0.000 A 
ATOM     13  C   UNL     1       7.507   4.367  12.524  0.00  0.00    +0.000 A 
ATOM     14  C   UNL     1       6.542   3.587  11.885  0.00  0.00    +0.000 A 
ATOM     15  C   UNL     1       5.299   3.342  12.516  0.00  0.00    +0.000 A 
ATOM     16  C   UNL     1       5.022   3.862  13.808  0.00  0.00    +0.000 A 
ATOM     17  C   UNL     1       6.015   4.636  14.435  0.00  0.00    +0.000 A 
ENDBRANCH   7   9
BRANCH   7  19
ATOM     18  N   UNL     1       6.681   4.719  19.048  0.00  0.00    +0.000 NA
ATOM     19  C   UNL     1       6.077   5.039  18.114  0.00  0.00    +0.000 C 
ENDBRANCH   7  19
ENDBRANCH   1   8
BRANCH   5  20
ATOM     20  O   UNL     1       1.883   8.003  20.849  0.00  0.00    +0.000 OA
BRANCH  20  21
ATOM     21  C   UNL     1       0.645   8.413  21.295  0.00  0.00    +0.000 C 
BRANCH  21  22
ATOM     22  C   UNL     1       0.007   9.382  20.292  0.00  0.00    +0.000 C 
BRANCH  22  23
ATOM     23  C   UNL     1       0.768  10.724  20.237  0.00  0.00    +0.000 C 
BRANCH  23  24
ATOM     24  N   UNL     1      -0.075  11.902  20.572  0.00  0.00    +0.000 NA
ATOM     25  C   UNL     1      -1.348  11.883  19.815  0.00  0.00    +0.000 C 
ATOM     26  C   UNL     1      -1.124  12.240  18.328  0.00  0.00    +0.000 C 
ATOM     27  O   UNL     1      -0.498  13.504  18.194  0.00  0.00    +0.000 OA
ATOM     28  C   UNL     1       0.756  13.496  18.855  0.00  0.00    +0.000 C 
ATOM     29  C   UNL     1       0.570  13.217  20.354  0.00  0.00    +0.000 C 
ENDBRANCH  23  24
ENDBRANCH  22  23
ENDBRANCH  21  22
ENDBRANCH  20  21
ENDBRANCH   5  20
TORSDOF 8
ENDMDL
MODEL 6
REMARK VINA RESULT:      -7.8      0.935      1.001
REMARK  Name = 
REMARK  8 active torsions:
REMARK  status: ('A' for Active; 'I' for Inactive)
REMARK    1  A    between atoms: C_2  and  C_3
REMARK    2  A    between atoms: C_3  and  C_21
REMARK    3  A    between atoms: C_4  and  C_5
REMARK    4  A    between atoms: C_9  and  O_10
REMARK    5  A    between atoms: O_10  and  C_11
REMARK    6  A    between atoms: C_11  and  C_12
REMARK    7  A    between atoms: C_12  and  C_13
REMARK    8  A    between atoms: C_13  and  N_14
REMARK                            x       y       z     vdW  Elec       q    Type
REMARK                         _______ _______ _______ _____ _____    ______ ____
ROOT
ATOM      1  C   UNL     1       3.693   4.075  18.386  0.00  0.00    +0.000 A 
ATOM      2  C   UNL     1       3.880   2.898  19.155  0.00  0.00    +0.000 A 
ATOM      3  C   UNL     1       3.171   2.687  20.341  0.00  0.00    +0.000 A 
ATOM      4  C   UNL     1       2.262   3.636  20.793  0.00  0.00    +0.000 A 
ATOM      5  C   UNL     1       2.062   4.818  20.080  0.00  0.00    +0.000 A 
ATOM      6  C   UNL     1       2.793   5.043  18.885  0.00  0.00    +0.000 A 
ENDROOT
BRANCH   1   8
ATOM      7  C   UNL     1       5.574   4.901  16.861  0.00  0.00    +0.000 C 
ATOM      8  C   UNL     1       4.349   4.324  17.036  0.00  0.00    +0.000 C 
BRANCH   7   9
ATOM      9  C   UNL     1       6.334   4.999  15.563  0.00  0.00    +0.000 A 
ATOM     10  N   UNL     1       7.468   5.749  15.547  0.00  0.00    +0.000 NA
ATOM     11  O   UNL     1       8.035   5.657  14.380  0.00  0.00    +0.000 OA
ATOM     12  C   UNL     1       7.328   4.891  13.603  0.00  0.00    +0.000 A 
ATOM     13  C   UNL     1       7.624   4.545  12.294  0.00  0.00    +0.000 A 
ATOM     14  C   UNL     1       6.729   3.716  11.616  0.00  0.00    +0.000 A 
ATOM     15  C   UNL     1       5.558   3.259  12.265  0.00  0.00    +0.000 A 
ATOM     16  C   UNL     1       5.286   3.611  13.613  0.00  0.00    +0.000 A 
ATOM     17  C   UNL     1       6.208   4.439  14.279  0.00  0.00    +0.000 A 
ENDBRANCH   7   9
BRANCH   7  19
ATOM     18  N   UNL     1       7.001   5.643  18.913  0.00  0.00    +0.000 NA
ATOM     19  C   UNL     1       6.357   5.320  18.008  0.00  0.00    +0.000 C 
ENDBRANCH   7  19
ENDBRANCH   1   8
BRANCH   5  20
ATOM     20  O   UNL     1       1.138   5.688  20.563  0.00  0.00    +0.000 OA
BRANCH  20  21
ATOM     21  C   UNL     1       1.404   6.860  21.238  0.00  0.00    +0.000 C 
BRANCH  21  22
ATOM     22  C   UNL     1       1.635   8.008  20.248  0.00  0.00    +0.000 C 
BRANCH  22  23
ATOM     23  C   UNL     1       0.862   9.278  20.664  0.00  0.00    +0.000 C 
BRANCH  23  24
ATOM     24  N   UNL     1       0.973  10.392  19.685  0.00  0.00    +0.000 NA
ATOM     25  C   UNL     1       0.543  11.676  20.283  0.00  0.00    +0.000 C 
ATOM     26  C   UNL     1      -0.993  11.734  20.447  0.00  0.00    +0.000 C 
ATOM     27  O   UNL     1      -1.648  11.533  19.207  0.00  0.00    +0.000 OA
ATOM     28  C   UNL     1      -1.295  10.269  18.673  0.00  0.00    +0.000 C 
ATOM     29  C   UNL     1       0.220  10.196  18.425  0.00  0.00    +0.000 C 
ENDBRANCH  23  24
ENDBRANCH  22  23
ENDBRANCH  21  22
ENDBRANCH  20  21
ENDBRANCH   5  20
TORSDOF 8
ENDMDL
MODEL 7
REMARK VINA RESULT:      -7.7      2.145      8.670
REMARK  Name = 
REMARK  8 active torsions:
REMARK  status: ('A' for Active; 'I' for Inactive)
REMARK    1  A    between atoms: C_2  and  C_3
REMARK    2  A    between atoms: C_3  and  C_21
REMARK    3  A    between atoms: C_4  and  C_5
REMARK    4  A    between atoms: C_9  and  O_10
REMARK    5  A    between atoms: O_10  and  C_11
REMARK    6  A    between atoms: C_11  and  C_12
REMARK    7  A    between atoms: C_12  and  C_13
REMARK    8  A    between atoms: C_13  and  N_14
REMARK                            x       y       z     vdW  Elec       q    Type
REMARK                         _______ _______ _______ _____ _____    ______ ____
ROOT
ATOM      1  C   UNL     1       2.298   5.477  19.906  0.00  0.00    +0.000 A 
ATOM      2  C   UNL     1       1.528   4.478  19.257  0.00  0.00    +0.000 A 
ATOM      3  C   UNL     1       2.138   3.434  18.557  0.00  0.00    +0.000 A 
ATOM      4  C   UNL     1       3.523   3.353  18.485  0.00  0.00    +0.000 A 
ATOM      5  C   UNL     1       4.320   4.326  19.089  0.00  0.00    +0.000 A 
ATOM      6  C   UNL     1       3.703   5.397  19.785  0.00  0.00    +0.000 A 
ENDROOT
BRANCH   1   8
ATOM      7  C   UNL     1       1.586   7.887  20.389  0.00  0.00    +0.000 C 
ATOM      8  C   UNL     1       1.708   6.581  20.770  0.00  0.00    +0.000 C 
BRANCH   7   9
ATOM      9  C   UNL     1       0.846   8.967  21.137  0.00  0.00    +0.000 A 
ATOM     10  N   UNL     1       1.099   9.106  22.466  0.00  0.00    +0.000 NA
ATOM     11  O   UNL     1       0.444  10.129  22.929  0.00  0.00    +0.000 OA
ATOM     12  C   UNL     1      -0.251  10.678  21.978  0.00  0.00    +0.000 A 
ATOM     13  C   UNL     1      -1.060  11.798  22.088  0.00  0.00    +0.000 A 
ATOM     14  C   UNL     1      -1.740  12.231  20.948  0.00  0.00    +0.000 A 
ATOM     15  C   UNL     1      -1.596  11.528  19.728  0.00  0.00    +0.000 A 
ATOM     16  C   UNL     1      -0.746  10.395  19.637  0.00  0.00    +0.000 A 
ATOM     17  C   UNL     1      -0.063   9.984  20.795  0.00  0.00    +0.000 A 
ENDBRANCH   7   9
BRANCH   7  19
ATOM     18  N   UNL     1       2.378   8.671  18.032  0.00  0.00    +0.000 NA
ATOM     19  C   UNL     1       2.027   8.310  19.074  0.00  0.00    +0.000 C 
ENDBRANCH   7  19
ENDBRANCH   1   8
BRANCH   5  20
ATOM     20  O   UNL     1       5.666   4.169  19.003  0.00  0.00    +0.000 OA
BRANCH  20  21
ATOM     21  C   UNL     1       6.616   5.032  19.507  0.00  0.00    +0.000 C 
BRANCH  21  22
ATOM     22  C   UNL     1       7.821   5.113  18.562  0.00  0.00    +0.000 C 
BRANCH  22  23
ATOM     23  C   UNL     1       7.502   4.503  17.181  0.00  0.00    +0.000 C 
BRANCH  23  24
ATOM     24  N   UNL     1       7.585   5.480  16.063  0.00  0.00    +0.000 NA
ATOM     25  C   UNL     1       6.900   6.748  16.407  0.00  0.00    +0.000 C 
ATOM     26  C   UNL     1       5.364   6.582  16.386  0.00  0.00    +0.000 C 
ATOM     27  O   UNL     1       4.918   6.115  15.124  0.00  0.00    +0.000 OA
ATOM     28  C   UNL     1       5.515   4.864  14.831  0.00  0.00    +0.000 C 
ATOM     29  C   UNL     1       7.044   5.002  14.770  0.00  0.00    +0.000 C 
ENDBRANCH  23  24
ENDBRANCH  22  23
ENDBRANCH  21  22
ENDBRANCH  20  21
ENDBRANCH   5  20
TORSDOF 8
ENDMDL
MODEL 8
REMARK VINA RESULT:      -7.7      1.642      2.055
REMARK  Name = 
REMARK  8 active torsions:
REMARK  status: ('A' for Active; 'I' for Inactive)
REMARK    1  A    between atoms: C_2  and  C_3
REMARK    2  A    between atoms: C_3  and  C_21
REMARK    3  A    between atoms: C_4  and  C_5
REMARK    4  A    between atoms: C_9  and  O_10
REMARK    5  A    between atoms: O_10  and  C_11
REMARK    6  A    between atoms: C_11  and  C_12
REMARK    7  A    between atoms: C_12  and  C_13
REMARK    8  A    between atoms: C_13  and  N_14
REMARK                            x       y       z     vdW  Elec       q    Type
REMARK                         _______ _______ _______ _____ _____    ______ ____
ROOT
ATOM      1  C   UNL     1       4.013   3.840  18.458  0.00  0.00    +0.000 A 
ATOM      2  C   UNL     1       4.060   2.541  19.026  0.00  0.00    +0.000 A 
ATOM      3  C   UNL     1       3.432   2.258  20.241  0.00  0.00    +0.000 A 
ATOM      4  C   UNL     1       2.742   3.253  20.922  0.00  0.00    +0.000 A 
ATOM      5  C   UNL     1       2.687   4.551  20.412  0.00  0.00    +0.000 A 
ATOM      6  C   UNL     1       3.339   4.845  19.187  0.00  0.00    +0.000 A 
ENDROOT
BRANCH   1   8
ATOM      7  C   UNL     1       5.846   4.665  16.875  0.00  0.00    +0.000 C 
ATOM      8  C   UNL     1       4.583   4.195  17.093  0.00  0.00    +0.000 C 
BRANCH   7   9
ATOM      9  C   UNL     1       6.507   4.854  15.533  0.00  0.00    +0.000 A 
ATOM     10  N   UNL     1       7.588   5.675  15.469  0.00  0.00    +0.000 NA
ATOM     11  O   UNL     1       8.078   5.657  14.264  0.00  0.00    +0.000 OA
ATOM     12  C   UNL     1       7.366   4.874  13.509  0.00  0.00    +0.000 A 
ATOM     13  C   UNL     1       7.592   4.590  12.170  0.00  0.00    +0.000 A 
ATOM     14  C   UNL     1       6.704   3.728  11.524  0.00  0.00    +0.000 A 
ATOM     15  C   UNL     1       5.611   3.176  12.233  0.00  0.00    +0.000 A 
ATOM     16  C   UNL     1       5.413   3.467  13.608  0.00  0.00    +0.000 A 
ATOM     17  C   UNL     1       6.326   4.329  14.241  0.00  0.00    +0.000 A 
ENDBRANCH   7   9
BRANCH   7  19
ATOM     18  N   UNL     1       7.471   5.018  18.884  0.00  0.00    +0.000 NA
ATOM     19  C   UNL     1       6.759   4.853  17.986  0.00  0.00    +0.000 C 
ENDBRANCH   7  19
ENDBRANCH   1   8
BRANCH   5  20
ATOM     20  O   UNL     1       1.972   5.466  21.115  0.00  0.00    +0.000 OA
BRANCH  20  21
ATOM     21  C   UNL     1       1.086   6.381  20.587  0.00  0.00    +0.000 C 
BRANCH  21  22
ATOM     22  C   UNL     1       1.750   7.757  20.456  0.00  0.00    +0.000 C 
BRANCH  22  23
ATOM     23  C   UNL     1       0.741   8.899  20.700  0.00  0.00    +0.000 C 
BRANCH  23  24
ATOM     24  N   UNL     1       1.203   9.901  21.696  0.00  0.00    +0.000 NA
ATOM     25  C   UNL     1       0.640   9.623  23.037  0.00  0.00    +0.000 C 
ATOM     26  C   UNL     1      -0.861   9.984  23.104  0.00  0.00    +0.000 C 
ATOM     27  O   UNL     1      -1.076  11.341  22.758  0.00  0.00    +0.000 OA
ATOM     28  C   UNL     1      -0.606  11.588  21.444  0.00  0.00    +0.000 C 
ATOM     29  C   UNL     1       0.902  11.310  21.354  0.00  0.00    +0.000 C 
ENDBRANCH  23  24
ENDBRANCH  22  23
ENDBRANCH  21  22
ENDBRANCH  20  21
ENDBRANCH   5  20
TORSDOF 8
ENDMDL
MODEL 9
REMARK VINA RESULT:      -7.7      2.087      8.683
REMARK  Name = 
REMARK  8 active torsions:
REMARK  status: ('A' for Active; 'I' for Inactive)
REMARK    1  A    between atoms: C_2  and  C_3
REMARK    2  A    between atoms: C_3  and  C_21
REMARK    3  A    between atoms: C_4  and  C_5
REMARK    4  A    between atoms: C_9  and  O_10
REMARK    5  A    between atoms: O_10  and  C_11
REMARK    6  A    between atoms: C_11  and  C_12
REMARK    7  A    between atoms: C_12  and  C_13
REMARK    8  A    between atoms: C_13  and  N_14
REMARK                            x       y       z     vdW  Elec       q    Type
REMARK                         _______ _______ _______ _____ _____    ______ ____
ROOT
ATOM      1  C   UNL     1       2.442   5.745  19.619  0.00  0.00    +0.000 A 
ATOM      2  C   UNL     1       1.729   4.629  19.111  0.00  0.00    +0.000 A 
ATOM      3  C   UNL     1       2.393   3.472  18.696  0.00  0.00    +0.000 A 
ATOM      4  C   UNL     1       3.779   3.394  18.772  0.00  0.00    +0.000 A 
ATOM      5  C   UNL     1       4.522   4.476  19.244  0.00  0.00    +0.000 A 
ATOM      6  C   UNL     1       3.851   5.658  19.650  0.00  0.00    +0.000 A 
ENDROOT
BRANCH   1   8
ATOM      7  C   UNL     1       1.707   8.195  19.541  0.00  0.00    +0.000 C 
ATOM      8  C   UNL     1       1.781   6.993  20.185  0.00  0.00    +0.000 C 
BRANCH   7   9
ATOM      9  C   UNL     1       0.909   9.395  19.984  0.00  0.00    +0.000 A 
ATOM     10  N   UNL     1       0.667  10.369  19.067  0.00  0.00    +0.000 NA
ATOM     11  O   UNL     1      -0.098  11.281  19.592  0.00  0.00    +0.000 OA
ATOM     12  C   UNL     1      -0.370  10.973  20.826  0.00  0.00    +0.000 A 
ATOM     13  C   UNL     1      -1.169  11.696  21.699  0.00  0.00    +0.000 A 
ATOM     14  C   UNL     1      -1.332  11.207  22.996  0.00  0.00    +0.000 A 
ATOM     15  C   UNL     1      -0.688  10.009  23.387  0.00  0.00    +0.000 A 
ATOM     16  C   UNL     1       0.110   9.277  22.469  0.00  0.00    +0.000 A 
ATOM     17  C   UNL     1       0.251   9.784  21.165  0.00  0.00    +0.000 A 
ENDBRANCH   7   9
BRANCH   7  19
ATOM     18  N   UNL     1       2.748   8.463  17.165  0.00  0.00    +0.000 NA
ATOM     19  C   UNL     1       2.276   8.352  18.216  0.00  0.00    +0.000 C 
ENDBRANCH   7  19
ENDBRANCH   1   8
BRANCH   5  20
ATOM     20  O   UNL     1       5.869   4.320  19.319  0.00  0.00    +0.000 OA
BRANCH  20  21
ATOM     21  C   UNL     1       6.778   5.291  19.680  0.00  0.00    +0.000 C 
BRANCH  21  22
ATOM     22  C   UNL     1       7.888   5.406  18.628  0.00  0.00    +0.000 C 
BRANCH  22  23
ATOM     23  C   UNL     1       7.625   4.477  17.424  0.00  0.00    +0.000 C 
BRANCH  23  24
ATOM     24  N   UNL     1       7.615   5.183  16.116  0.00  0.00    +0.000 NA
ATOM     25  C   UNL     1       6.994   6.522  16.234  0.00  0.00    +0.000 C 
ATOM     26  C   UNL     1       5.460   6.419  16.394  0.00  0.00    +0.000 C 
ATOM     27  O   UNL     1       4.881   5.709  15.314  0.00  0.00    +0.000 OA
ATOM     28  C   UNL     1       5.420   4.401  15.249  0.00  0.00    +0.000 C 
ATOM     29  C   UNL     1       6.938   4.458  15.016  0.00  0.00    +0.000 C 
ENDBRANCH  23  24
ENDBRANCH  22  23
ENDBRANCH  21  22
ENDBRANCH  20  21
ENDBRANCH   5  20
TORSDOF 8
ENDMDL
