MODEL 1
REMARK VINA RESULT:      -7.2      0.000      0.000
REMARK  Name = 
REMARK  10 active torsions:
REMARK  status: ('A' for Active; 'I' for Inactive)
REMARK    1  A    between atoms: C_1  and  N_2
REMARK    2  A    between atoms: N_2  and  C_3
REMARK    3  A    between atoms: N_2  and  S_4
REMARK    4  A    between atoms: S_4  and  N_7
REMARK    5  A    between atoms: C_8  and  C_10
REMARK    6  A    between atoms: C_14  and  O_15
REMARK    7  A    between atoms: O_15  and  C_16
REMARK    8  A    between atoms: C_16  and  C_17
REMARK    9  A    between atoms: C_17  and  C_18
REMARK   10  A    between atoms: C_18  and  C_19
REMARK                            x       y       z     vdW  Elec       q    Type
REMARK                         _______ _______ _______ _____ _____    ______ ____
ROOT
ATOM      1  C   UNL     1       2.579   7.151  19.054  0.00  0.00    +0.000 A 
ATOM      2  C   UNL     1       1.984   7.395  20.302  0.00  0.00    +0.000 A 
ATOM      3  C   UNL     1       1.238   8.560  20.511  0.00  0.00    +0.000 A 
ATOM      4 CL   UNL     1       0.516   8.786  22.063  0.00  0.00    +0.000 Cl
ATOM      5  C   UNL     1       1.068   9.492  19.478  0.00  0.00    +0.000 A 
ATOM      6  C   UNL     1       1.694   9.260  18.247  0.00  0.00    +0.000 A 
ATOM      7  C   UNL     1       2.438   8.093  18.044  0.00  0.00    +0.000 A 
ATOM      8  F   UNL     1       3.031   7.913  16.854  0.00  0.00    +0.000 F 
ENDROOT
BRANCH   1  10
ATOM      9  N   UNL     1       4.557   5.910  18.256  0.00  0.00    +0.000 N 
ATOM     10  C   UNL     1       3.289   5.865  18.869  0.00  0.00    +0.000 C 
ATOM     11  O   UNL     1       2.713   4.837  19.193  0.00  0.00    +0.000 OA
ATOM     12  H   UNL     1       5.168   6.693  18.473  0.00  0.00    +0.000 HD
BRANCH   9  13
ATOM     13  S   UNL     1       5.399   4.504  17.982  0.00  0.00    +0.000 S 
ATOM     14  O   UNL     1       4.810   3.774  16.886  0.00  0.00    +0.000 OA
ATOM     15  O   UNL     1       5.670   3.896  19.260  0.00  0.00    +0.000 OA
BRANCH  13  17
ATOM     16  C   UNL     1       6.985   4.850  15.918  0.00  0.00    +0.000 C 
ATOM     17  N   UNL     1       6.890   5.089  17.389  0.00  0.00    +0.000 NA
ATOM     18  C   UNL     1       7.200   6.507  17.685  0.00  0.00    +0.000 C 
ENDBRANCH  13  17
ENDBRANCH   9  13
ENDBRANCH   1  10
BRANCH   5  19
ATOM     19  O   UNL     1       0.330  10.614  19.757  0.00  0.00    +0.000 OA
BRANCH  19  20
ATOM     20  C   UNL     1       0.862  11.865  19.313  0.00  0.00    +0.000 C 
BRANCH  20  21
ATOM     21  C   UNL     1      -0.251  12.636  18.597  0.00  0.00    +0.000 C 
BRANCH  21  22
ATOM     22  C   UNL     1      -1.591  11.901  18.687  0.00  0.00    +0.000 C 
BRANCH  22  23
ATOM     23  C   UNL     1      -2.155  11.475  17.326  0.00  0.00    +0.000 C 
ATOM     24  C   UNL     1      -1.940  10.006  16.974  0.00  0.00    +0.000 C 
ATOM     25  C   UNL     1      -2.942   9.750  15.853  0.00  0.00    +0.000 C 
ATOM     26  C   UNL     1      -4.122  10.677  16.133  0.00  0.00    +0.000 C 
ATOM     27  C   UNL     1      -3.680  11.607  17.263  0.00  0.00    +0.000 C 
ENDBRANCH  22  23
ENDBRANCH  21  22
ENDBRANCH  20  21
ENDBRANCH  19  20
ENDBRANCH   5  19
TORSDOF 8
ENDMDL
MODEL 2
REMARK VINA RESULT:      -7.2      5.586      8.458
REMARK  Name = 
REMARK  10 active torsions:
REMARK  status: ('A' for Active; 'I' for Inactive)
REMARK    1  A    between atoms: C_1  and  N_2
REMARK    2  A    between atoms: N_2  and  C_3
REMARK    3  A    between atoms: N_2  and  S_4
REMARK    4  A    between atoms: S_4  and  N_7
REMARK    5  A    between atoms: C_8  and  C_10
REMARK    6  A    between atoms: C_14  and  O_15
REMARK    7  A    between atoms: O_15  and  C_16
REMARK    8  A    between atoms: C_16  and  C_17
REMARK    9  A    between atoms: C_17  and  C_18
REMARK   10  A    between atoms: C_18  and  C_19
REMARK                            x       y       z     vdW  Elec       q    Type
REMARK                         _______ _______ _______ _____ _____    ______ ____
ROOT
ATOM      1  C   UNL     1       5.449   5.356  17.506  0.00  0.00    +0.000 A 
ATOM      2  C   UNL     1       6.340   5.049  18.547  0.00  0.00    +0.000 A 
ATOM      3  C   UNL     1       7.388   5.922  18.857  0.00  0.00    +0.000 A 
ATOM      4 CL   UNL     1       8.433   5.494  20.164  0.00  0.00    +0.000 Cl
ATOM      5  C   UNL     1       7.556   7.116  18.143  0.00  0.00    +0.000 A 
ATOM      6  C   UNL     1       6.685   7.399  17.083  0.00  0.00    +0.000 A 
ATOM      7  C   UNL     1       5.639   6.522  16.777  0.00  0.00    +0.000 A 
ATOM      8  F   UNL     1       4.833   6.823  15.747  0.00  0.00    +0.000 F 
ENDROOT
BRANCH   1  10
ATOM      9  N   UNL     1       3.295   4.408  18.250  0.00  0.00    +0.000 N 
ATOM     10  C   UNL     1       4.314   4.433  17.277  0.00  0.00    +0.000 C 
ATOM     11  O   UNL     1       4.355   3.701  16.299  0.00  0.00    +0.000 OA
ATOM     12  H   UNL     1       3.034   5.285  18.694  0.00  0.00    +0.000 HD
BRANCH   9  13
ATOM     13  S   UNL     1       2.007   3.373  18.080  0.00  0.00    +0.000 S 
ATOM     14  O   UNL     1       2.473   2.028  17.846  0.00  0.00    +0.000 OA
ATOM     15  O   UNL     1       1.035   4.014  17.231  0.00  0.00    +0.000 OA
BRANCH  13  17
ATOM     16  C   UNL     1       2.180   2.496  20.549  0.00  0.00    +0.000 C 
ATOM     17  N   UNL     1       1.349   3.358  19.657  0.00  0.00    +0.000 NA
ATOM     18  C   UNL     1       1.143   4.680  20.291  0.00  0.00    +0.000 C 
ENDBRANCH  13  17
ENDBRANCH   9  13
ENDBRANCH   1  10
BRANCH   5  19
ATOM     19  O   UNL     1       8.609   7.920  18.498  0.00  0.00    +0.000 OA
BRANCH  19  20
ATOM     20  C   UNL     1       8.474   9.319  18.227  0.00  0.00    +0.000 C 
BRANCH  20  21
ATOM     21  C   UNL     1       9.213  10.095  19.321  0.00  0.00    +0.000 C 
BRANCH  21  22
ATOM     22  C   UNL     1      10.064  11.224  18.733  0.00  0.00    +0.000 C 
BRANCH  22  23
ATOM     23  C   UNL     1       9.879  12.570  19.443  0.00  0.00    +0.000 C 
ATOM     24  C   UNL     1       9.748  12.483  20.961  0.00  0.00    +0.000 C 
ATOM     25  C   UNL     1      10.028  13.905  21.433  0.00  0.00    +0.000 C 
ATOM     26  C   UNL     1      11.012  14.490  20.423  0.00  0.00    +0.000 C 
ATOM     27  C   UNL     1      11.095  13.488  19.273  0.00  0.00    +0.000 C 
ENDBRANCH  22  23
ENDBRANCH  21  22
ENDBRANCH  20  21
ENDBRANCH  19  20
ENDBRANCH   5  19
TORSDOF 8
ENDMDL
MODEL 3
REMARK VINA RESULT:      -7.1      3.789      7.963
REMARK  Name = 
REMARK  10 active torsions:
REMARK  status: ('A' for Active; 'I' for Inactive)
REMARK    1  A    between atoms: C_1  and  N_2
REMARK    2  A    between atoms: N_2  and  C_3
REMARK    3  A    between atoms: N_2  and  S_4
REMARK    4  A    between atoms: S_4  and  N_7
REMARK    5  A    between atoms: C_8  and  C_10
REMARK    6  A    between atoms: C_14  and  O_15
REMARK    7  A    between atoms: O_15  and  C_16
REMARK    8  A    between atoms: C_16  and  C_17
REMARK    9  A    between atoms: C_17  and  C_18
REMARK   10  A    between atoms: C_18  and  C_19
REMARK                            x       y       z     vdW  Elec       q    Type
REMARK                         _______ _______ _______ _____ _____    ______ ____
ROOT
ATOM      1  C   UNL     1       2.392   7.949  18.676  0.00  0.00    +0.000 A 
ATOM      2  C   UNL     1       3.219   7.913  17.542  0.00  0.00    +0.000 A 
ATOM      3  C   UNL     1       4.067   6.821  17.324  0.00  0.00    +0.000 A 
ATOM      4 CL   UNL     1       5.041   6.831  15.898  0.00  0.00    +0.000 Cl
ATOM      5  C   UNL     1       4.096   5.749  18.227  0.00  0.00    +0.000 A 
ATOM      6  C   UNL     1       3.295   5.809  19.374  0.00  0.00    +0.000 A 
ATOM      7  C   UNL     1       2.449   6.902  19.586  0.00  0.00    +0.000 A 
ATOM      8  F   UNL     1       1.705   6.927  20.703  0.00  0.00    +0.000 F 
ENDROOT
BRANCH   1  10
ATOM      9  N   UNL     1       1.354   9.691  20.082  0.00  0.00    +0.000 N 
ATOM     10  C   UNL     1       1.459   9.091  18.811  0.00  0.00    +0.000 C 
ATOM     11  O   UNL     1       0.788   9.405  17.840  0.00  0.00    +0.000 OA
ATOM     12  H   UNL     1       2.196   9.775  20.645  0.00  0.00    +0.000 HD
BRANCH   9  13
ATOM     13  S   UNL     1       0.302  10.955  20.321  0.00  0.00    +0.000 S 
ATOM     14  O   UNL     1       0.478  11.511  21.640  0.00  0.00    +0.000 OA
ATOM     15  O   UNL     1      -0.987  10.557  19.815  0.00  0.00    +0.000 OA
BRANCH  13  17
ATOM     16  C   UNL     1      -0.218  12.897  18.632  0.00  0.00    +0.000 C 
ATOM     17  N   UNL     1       0.910  12.135  19.245  0.00  0.00    +0.000 NA
ATOM     18  C   UNL     1       1.903  13.079  19.805  0.00  0.00    +0.000 C 
ENDBRANCH  13  17
ENDBRANCH   9  13
ENDBRANCH   1  10
BRANCH   5  19
ATOM     19  O   UNL     1       4.956   4.717  17.952  0.00  0.00    +0.000 OA
BRANCH  19  20
ATOM     20  C   UNL     1       4.443   3.641  17.162  0.00  0.00    +0.000 C 
BRANCH  20  21
ATOM     21  C   UNL     1       4.249   2.424  18.072  0.00  0.00    +0.000 C 
BRANCH  21  22
ATOM     22  C   UNL     1       2.833   1.854  17.954  0.00  0.00    +0.000 C 
BRANCH  22  23
ATOM     23  C   UNL     1       1.975   2.066  19.207  0.00  0.00    +0.000 C 
ATOM     24  C   UNL     1       2.753   2.476  20.455  0.00  0.00    +0.000 C 
ATOM     25  C   UNL     1       1.682   3.043  21.381  0.00  0.00    +0.000 C 
ATOM     26  C   UNL     1       0.625   3.654  20.465  0.00  0.00    +0.000 C 
ATOM     27  C   UNL     1       0.986   3.225  19.043  0.00  0.00    +0.000 C 
ENDBRANCH  22  23
ENDBRANCH  21  22
ENDBRANCH  20  21
ENDBRANCH  19  20
ENDBRANCH   5  19
TORSDOF 8
ENDMDL
MODEL 4
REMARK VINA RESULT:      -7.1      3.446      8.320
REMARK  Name = 
REMARK  10 active torsions:
REMARK  status: ('A' for Active; 'I' for Inactive)
REMARK    1  A    between atoms: C_1  and  N_2
REMARK    2  A    between atoms: N_2  and  C_3
REMARK    3  A    between atoms: N_2  and  S_4
REMARK    4  A    between atoms: S_4  and  N_7
REMARK    5  A    between atoms: C_8  and  C_10
REMARK    6  A    between atoms: C_14  and  O_15
REMARK    7  A    between atoms: O_15  and  C_16
REMARK    8  A    between atoms: C_16  and  C_17
REMARK    9  A    between atoms: C_17  and  C_18
REMARK   10  A    between atoms: C_18  and  C_19
REMARK                            x       y       z     vdW  Elec       q    Type
REMARK                         _______ _______ _______ _____ _____    ______ ____
ROOT
ATOM      1  C   UNL     1       1.694   7.380  20.178  0.00  0.00    +0.000 A 
ATOM      2  C   UNL     1       1.422   6.105  20.700  0.00  0.00    +0.000 A 
ATOM      3  C   UNL     1       1.833   4.959  20.011  0.00  0.00    +0.000 A 
ATOM      4 CL   UNL     1       1.484   3.424  20.721  0.00  0.00    +0.000 Cl
ATOM      5  C   UNL     1       2.528   5.067  18.798  0.00  0.00    +0.000 A 
ATOM      6  C   UNL     1       2.764   6.341  18.266  0.00  0.00    +0.000 A 
ATOM      7  C   UNL     1       2.352   7.483  18.959  0.00  0.00    +0.000 A 
ATOM      8  F   UNL     1       2.588   8.684  18.411  0.00  0.00    +0.000 F 
ENDROOT
BRANCH   1  10
ATOM      9  N   UNL     1       0.365   9.443  20.433  0.00  0.00    +0.000 N 
ATOM     10  C   UNL     1       1.306   8.554  20.991  0.00  0.00    +0.000 C 
ATOM     11  O   UNL     1       1.866   8.724  22.063  0.00  0.00    +0.000 OA
ATOM     12  H   UNL     1      -0.392   9.054  19.878  0.00  0.00    +0.000 HD
BRANCH   9  13
ATOM     13  S   UNL     1      -0.094  10.802  21.269  0.00  0.00    +0.000 S 
ATOM     14  O   UNL     1       0.994  11.748  21.325  0.00  0.00    +0.000 OA
ATOM     15  O   UNL     1      -0.809  10.376  22.446  0.00  0.00    +0.000 OA
BRANCH  13  17
ATOM     16  C   UNL     1      -1.150  12.987  20.266  0.00  0.00    +0.000 C 
ATOM     17  N   UNL     1      -1.247  11.498  20.218  0.00  0.00    +0.000 NA
ATOM     18  C   UNL     1      -1.208  11.041  18.811  0.00  0.00    +0.000 C 
ENDBRANCH  13  17
ENDBRANCH   9  13
ENDBRANCH   1  10
BRANCH   5  19
ATOM     19  O   UNL     1       2.893   3.901  18.175  0.00  0.00    +0.000 OA
BRANCH  19  20
ATOM     20  C   UNL     1       4.293   3.690  17.969  0.00  0.00    +0.000 C 
BRANCH  20  21
ATOM     21  C   UNL     1       4.647   4.157  16.554  0.00  0.00    +0.000 C 
BRANCH  21  22
ATOM     22  C   UNL     1       6.141   3.993  16.265  0.00  0.00    +0.000 C 
BRANCH  22  23
ATOM     23  C   UNL     1       6.981   5.220  16.643  0.00  0.00    +0.000 C 
ATOM     24  C   UNL     1       6.211   6.537  16.686  0.00  0.00    +0.000 C 
ATOM     25  C   UNL     1       7.116   7.462  17.492  0.00  0.00    +0.000 C 
ATOM     26  C   UNL     1       7.856   6.561  18.477  0.00  0.00    +0.000 C 
ATOM     27  C   UNL     1       7.542   5.123  18.066  0.00  0.00    +0.000 C 
ENDBRANCH  22  23
ENDBRANCH  21  22
ENDBRANCH  20  21
ENDBRANCH  19  20
ENDBRANCH   5  19
TORSDOF 8
ENDMDL
MODEL 5
REMARK VINA RESULT:      -7.1      4.135      8.061
REMARK  Name = 
REMARK  10 active torsions:
REMARK  status: ('A' for Active; 'I' for Inactive)
REMARK    1  A    between atoms: C_1  and  N_2
REMARK    2  A    between atoms: N_2  and  C_3
REMARK    3  A    between atoms: N_2  and  S_4
REMARK    4  A    between atoms: S_4  and  N_7
REMARK    5  A    between atoms: C_8  and  C_10
REMARK    6  A    between atoms: C_14  and  O_15
REMARK    7  A    between atoms: O_15  and  C_16
REMARK    8  A    between atoms: C_16  and  C_17
REMARK    9  A    between atoms: C_17  and  C_18
REMARK   10  A    between atoms: C_18  and  C_19
REMARK                            x       y       z     vdW  Elec       q    Type
REMARK                         _______ _______ _______ _____ _____    ______ ____
ROOT
ATOM      1  C   UNL     1       2.133   8.272  18.662  0.00  0.00    +0.000 A 
ATOM      2  C   UNL     1       3.036   8.160  17.593  0.00  0.00    +0.000 A 
ATOM      3  C   UNL     1       3.877   7.046  17.494  0.00  0.00    +0.000 A 
ATOM      4 CL   UNL     1       4.948   6.963  16.141  0.00  0.00    +0.000 Cl
ATOM      5  C   UNL     1       3.823   6.025  18.452  0.00  0.00    +0.000 A 
ATOM      6  C   UNL     1       2.946   6.160  19.536  0.00  0.00    +0.000 A 
ATOM      7  C   UNL     1       2.107   7.275  19.629  0.00  0.00    +0.000 A 
ATOM      8  F   UNL     1       1.289   7.373  20.688  0.00  0.00    +0.000 F 
ENDROOT
BRANCH   1  10
ATOM      9  N   UNL     1       1.335  10.343  19.739  0.00  0.00    +0.000 N 
ATOM     10  C   UNL     1       1.215   9.433  18.670  0.00  0.00    +0.000 C 
ATOM     11  O   UNL     1       0.366   9.502  17.793  0.00  0.00    +0.000 OA
ATOM     12  H   UNL     1       2.265  10.548  20.093  0.00  0.00    +0.000 HD
BRANCH   9  13
ATOM     13  S   UNL     1       0.316  11.651  19.836  0.00  0.00    +0.000 S 
ATOM     14  O   UNL     1      -0.988  11.238  20.295  0.00  0.00    +0.000 OA
ATOM     15  O   UNL     1       0.502  12.444  18.647  0.00  0.00    +0.000 OA
BRANCH  13  17
ATOM     16  C   UNL     1       2.153  13.345  20.644  0.00  0.00    +0.000 C 
ATOM     17  N   UNL     1       0.993  12.538  21.129  0.00  0.00    +0.000 NA
ATOM     18  C   UNL     1       0.062  13.407  21.884  0.00  0.00    +0.000 C 
ENDBRANCH  13  17
ENDBRANCH   9  13
ENDBRANCH   1  10
BRANCH   5  19
ATOM     19  O   UNL     1       4.681   4.967  18.295  0.00  0.00    +0.000 OA
BRANCH  19  20
ATOM     20  C   UNL     1       4.573   4.223  17.078  0.00  0.00    +0.000 C 
BRANCH  20  21
ATOM     21  C   UNL     1       3.383   3.267  17.201  0.00  0.00    +0.000 C 
BRANCH  21  22
ATOM     22  C   UNL     1       3.609   2.226  18.301  0.00  0.00    +0.000 C 
BRANCH  22  23
ATOM     23  C   UNL     1       2.489   2.180  19.347  0.00  0.00    +0.000 C 
ATOM     24  C   UNL     1       2.897   2.636  20.746  0.00  0.00    +0.000 C 
ATOM     25  C   UNL     1       1.569   2.922  21.438  0.00  0.00    +0.000 C 
ATOM     26  C   UNL     1       0.621   3.389  20.337  0.00  0.00    +0.000 C 
ATOM     27  C   UNL     1       1.343   3.141  19.013  0.00  0.00    +0.000 C 
ENDBRANCH  22  23
ENDBRANCH  21  22
ENDBRANCH  20  21
ENDBRANCH  19  20
ENDBRANCH   5  19
TORSDOF 8
ENDMDL
MODEL 6
REMARK VINA RESULT:      -7.1      5.723      8.543
REMARK  Name = 
REMARK  10 active torsions:
REMARK  status: ('A' for Active; 'I' for Inactive)
REMARK    1  A    between atoms: C_1  and  N_2
REMARK    2  A    between atoms: N_2  and  C_3
REMARK    3  A    between atoms: N_2  and  S_4
REMARK    4  A    between atoms: S_4  and  N_7
REMARK    5  A    between atoms: C_8  and  C_10
REMARK    6  A    between atoms: C_14  and  O_15
REMARK    7  A    between atoms: O_15  and  C_16
REMARK    8  A    between atoms: C_16  and  C_17
REMARK    9  A    between atoms: C_17  and  C_18
REMARK   10  A    between atoms: C_18  and  C_19
REMARK                            x       y       z     vdW  Elec       q    Type
REMARK                         _______ _______ _______ _____ _____    ______ ____
ROOT
ATOM      1  C   UNL     1       5.197   4.719  17.583  0.00  0.00    +0.000 A 
ATOM      2  C   UNL     1       6.026   4.813  18.712  0.00  0.00    +0.000 A 
ATOM      3  C   UNL     1       7.047   5.768  18.759  0.00  0.00    +0.000 A 
ATOM      4 CL   UNL     1       8.016   5.843  20.187  0.00  0.00    +0.000 Cl
ATOM      5  C   UNL     1       7.250   6.648  17.686  0.00  0.00    +0.000 A 
ATOM      6  C   UNL     1       6.442   6.524  16.549  0.00  0.00    +0.000 A 
ATOM      7  C   UNL     1       5.423   5.568  16.508  0.00  0.00    +0.000 A 
ATOM      8  F   UNL     1       4.678   5.475  15.396  0.00  0.00    +0.000 F 
ENDROOT
BRANCH   1  10
ATOM      9  N   UNL     1       3.228   3.787  18.744  0.00  0.00    +0.000 N 
ATOM     10  C   UNL     1       4.084   3.743  17.625  0.00  0.00    +0.000 C 
ATOM     11  O   UNL     1       4.009   2.916  16.729  0.00  0.00    +0.000 OA
ATOM     12  H   UNL     1       2.998   4.696  19.136  0.00  0.00    +0.000 HD
BRANCH   9  13
ATOM     13  S   UNL     1       1.979   2.701  18.879  0.00  0.00    +0.000 S 
ATOM     14  O   UNL     1       2.494   1.369  19.081  0.00  0.00    +0.000 OA
ATOM     15  O   UNL     1       1.013   3.011  17.857  0.00  0.00    +0.000 OA
BRANCH  13  17
ATOM     16  C   UNL     1       2.124   2.661  21.501  0.00  0.00    +0.000 C 
ATOM     17  N   UNL     1       1.276   3.148  20.371  0.00  0.00    +0.000 NA
ATOM     18  C   UNL     1       0.984   4.588  20.551  0.00  0.00    +0.000 C 
ENDBRANCH  13  17
ENDBRANCH   9  13
ENDBRANCH   1  10
BRANCH   5  19
ATOM     19  O   UNL     1       8.274   7.553  17.799  0.00  0.00    +0.000 OA
BRANCH  19  20
ATOM     20  C   UNL     1       7.949   8.927  17.568  0.00  0.00    +0.000 C 
BRANCH  20  21
ATOM     21  C   UNL     1       8.703   9.779  18.594  0.00  0.00    +0.000 C 
BRANCH  21  22
ATOM     22  C   UNL     1       8.766  11.248  18.168  0.00  0.00    +0.000 C 
BRANCH  22  23
ATOM     23  C   UNL     1       9.961  12.010  18.753  0.00  0.00    +0.000 C 
ATOM     24  C   UNL     1      10.720  11.269  19.850  0.00  0.00    +0.000 C 
ATOM     25  C   UNL     1      12.055  12.001  19.927  0.00  0.00    +0.000 C 
ATOM     26  C   UNL     1      12.333  12.504  18.513  0.00  0.00    +0.000 C 
ATOM     27  C   UNL     1      11.056  12.260  17.710  0.00  0.00    +0.000 C 
ENDBRANCH  22  23
ENDBRANCH  21  22
ENDBRANCH  20  21
ENDBRANCH  19  20
ENDBRANCH   5  19
TORSDOF 8
ENDMDL
MODEL 7
REMARK VINA RESULT:      -7.1      5.399      8.315
REMARK  Name = 
REMARK  10 active torsions:
REMARK  status: ('A' for Active; 'I' for Inactive)
REMARK    1  A    between atoms: C_1  and  N_2
REMARK    2  A    between atoms: N_2  and  C_3
REMARK    3  A    between atoms: N_2  and  S_4
REMARK    4  A    between atoms: S_4  and  N_7
REMARK    5  A    between atoms: C_8  and  C_10
REMARK    6  A    between atoms: C_14  and  O_15
REMARK    7  A    between atoms: O_15  and  C_16
REMARK    8  A    between atoms: C_16  and  C_17
REMARK    9  A    between atoms: C_17  and  C_18
REMARK   10  A    between atoms: C_18  and  C_19
REMARK                            x       y       z     vdW  Elec       q    Type
REMARK                         _______ _______ _______ _____ _____    ______ ____
ROOT
ATOM      1  C   UNL     1       4.088   5.642  18.271  0.00  0.00    +0.000 A 
ATOM      2  C   UNL     1       5.323   4.981  18.368  0.00  0.00    +0.000 A 
ATOM      3  C   UNL     1       6.497   5.616  17.948  0.00  0.00    +0.000 A 
ATOM      4 CL   UNL     1       7.984   4.753  18.117  0.00  0.00    +0.000 Cl
ATOM      5  C   UNL     1       6.458   6.920  17.435  0.00  0.00    +0.000 A 
ATOM      6  C   UNL     1       5.219   7.559  17.307  0.00  0.00    +0.000 A 
ATOM      7  C   UNL     1       4.049   6.920  17.729  0.00  0.00    +0.000 A 
ATOM      8  F   UNL     1       2.880   7.562  17.580  0.00  0.00    +0.000 F 
ENDROOT
BRANCH   1  10
ATOM      9  N   UNL     1       3.025   4.299  20.047  0.00  0.00    +0.000 N 
ATOM     10  C   UNL     1       2.893   4.951  18.804  0.00  0.00    +0.000 C 
ATOM     11  O   UNL     1       1.885   4.926  18.114  0.00  0.00    +0.000 OA
ATOM     12  H   UNL     1       3.604   4.736  20.759  0.00  0.00    +0.000 HD
BRANCH   9  13
ATOM     13  S   UNL     1       1.738   3.472  20.693  0.00  0.00    +0.000 S 
ATOM     14  O   UNL     1       0.500   4.137  20.366  0.00  0.00    +0.000 OA
ATOM     15  O   UNL     1       2.084   3.101  22.042  0.00  0.00    +0.000 OA
BRANCH  13  17
ATOM     16  C   UNL     1       0.617   2.057  18.786  0.00  0.00    +0.000 C 
ATOM     17  N   UNL     1       1.738   2.033  19.772  0.00  0.00    +0.000 NA
ATOM     18  C   UNL     1       3.004   1.700  19.080  0.00  0.00    +0.000 C 
ENDBRANCH  13  17
ENDBRANCH   9  13
ENDBRANCH   1  10
BRANCH   5  19
ATOM     19  O   UNL     1       7.647   7.476  17.037  0.00  0.00    +0.000 OA
BRANCH  19  20
ATOM     20  C   UNL     1       8.413   8.149  18.040  0.00  0.00    +0.000 C 
BRANCH  20  21
ATOM     21  C   UNL     1       8.189   9.657  17.887  0.00  0.00    +0.000 C 
BRANCH  21  22
ATOM     22  C   UNL     1       9.110  10.459  18.810  0.00  0.00    +0.000 C 
BRANCH  22  23
ATOM     23  C   UNL     1      10.212  11.225  18.069  0.00  0.00    +0.000 C 
ATOM     24  C   UNL     1       9.804  12.607  17.564  0.00  0.00    +0.000 C 
ATOM     25  C   UNL     1      11.134  13.302  17.293  0.00  0.00    +0.000 C 
ATOM     26  C   UNL     1      12.118  12.722  18.305  0.00  0.00    +0.000 C 
ATOM     27  C   UNL     1      11.405  11.548  18.975  0.00  0.00    +0.000 C 
ENDBRANCH  22  23
ENDBRANCH  21  22
ENDBRANCH  20  21
ENDBRANCH  19  20
ENDBRANCH   5  19
TORSDOF 8
ENDMDL
MODEL 8
REMARK VINA RESULT:      -7.1      3.388      8.178
REMARK  Name = 
REMARK  10 active torsions:
REMARK  status: ('A' for Active; 'I' for Inactive)
REMARK    1  A    between atoms: C_1  and  N_2
REMARK    2  A    between atoms: N_2  and  C_3
REMARK    3  A    between atoms: N_2  and  S_4
REMARK    4  A    between atoms: S_4  and  N_7
REMARK    5  A    between atoms: C_8  and  C_10
REMARK    6  A    between atoms: C_14  and  O_15
REMARK    7  A    between atoms: O_15  and  C_16
REMARK    8  A    between atoms: C_16  and  C_17
REMARK    9  A    between atoms: C_17  and  C_18
REMARK   10  A    between atoms: C_18  and  C_19
REMARK                            x       y       z     vdW  Elec       q    Type
REMARK                         _______ _______ _______ _____ _____    ______ ____
ROOT
ATOM      1  C   UNL     1       1.663   7.570  20.292  0.00  0.00    +0.000 A 
ATOM      2  C   UNL     1       1.406   6.345  20.928  0.00  0.00    +0.000 A 
ATOM      3  C   UNL     1       1.817   5.145  20.337  0.00  0.00    +0.000 A 
ATOM      4 CL   UNL     1       1.489   3.676  21.184  0.00  0.00    +0.000 Cl
ATOM      5  C   UNL     1       2.498   5.150  19.112  0.00  0.00    +0.000 A 
ATOM      6  C   UNL     1       2.719   6.373  18.466  0.00  0.00    +0.000 A 
ATOM      7  C   UNL     1       2.305   7.569  19.061  0.00  0.00    +0.000 A 
ATOM      8  F   UNL     1       2.526   8.719  18.405  0.00  0.00    +0.000 F 
ENDROOT
BRANCH   1  10
ATOM      9  N   UNL     1       0.515   9.755  20.283  0.00  0.00    +0.000 N 
ATOM     10  C   UNL     1       1.274   8.809  21.002  0.00  0.00    +0.000 C 
ATOM     11  O   UNL     1       1.685   8.974  22.141  0.00  0.00    +0.000 OA
ATOM     12  H   UNL     1      -0.186   9.412  19.633  0.00  0.00    +0.000 HD
BRANCH   9  13
ATOM     13  S   UNL     1       0.072  11.185  21.001  0.00  0.00    +0.000 S 
ATOM     14  O   UNL     1       1.234  12.004  21.246  0.00  0.00    +0.000 OA
ATOM     15  O   UNL     1      -0.892  10.883  22.029  0.00  0.00    +0.000 OA
BRANCH  13  17
ATOM     16  C   UNL     1       0.180  12.660  18.831  0.00  0.00    +0.000 C 
ATOM     17  N   UNL     1      -0.779  11.969  19.744  0.00  0.00    +0.000 NA
ATOM     18  C   UNL     1      -1.700  11.122  18.952  0.00  0.00    +0.000 C 
ENDBRANCH  13  17
ENDBRANCH   9  13
ENDBRANCH   1  10
BRANCH   5  19
ATOM     19  O   UNL     1       2.865   3.936  18.590  0.00  0.00    +0.000 OA
BRANCH  19  20
ATOM     20  C   UNL     1       3.095   3.882  17.179  0.00  0.00    +0.000 C 
BRANCH  20  21
ATOM     21  C   UNL     1       4.579   3.587  16.943  0.00  0.00    +0.000 C 
BRANCH  21  22
ATOM     22  C   UNL     1       5.315   4.810  16.389  0.00  0.00    +0.000 C 
BRANCH  22  23
ATOM     23  C   UNL     1       5.990   5.665  17.469  0.00  0.00    +0.000 C 
ATOM     24  C   UNL     1       7.140   4.981  18.203  0.00  0.00    +0.000 C 
ATOM     25  C   UNL     1       7.894   6.135  18.855  0.00  0.00    +0.000 C 
ATOM     26  C   UNL     1       7.709   7.329  17.922  0.00  0.00    +0.000 C 
ATOM     27  C   UNL     1       6.670   6.908  16.884  0.00  0.00    +0.000 C 
ENDBRANCH  22  23
ENDBRANCH  21  22
ENDBRANCH  20  21
ENDBRANCH  19  20
ENDBRANCH   5  19
TORSDOF 8
ENDMDL
MODEL 9
REMARK VINA RESULT:      -6.9      4.197      8.348
REMARK  Name = 
REMARK  10 active torsions:
REMARK  status: ('A' for Active; 'I' for Inactive)
REMARK    1  A    between atoms: C_1  and  N_2
REMARK    2  A    between atoms: N_2  and  C_3
REMARK    3  A    between atoms: N_2  and  S_4
REMARK    4  A    between atoms: S_4  and  N_7
REMARK    5  A    between atoms: C_8  and  C_10
REMARK    6  A    between atoms: C_14  and  O_15
REMARK    7  A    between atoms: O_15  and  C_16
REMARK    8  A    between atoms: C_16  and  C_17
REMARK    9  A    between atoms: C_17  and  C_18
REMARK   10  A    between atoms: C_18  and  C_19
REMARK                            x       y       z     vdW  Elec       q    Type
REMARK                         _______ _______ _______ _____ _____    ______ ____
ROOT
ATOM      1  C   UNL     1       1.499   8.007  20.474  0.00  0.00    +0.000 A 
ATOM      2  C   UNL     1       1.424   6.721  21.034  0.00  0.00    +0.000 A 
ATOM      3  C   UNL     1       1.864   5.609  20.307  0.00  0.00    +0.000 A 
ATOM      4 CL   UNL     1       1.764   4.060  21.064  0.00  0.00    +0.000 Cl
ATOM      5  C   UNL     1       2.394   5.765  19.018  0.00  0.00    +0.000 A 
ATOM      6  C   UNL     1       2.432   7.045  18.452  0.00  0.00    +0.000 A 
ATOM      7  C   UNL     1       1.991   8.152  19.183  0.00  0.00    +0.000 A 
ATOM      8  F   UNL     1       2.034   9.361  18.602  0.00  0.00    +0.000 F 
ENDROOT
BRANCH   1  10
ATOM      9  N   UNL     1       0.035   9.958  20.850  0.00  0.00    +0.000 N 
ATOM     10  C   UNL     1       1.092   9.151  21.320  0.00  0.00    +0.000 C 
ATOM     11  O   UNL     1       1.732   9.372  22.337  0.00  0.00    +0.000 OA
ATOM     12  H   UNL     1      -0.735   9.505  20.366  0.00  0.00    +0.000 HD
BRANCH   9  13
ATOM     13  S   UNL     1      -0.454  11.280  21.727  0.00  0.00    +0.000 S 
ATOM     14  O   UNL     1      -0.352  11.010  23.141  0.00  0.00    +0.000 OA
ATOM     15  O   UNL     1      -1.658  11.790  21.123  0.00  0.00    +0.000 OA
BRANCH  13  17
ATOM     16  C   UNL     1       1.172  12.328  19.951  0.00  0.00    +0.000 C 
ATOM     17  N   UNL     1       0.782  12.411  21.391  0.00  0.00    +0.000 NA
ATOM     18  C   UNL     1       0.496  13.818  21.749  0.00  0.00    +0.000 C 
ENDBRANCH  13  17
ENDBRANCH   9  13
ENDBRANCH   1  10
BRANCH   5  19
ATOM     19  O   UNL     1       2.800   4.630  18.363  0.00  0.00    +0.000 OA
BRANCH  19  20
ATOM     20  C   UNL     1       4.209   4.399  18.284  0.00  0.00    +0.000 C 
BRANCH  20  21
ATOM     21  C   UNL     1       4.656   4.634  16.838  0.00  0.00    +0.000 C 
BRANCH  21  22
ATOM     22  C   UNL     1       6.124   4.249  16.633  0.00  0.00    +0.000 C 
BRANCH  22  23
ATOM     23  C   UNL     1       7.108   5.384  16.938  0.00  0.00    +0.000 C 
ATOM     24  C   UNL     1       6.515   6.788  16.856  0.00  0.00    +0.000 C 
ATOM     25  C   UNL     1       7.517   7.652  17.614  0.00  0.00    +0.000 C 
ATOM     26  C   UNL     1       8.115   6.747  18.687  0.00  0.00    +0.000 C 
ATOM     27  C   UNL     1       7.625   5.332  18.380  0.00  0.00    +0.000 C 
ENDBRANCH  22  23
ENDBRANCH  21  22
ENDBRANCH  20  21
ENDBRANCH  19  20
ENDBRANCH   5  19
TORSDOF 8
ENDMDL
