MODEL 1
REMARK VINA RESULT:     -10.2      0.000      0.000
REMARK  Name = 
REMARK  1 active torsions:
REMARK  status: ('A' for Active; 'I' for Inactive)
REMARK    1  A    between atoms: C_8  and  C_9
REMARK                            x       y       z     vdW  Elec       q    Type
REMARK                         _______ _______ _______ _____ _____    ______ ____
ROOT
ATOM      1  O   UNL     1       1.406   3.975  17.079  0.00  0.00    +0.000 OA
ATOM      2  C   UNL     1       2.204   3.342  17.765  0.00  0.00    +0.000 C 
ATOM      3  C   UNL     1       2.008   1.863  18.016  0.00  0.00    +0.000 C 
ATOM      4  C   UNL     1       2.634   1.452  19.338  0.00  0.00    +0.000 C 
ATOM      5  C   UNL     1       4.115   1.820  19.381  0.00  0.00    +0.000 C 
ATOM      6  C   UNL     1       4.368   3.241  18.942  0.00  0.00    +0.000 C 
ATOM      7  C   UNL     1       3.454   3.974  18.266  0.00  0.00    +0.000 C 
ATOM      8  C   UNL     1       3.701   5.443  17.946  0.00  0.00    +0.000 C 
ATOM      9  C   UNL     1       5.191   5.756  17.985  0.00  0.00    +0.000 C 
ATOM     10  C   UNL     1       6.051   4.979  18.680  0.00  0.00    +0.000 C 
ATOM     11  C   UNL     1       7.506   5.333  18.871  0.00  0.00    +0.000 C 
ATOM     12  C   UNL     1       7.803   6.785  18.502  0.00  0.00    +0.000 C 
ATOM     13  C   UNL     1       7.192   7.136  17.157  0.00  0.00    +0.000 C 
ATOM     14  C   UNL     1       5.699   6.898  17.179  0.00  0.00    +0.000 C 
ATOM     15  O   UNL     1       4.943   7.554  16.465  0.00  0.00    +0.000 OA
ATOM     16  N   UNL     1       5.598   3.802  19.263  0.00  0.00    +0.000 N 
ATOM     17  H   UNL     1       6.295   3.189  19.681  0.00  0.00    +0.000 HD
ENDROOT
BRANCH   8  18
ATOM     18  C   UNL     1       2.973   6.313  18.962  0.00  0.00    +0.000 A 
ATOM     19  C   UNL     1       2.735   5.992  20.293  0.00  0.00    +0.000 A 
ATOM     20  N   UNL     1       2.036   7.006  20.879  0.00  0.00    +0.000 N 
ATOM     21  C   UNL     1       1.804   8.005  19.966  0.00  0.00    +0.000 A 
ATOM     22  C   UNL     1       1.120   9.218  20.127  0.00  0.00    +0.000 A 
ATOM     23  C   UNL     1       1.037  10.056  19.014  0.00  0.00    +0.000 A 
ATOM     24 BR   UNL     1       0.109  11.701  19.174  0.00  0.00    +0.000 Br
ATOM     25  C   UNL     1       1.617   9.711  17.799  0.00  0.00    +0.000 A 
ATOM     26  C   UNL     1       2.297   8.491  17.662  0.00  0.00    +0.000 A 
ATOM     27  C   UNL     1       2.389   7.612  18.760  0.00  0.00    +0.000 A 
ATOM     28  H   UNL     1       1.728   7.025  21.841  0.00  0.00    +0.000 HD
ENDBRANCH   8  18
TORSDOF 1
ENDMDL
MODEL 2
REMARK VINA RESULT:     -10.1      1.557      2.051
REMARK  Name = 
REMARK  1 active torsions:
REMARK  status: ('A' for Active; 'I' for Inactive)
REMARK    1  A    between atoms: C_8  and  C_9
REMARK                            x       y       z     vdW  Elec       q    Type
REMARK                         _______ _______ _______ _____ _____    ______ ____
ROOT
ATOM      1  O   UNL     1       0.959   4.346  17.076  0.00  0.00    +0.000 OA
ATOM      2  C   UNL     1       1.517   3.990  18.112  0.00  0.00    +0.000 C 
ATOM      3  C   UNL     1       0.978   2.834  18.925  0.00  0.00    +0.000 C 
ATOM      4  C   UNL     1       1.343   2.987  20.391  0.00  0.00    +0.000 C 
ATOM      5  C   UNL     1       2.853   3.121  20.568  0.00  0.00    +0.000 C 
ATOM      6  C   UNL     1       3.457   4.132  19.626  0.00  0.00    +0.000 C 
ATOM      7  C   UNL     1       2.807   4.597  18.535  0.00  0.00    +0.000 C 
ATOM      8  C   UNL     1       3.402   5.706  17.675  0.00  0.00    +0.000 C 
ATOM      9  C   UNL     1       4.909   5.787  17.874  0.00  0.00    +0.000 C 
ATOM     10  C   UNL     1       5.495   5.301  18.991  0.00  0.00    +0.000 C 
ATOM     11  C   UNL     1       6.960   5.493  19.299  0.00  0.00    +0.000 C 
ATOM     12  C   UNL     1       7.605   6.557  18.414  0.00  0.00    +0.000 C 
ATOM     13  C   UNL     1       7.243   6.338  16.955  0.00  0.00    +0.000 C 
ATOM     14  C   UNL     1       5.741   6.350  16.778  0.00  0.00    +0.000 C 
ATOM     15  O   UNL     1       5.233   6.708  15.718  0.00  0.00    +0.000 OA
ATOM     16  N   UNL     1       4.733   4.597  19.916  0.00  0.00    +0.000 N 
ATOM     17  H   UNL     1       5.228   4.151  20.685  0.00  0.00    +0.000 HD
ENDROOT
BRANCH   8  18
ATOM     18  C   UNL     1       2.767   7.037  18.055  0.00  0.00    +0.000 A 
ATOM     19  C   UNL     1       2.739   8.185  17.271  0.00  0.00    +0.000 A 
ATOM     20  N   UNL     1       2.105   9.179  17.957  0.00  0.00    +0.000 N 
ATOM     21  C   UNL     1       1.704   8.719  19.187  0.00  0.00    +0.000 A 
ATOM     22  C   UNL     1       1.034   9.394  20.216  0.00  0.00    +0.000 A 
ATOM     23  C   UNL     1       0.746   8.670  21.374  0.00  0.00    +0.000 A 
ATOM     24 BR   UNL     1      -0.144   9.542  22.803  0.00  0.00    +0.000 Br
ATOM     25  C   UNL     1       1.098   7.331  21.500  0.00  0.00    +0.000 A 
ATOM     26  C   UNL     1       1.768   6.675  20.456  0.00  0.00    +0.000 A 
ATOM     27  C   UNL     1       2.088   7.378  19.278  0.00  0.00    +0.000 A 
ATOM     28  H   UNL     1       1.954  10.118  17.619  0.00  0.00    +0.000 HD
ENDBRANCH   8  18
TORSDOF 1
ENDMDL
MODEL 3
REMARK VINA RESULT:      -8.9      2.055      4.440
REMARK  Name = 
REMARK  1 active torsions:
REMARK  status: ('A' for Active; 'I' for Inactive)
REMARK    1  A    between atoms: C_8  and  C_9
REMARK                            x       y       z     vdW  Elec       q    Type
REMARK                         _______ _______ _______ _____ _____    ______ ____
ROOT
ATOM      1  O   UNL     1       6.613   6.252  19.080  0.00  0.00    +0.000 OA
ATOM      2  C   UNL     1       6.347   5.485  18.157  0.00  0.00    +0.000 C 
ATOM      3  C   UNL     1       7.415   5.049  17.179  0.00  0.00    +0.000 C 
ATOM      4  C   UNL     1       6.805   4.709  15.829  0.00  0.00    +0.000 C 
ATOM      5  C   UNL     1       5.726   3.640  15.970  0.00  0.00    +0.000 C 
ATOM      6  C   UNL     1       4.750   3.948  17.079  0.00  0.00    +0.000 C 
ATOM      7  C   UNL     1       5.002   4.861  18.045  0.00  0.00    +0.000 C 
ATOM      8  C   UNL     1       3.943   5.229  19.077  0.00  0.00    +0.000 C 
ATOM      9  C   UNL     1       2.901   4.125  19.192  0.00  0.00    +0.000 C 
ATOM     10  C   UNL     1       2.701   3.244  18.187  0.00  0.00    +0.000 C 
ATOM     11  C   UNL     1       1.581   2.232  18.194  0.00  0.00    +0.000 C 
ATOM     12  C   UNL     1       0.530   2.536  19.259  0.00  0.00    +0.000 C 
ATOM     13  C   UNL     1       1.185   2.829  20.597  0.00  0.00    +0.000 C 
ATOM     14  C   UNL     1       2.149   3.987  20.468  0.00  0.00    +0.000 C 
ATOM     15  O   UNL     1       2.388   4.720  21.425  0.00  0.00    +0.000 OA
ATOM     16  N   UNL     1       3.545   3.256  17.083  0.00  0.00    +0.000 N 
ATOM     17  H   UNL     1       3.434   2.508  16.402  0.00  0.00    +0.000 HD
ENDROOT
BRANCH   8  18
ATOM     18  C   UNL     1       3.264   6.528  18.665  0.00  0.00    +0.000 A 
ATOM     19  C   UNL     1       3.381   7.158  17.431  0.00  0.00    +0.000 A 
ATOM     20  N   UNL     1       2.647   8.307  17.445  0.00  0.00    +0.000 N 
ATOM     21  C   UNL     1       2.036   8.459  18.665  0.00  0.00    +0.000 A 
ATOM     22  C   UNL     1       1.204   9.491  19.122  0.00  0.00    +0.000 A 
ATOM     23  C   UNL     1       0.714   9.386  20.425  0.00  0.00    +0.000 A 
ATOM     24 BR   UNL     1      -0.402  10.762  21.098  0.00  0.00    +0.000 Br
ATOM     25  C   UNL     1       1.027   8.299  21.233  0.00  0.00    +0.000 A 
ATOM     26  C   UNL     1       1.862   7.279  20.754  0.00  0.00    +0.000 A 
ATOM     27  C   UNL     1       2.387   7.358  19.449  0.00  0.00    +0.000 A 
ATOM     28  H   UNL     1       2.564   8.957  16.676  0.00  0.00    +0.000 HD
ENDBRANCH   8  18
TORSDOF 1
ENDMDL
MODEL 4
REMARK VINA RESULT:      -7.9      4.244      9.075
REMARK  Name = 
REMARK  1 active torsions:
REMARK  status: ('A' for Active; 'I' for Inactive)
REMARK    1  A    between atoms: C_8  and  C_9
REMARK                            x       y       z     vdW  Elec       q    Type
REMARK                         _______ _______ _______ _____ _____    ______ ____
ROOT
ATOM      1  O   UNL     1       2.190  12.689  18.099  0.00  0.00    +0.000 OA
ATOM      2  C   UNL     1       1.418  13.358  18.783  0.00  0.00    +0.000 C 
ATOM      3  C   UNL     1       1.804  14.739  19.263  0.00  0.00    +0.000 C 
ATOM      4  C   UNL     1       1.086  15.082  20.557  0.00  0.00    +0.000 C 
ATOM      5  C   UNL     1      -0.426  14.966  20.392  0.00  0.00    +0.000 C 
ATOM      6  C   UNL     1      -0.836  13.674  19.729  0.00  0.00    +0.000 C 
ATOM      7  C   UNL     1       0.033  12.887  19.055  0.00  0.00    +0.000 C 
ATOM      8  C   UNL     1      -0.394  11.533  18.502  0.00  0.00    +0.000 C 
ATOM      9  C   UNL     1      -1.906  11.473  18.340  0.00  0.00    +0.000 C 
ATOM     10  C   UNL     1      -2.719  12.291  19.047  0.00  0.00    +0.000 C 
ATOM     11  C   UNL     1      -4.222  12.166  19.032  0.00  0.00    +0.000 C 
ATOM     12  C   UNL     1      -4.689  10.843  18.428  0.00  0.00    +0.000 C 
ATOM     13  C   UNL     1      -3.974  10.564  17.118  0.00  0.00    +0.000 C 
ATOM     14  C   UNL     1      -2.477  10.543  17.330  0.00  0.00    +0.000 C 
ATOM     15  O   UNL     1      -1.747   9.863  16.613  0.00  0.00    +0.000 OA
ATOM     16  N   UNL     1      -2.168  13.293  19.836  0.00  0.00    +0.000 N 
ATOM     17  H   UNL     1      -2.810  13.957  20.263  0.00  0.00    +0.000 HD
ENDROOT
BRANCH   8  18
ATOM     18  C   UNL     1       0.059  10.433  19.454  0.00  0.00    +0.000 A 
ATOM     19  C   UNL     1      -0.297  10.310  20.791  0.00  0.00    +0.000 A 
ATOM     20  N   UNL     1       0.322   9.215  21.320  0.00  0.00    +0.000 N 
ATOM     21  C   UNL     1       1.085   8.598  20.359  0.00  0.00    +0.000 A 
ATOM     22  C   UNL     1       1.893   7.457  20.459  0.00  0.00    +0.000 A 
ATOM     23  C   UNL     1       2.563   7.046  19.307  0.00  0.00    +0.000 A 
ATOM     24 BR   UNL     1       3.682   5.518  19.393  0.00  0.00    +0.000 Br
ATOM     25  C   UNL     1       2.428   7.731  18.105  0.00  0.00    +0.000 A 
ATOM     26  C   UNL     1       1.614   8.871  18.027  0.00  0.00    +0.000 A 
ATOM     27  C   UNL     1       0.933   9.324  19.175  0.00  0.00    +0.000 A 
ATOM     28  H   UNL     1       0.239   8.901  22.276  0.00  0.00    +0.000 HD
ENDBRANCH   8  18
TORSDOF 1
ENDMDL
MODEL 5
REMARK VINA RESULT:      -7.6      6.221      8.578
REMARK  Name = 
REMARK  1 active torsions:
REMARK  status: ('A' for Active; 'I' for Inactive)
REMARK    1  A    between atoms: C_8  and  C_9
REMARK                            x       y       z     vdW  Elec       q    Type
REMARK                         _______ _______ _______ _____ _____    ______ ____
ROOT
ATOM      1  O   UNL     1      -1.335  11.422  23.171  0.00  0.00    +0.000 OA
ATOM      2  C   UNL     1      -0.666  10.677  22.458  0.00  0.00    +0.000 C 
ATOM      3  C   UNL     1       0.216   9.608  23.065  0.00  0.00    +0.000 C 
ATOM      4  C   UNL     1       1.392   9.296  22.155  0.00  0.00    +0.000 C 
ATOM      5  C   UNL     1       0.913   8.883  20.766  0.00  0.00    +0.000 C 
ATOM      6  C   UNL     1      -0.123   9.827  20.209  0.00  0.00    +0.000 C 
ATOM      7  C   UNL     1      -0.795  10.715  20.977  0.00  0.00    +0.000 C 
ATOM      8  C   UNL     1      -1.747  11.732  20.358  0.00  0.00    +0.000 C 
ATOM      9  C   UNL     1      -2.207  11.267  18.984  0.00  0.00    +0.000 C 
ATOM     10  C   UNL     1      -1.486  10.375  18.268  0.00  0.00    +0.000 C 
ATOM     11  C   UNL     1      -1.822  10.001  16.846  0.00  0.00    +0.000 C 
ATOM     12  C   UNL     1      -2.822  10.967  16.212  0.00  0.00    +0.000 C 
ATOM     13  C   UNL     1      -3.996  11.216  17.142  0.00  0.00    +0.000 C 
ATOM     14  C   UNL     1      -3.512  11.760  18.467  0.00  0.00    +0.000 C 
ATOM     15  O   UNL     1      -4.224  12.495  19.147  0.00  0.00    +0.000 OA
ATOM     16  N   UNL     1      -0.376   9.769  18.844  0.00  0.00    +0.000 N 
ATOM     17  H   UNL     1       0.073   9.023  18.318  0.00  0.00    +0.000 HD
ENDROOT
BRANCH   8  18
ATOM     18  C   UNL     1      -1.039  13.074  20.230  0.00  0.00    +0.000 A 
ATOM     19  C   UNL     1      -1.475  14.284  20.756  0.00  0.00    +0.000 A 
ATOM     20  N   UNL     1      -0.591  15.265  20.414  0.00  0.00    +0.000 N 
ATOM     21  C   UNL     1       0.433  14.735  19.669  0.00  0.00    +0.000 A 
ATOM     22  C   UNL     1       1.544  15.373  19.101  0.00  0.00    +0.000 A 
ATOM     23  C   UNL     1       2.441  14.577  18.386  0.00  0.00    +0.000 A 
ATOM     24 BR   UNL     1       3.951  15.393  17.583  0.00  0.00    +0.000 Br
ATOM     25  C   UNL     1       2.248  13.207  18.251  0.00  0.00    +0.000 A 
ATOM     26  C   UNL     1       1.128  12.590  18.829  0.00  0.00    +0.000 A 
ATOM     27  C   UNL     1       0.194  13.364  19.546  0.00  0.00    +0.000 A 
ATOM     28  H   UNL     1      -0.674  16.240  20.664  0.00  0.00    +0.000 HD
ENDBRANCH   8  18
TORSDOF 1
ENDMDL
MODEL 6
REMARK VINA RESULT:      -7.6      4.103      8.887
REMARK  Name = 
REMARK  1 active torsions:
REMARK  status: ('A' for Active; 'I' for Inactive)
REMARK    1  A    between atoms: C_8  and  C_9
REMARK                            x       y       z     vdW  Elec       q    Type
REMARK                         _______ _______ _______ _____ _____    ______ ____
ROOT
ATOM      1  O   UNL     1       2.768  12.255  17.832  0.00  0.00    +0.000 OA
ATOM      2  C   UNL     1       2.314  13.017  18.683  0.00  0.00    +0.000 C 
ATOM      3  C   UNL     1       3.089  14.240  19.122  0.00  0.00    +0.000 C 
ATOM      4  C   UNL     1       2.730  14.623  20.548  0.00  0.00    +0.000 C 
ATOM      5  C   UNL     1       1.228  14.850  20.692  0.00  0.00    +0.000 C 
ATOM      6  C   UNL     1       0.416  13.735  20.082  0.00  0.00    +0.000 C 
ATOM      7  C   UNL     1       0.937  12.836  19.216  0.00  0.00    +0.000 C 
ATOM      8  C   UNL     1       0.116  11.655  18.715  0.00  0.00    +0.000 C 
ATOM      9  C   UNL     1      -1.373  11.936  18.864  0.00  0.00    +0.000 C 
ATOM     10  C   UNL     1      -1.827  12.850  19.751  0.00  0.00    +0.000 C 
ATOM     11  C   UNL     1      -3.294  13.054  20.041  0.00  0.00    +0.000 C 
ATOM     12  C   UNL     1      -4.157  11.915  19.499  0.00  0.00    +0.000 C 
ATOM     13  C   UNL     1      -3.788  11.596  18.061  0.00  0.00    +0.000 C 
ATOM     14  C   UNL     1      -2.323  11.235  17.960  0.00  0.00    +0.000 C 
ATOM     15  O   UNL     1      -1.918  10.474  17.085  0.00  0.00    +0.000 OA
ATOM     16  N   UNL     1      -0.922  13.643  20.446  0.00  0.00    +0.000 N 
ATOM     17  H   UNL     1      -1.302  14.393  21.019  0.00  0.00    +0.000 HD
ENDROOT
BRANCH   8  18
ATOM     18  C   UNL     1       0.480  10.410  19.514  0.00  0.00    +0.000 A 
ATOM     19  C   UNL     1       0.110  10.142  20.827  0.00  0.00    +0.000 A 
ATOM     20  N   UNL     1       0.643   8.945  21.205  0.00  0.00    +0.000 N 
ATOM     21  C   UNL     1       1.361   8.402  20.169  0.00  0.00    +0.000 A 
ATOM     22  C   UNL     1       2.080   7.200  20.116  0.00  0.00    +0.000 A 
ATOM     23  C   UNL     1       2.722   6.891  18.916  0.00  0.00    +0.000 A 
ATOM     24 BR   UNL     1       3.722   5.285  18.798  0.00  0.00    +0.000 Br
ATOM     25  C   UNL     1       2.644   7.734  17.813  0.00  0.00    +0.000 A 
ATOM     26  C   UNL     1       1.919   8.933  17.889  0.00  0.00    +0.000 A 
ATOM     27  C   UNL     1       1.269   9.284  19.089  0.00  0.00    +0.000 A 
ATOM     28  H   UNL     1       0.533   8.517  22.113  0.00  0.00    +0.000 HD
ENDBRANCH   8  18
TORSDOF 1
ENDMDL
MODEL 7
REMARK VINA RESULT:      -7.4      6.647      9.343
REMARK  Name = 
REMARK  1 active torsions:
REMARK  status: ('A' for Active; 'I' for Inactive)
REMARK    1  A    between atoms: C_8  and  C_9
REMARK                            x       y       z     vdW  Elec       q    Type
REMARK                         _______ _______ _______ _____ _____    ______ ____
ROOT
ATOM      1  O   UNL     1      -0.887  15.675  21.134  0.00  0.00    +0.000 OA
ATOM      2  C   UNL     1       0.012  15.100  20.524  0.00  0.00    +0.000 C 
ATOM      3  C   UNL     1       1.129  15.882  19.868  0.00  0.00    +0.000 C 
ATOM      4  C   UNL     1       1.692  15.124  18.678  0.00  0.00    +0.000 C 
ATOM      5  C   UNL     1       2.169  13.734  19.090  0.00  0.00    +0.000 C 
ATOM      6  C   UNL     1       1.149  12.997  19.921  0.00  0.00    +0.000 C 
ATOM      7  C   UNL     1       0.103  13.615  20.517  0.00  0.00    +0.000 C 
ATOM      8  C   UNL     1      -0.971  12.819  21.248  0.00  0.00    +0.000 C 
ATOM      9  C   UNL     1      -0.442  11.450  21.651  0.00  0.00    +0.000 C 
ATOM     10  C   UNL     1       0.609  10.890  21.012  0.00  0.00    +0.000 C 
ATOM     11  C   UNL     1       1.072   9.477  21.275  0.00  0.00    +0.000 C 
ATOM     12  C   UNL     1       0.043   8.666  22.060  0.00  0.00    +0.000 C 
ATOM     13  C   UNL     1      -0.461   9.449  23.260  0.00  0.00    +0.000 C 
ATOM     14  C   UNL     1      -1.060  10.764  22.817  0.00  0.00    +0.000 C 
ATOM     15  O   UNL     1      -1.952  11.303  23.468  0.00  0.00    +0.000 OA
ATOM     16  N   UNL     1       1.306  11.624  20.060  0.00  0.00    +0.000 N 
ATOM     17  H   UNL     1       2.156  11.211  19.683  0.00  0.00    +0.000 HD
ENDROOT
BRANCH   8  18
ATOM     18  C   UNL     1      -2.181  12.648  20.339  0.00  0.00    +0.000 A 
ATOM     19  C   UNL     1      -3.469  13.101  20.596  0.00  0.00    +0.000 A 
ATOM     20  N   UNL     1      -4.284  12.741  19.563  0.00  0.00    +0.000 N 
ATOM     21  C   UNL     1      -3.566  12.055  18.615  0.00  0.00    +0.000 A 
ATOM     22  C   UNL     1      -3.995  11.492  17.406  0.00  0.00    +0.000 A 
ATOM     23  C   UNL     1      -3.036  10.846  16.626  0.00  0.00    +0.000 A 
ATOM     24 BR   UNL     1      -3.568  10.053  14.988  0.00  0.00    +0.000 Br
ATOM     25  C   UNL     1      -1.706  10.772  17.023  0.00  0.00    +0.000 A 
ATOM     26  C   UNL     1      -1.298  11.343  18.239  0.00  0.00    +0.000 A 
ATOM     27  C   UNL     1      -2.242  11.991  19.059  0.00  0.00    +0.000 A 
ATOM     28  H   UNL     1      -5.272  12.941  19.501  0.00  0.00    +0.000 HD
ENDBRANCH   8  18
TORSDOF 1
ENDMDL
MODEL 8
REMARK VINA RESULT:      -7.3      5.287      8.816
REMARK  Name = 
REMARK  1 active torsions:
REMARK  status: ('A' for Active; 'I' for Inactive)
REMARK    1  A    between atoms: C_8  and  C_9
REMARK                            x       y       z     vdW  Elec       q    Type
REMARK                         _______ _______ _______ _____ _____    ______ ____
ROOT
ATOM      1  O   UNL     1       1.214  14.390  22.133  0.00  0.00    +0.000 OA
ATOM      2  C   UNL     1       1.674  14.423  20.994  0.00  0.00    +0.000 C 
ATOM      3  C   UNL     1       2.520  15.589  20.533  0.00  0.00    +0.000 C 
ATOM      4  C   UNL     1       2.409  15.777  19.030  0.00  0.00    +0.000 C 
ATOM      5  C   UNL     1       2.793  14.499  18.289  0.00  0.00    +0.000 C 
ATOM      6  C   UNL     1       2.113  13.278  18.856  0.00  0.00    +0.000 C 
ATOM      7  C   UNL     1       1.522  13.265  20.073  0.00  0.00    +0.000 C 
ATOM      8  C   UNL     1       0.743  12.049  20.559  0.00  0.00    +0.000 C 
ATOM      9  C   UNL     1       1.173  10.800  19.803  0.00  0.00    +0.000 C 
ATOM     10  C   UNL     1       1.760  10.885  18.588  0.00  0.00    +0.000 C 
ATOM     11  C   UNL     1       2.064   9.676  17.738  0.00  0.00    +0.000 C 
ATOM     12  C   UNL     1       1.346   8.422  18.233  0.00  0.00    +0.000 C 
ATOM     13  C   UNL     1       1.519   8.257  19.733  0.00  0.00    +0.000 C 
ATOM     14  C   UNL     1       1.002   9.477  20.460  0.00  0.00    +0.000 C 
ATOM     15  O   UNL     1       0.559   9.391  21.603  0.00  0.00    +0.000 OA
ATOM     16  N   UNL     1       2.099  12.130  18.073  0.00  0.00    +0.000 N 
ATOM     17  H   UNL     1       2.638  12.148  17.210  0.00  0.00    +0.000 HD
ENDROOT
BRANCH   8  18
ATOM     18  C   UNL     1      -0.746  12.284  20.346  0.00  0.00    +0.000 A 
ATOM     19  C   UNL     1      -1.383  12.444  19.121  0.00  0.00    +0.000 A 
ATOM     20  N   UNL     1      -2.714  12.657  19.334  0.00  0.00    +0.000 N 
ATOM     21  C   UNL     1      -2.982  12.641  20.680  0.00  0.00    +0.000 A 
ATOM     22  C   UNL     1      -4.201  12.826  21.348  0.00  0.00    +0.000 A 
ATOM     23  C   UNL     1      -4.183  12.754  22.741  0.00  0.00    +0.000 A 
ATOM     24 BR   UNL     1      -5.801  13.014  23.694  0.00  0.00    +0.000 Br
ATOM     25  C   UNL     1      -3.009  12.497  23.440  0.00  0.00    +0.000 A 
ATOM     26  C   UNL     1      -1.801  12.315  22.751  0.00  0.00    +0.000 A 
ATOM     27  C   UNL     1      -1.778  12.395  21.344  0.00  0.00    +0.000 A 
ATOM     28  H   UNL     1      -3.404  12.810  18.612  0.00  0.00    +0.000 HD
ENDBRANCH   8  18
TORSDOF 1
ENDMDL
MODEL 9
REMARK VINA RESULT:      -7.3      2.824      6.077
REMARK  Name = 
REMARK  1 active torsions:
REMARK  status: ('A' for Active; 'I' for Inactive)
REMARK    1  A    between atoms: C_8  and  C_9
REMARK                            x       y       z     vdW  Elec       q    Type
REMARK                         _______ _______ _______ _____ _____    ______ ____
ROOT
ATOM      1  O   UNL     1       2.144   8.400  17.093  0.00  0.00    +0.000 OA
ATOM      2  C   UNL     1       1.940   8.350  18.304  0.00  0.00    +0.000 C 
ATOM      3  C   UNL     1       1.441   9.563  19.057  0.00  0.00    +0.000 C 
ATOM      4  C   UNL     1       1.888   9.520  20.509  0.00  0.00    +0.000 C 
ATOM      5  C   UNL     1       1.427   8.232  21.185  0.00  0.00    +0.000 C 
ATOM      6  C   UNL     1       1.734   7.007  20.361  0.00  0.00    +0.000 C 
ATOM      7  C   UNL     1       2.052   7.066  19.048  0.00  0.00    +0.000 C 
ATOM      8  C   UNL     1       2.471   5.819  18.280  0.00  0.00    +0.000 C 
ATOM      9  C   UNL     1       1.975   4.564  18.985  0.00  0.00    +0.000 C 
ATOM     10  C   UNL     1       1.673   4.574  20.303  0.00  0.00    +0.000 C 
ATOM     11  C   UNL     1       1.324   3.325  21.074  0.00  0.00    +0.000 C 
ATOM     12  C   UNL     1       1.676   2.052  20.308  0.00  0.00    +0.000 C 
ATOM     13  C   UNL     1       1.175   2.126  18.876  0.00  0.00    +0.000 C 
ATOM     14  C   UNL     1       1.756   3.335  18.177  0.00  0.00    +0.000 C 
ATOM     15  O   UNL     1       1.933   3.337  16.961  0.00  0.00    +0.000 OA
ATOM     16  N   UNL     1       1.688   5.775  21.002  0.00  0.00    +0.000 N 
ATOM     17  H   UNL     1       1.348   5.761  21.961  0.00  0.00    +0.000 HD
ENDROOT
BRANCH   8  18
ATOM     18  C   UNL     1       3.990   5.775  18.176  0.00  0.00    +0.000 A 
ATOM     19  C   UNL     1       4.887   5.914  19.229  0.00  0.00    +0.000 A 
ATOM     20  N   UNL     1       6.160   5.843  18.744  0.00  0.00    +0.000 N 
ATOM     21  C   UNL     1       6.134   5.656  17.384  0.00  0.00    +0.000 A 
ATOM     22  C   UNL     1       7.199   5.539  16.479  0.00  0.00    +0.000 A 
ATOM     23  C   UNL     1       6.877   5.349  15.135  0.00  0.00    +0.000 A 
ATOM     24 BR   UNL     1       8.280   5.202  13.869  0.00  0.00    +0.000 Br
ATOM     25  C   UNL     1       5.557   5.267  14.708  0.00  0.00    +0.000 A 
ATOM     26  C   UNL     1       4.507   5.387  15.631  0.00  0.00    +0.000 A 
ATOM     27  C   UNL     1       4.793   5.593  16.996  0.00  0.00    +0.000 A 
ATOM     28  H   UNL     1       7.002   5.920  19.296  0.00  0.00    +0.000 HD
ENDBRANCH   8  18
TORSDOF 1
ENDMDL
