MODEL 1
REMARK VINA RESULT:      -7.8      0.000      0.000
REMARK  Name = 
REMARK  6 active torsions:
REMARK  status: ('A' for Active; 'I' for Inactive)
REMARK    1  A    between atoms: C_1  and  O_2
REMARK    2  A    between atoms: O_2  and  C_3
REMARK    3  A    between atoms: C_6  and  S_7
REMARK    4  A    between atoms: S_7  and  N_10
REMARK    5  A    between atoms: C_17  and  N_18
REMARK    6  A    between atoms: C_19  and  C_20
REMARK                            x       y       z     vdW  Elec       q    Type
REMARK                         _______ _______ _______ _____ _____    ______ ____
ROOT
ATOM      1  N   UNL     1       3.720   6.137  18.430  0.00  0.00    +0.000 N 
ATOM      2  C   UNL     1       4.047   7.208  17.447  0.00  0.00    +0.000 C 
ATOM      3  C   UNL     1       2.739   7.929  17.262  0.00  0.00    +0.000 C 
ATOM      4  C   UNL     1       2.267   7.859  18.681  0.00  0.00    +0.000 A 
ATOM      5  C   UNL     1       1.452   8.821  19.253  0.00  0.00    +0.000 A 
ATOM      6  C   UNL     1       1.048   8.620  20.550  0.00  0.00    +0.000 A 
ATOM      7  C   UNL     1       1.380   7.422  21.191  0.00  0.00    +0.000 A 
ATOM      8  C   UNL     1       2.199   6.406  20.611  0.00  0.00    +0.000 A 
ATOM      9  C   UNL     1       2.754   6.700  19.353  0.00  0.00    +0.000 A 
ENDROOT
BRANCH   8  10
ATOM     10  N   UNL     1       2.235   5.167  21.323  0.00  0.00    +0.000 N 
ATOM     11  C   UNL     1       1.569   4.033  20.860  0.00  0.00    +0.000 C 
ATOM     12  C   UNL     1       2.199   2.692  21.149  0.00  0.00    +0.000 C 
ATOM     13  O   UNL     1       0.533   4.071  20.181  0.00  0.00    +0.000 OA
ATOM     14  H   UNL     1       2.799   5.119  22.169  0.00  0.00    +0.000 HD
ENDBRANCH   8  10
BRANCH   1  15
ATOM     15  S   UNL     1       4.833   4.884  18.505  0.00  0.00    +0.000 S 
ATOM     16  O   UNL     1       4.085   3.666  18.677  0.00  0.00    +0.000 OA
ATOM     17  O   UNL     1       5.851   5.266  19.461  0.00  0.00    +0.000 OA
BRANCH  15  21
ATOM     18  C   UNL     1       6.673   4.517  14.254  0.00  0.00    +0.000 A 
ATOM     19  C   UNL     1       5.324   4.248  14.527  0.00  0.00    +0.000 A 
ATOM     20  C   UNL     1       4.808   4.343  15.817  0.00  0.00    +0.000 A 
ATOM     21  C   UNL     1       5.633   4.681  16.888  0.00  0.00    +0.000 A 
ATOM     22  C   UNL     1       6.967   5.033  16.612  0.00  0.00    +0.000 A 
ATOM     23  C   UNL     1       7.479   4.927  15.302  0.00  0.00    +0.000 A 
BRANCH  18  25
ATOM     24  C   UNL     1       6.350   3.317  12.196  0.00  0.00    +0.000 C 
ATOM     25  O   UNL     1       7.015   4.324  12.946  0.00  0.00    +0.000 OA
ENDBRANCH  18  25
ENDBRANCH  15  21
ENDBRANCH   1  15
TORSDOF 4
ENDMDL
MODEL 2
REMARK VINA RESULT:      -7.5      1.642      3.425
REMARK  Name = 
REMARK  6 active torsions:
REMARK  status: ('A' for Active; 'I' for Inactive)
REMARK    1  A    between atoms: C_1  and  O_2
REMARK    2  A    between atoms: O_2  and  C_3
REMARK    3  A    between atoms: C_6  and  S_7
REMARK    4  A    between atoms: S_7  and  N_10
REMARK    5  A    between atoms: C_17  and  N_18
REMARK    6  A    between atoms: C_19  and  C_20
REMARK                            x       y       z     vdW  Elec       q    Type
REMARK                         _______ _______ _______ _____ _____    ______ ____
ROOT
ATOM      1  N   UNL     1       4.745   4.268  19.293  0.00  0.00    +0.000 N 
ATOM      2  C   UNL     1       5.018   2.834  18.999  0.00  0.00    +0.000 C 
ATOM      3  C   UNL     1       4.281   2.102  20.087  0.00  0.00    +0.000 C 
ATOM      4  C   UNL     1       3.079   2.991  20.149  0.00  0.00    +0.000 A 
ATOM      5  C   UNL     1       1.822   2.536  20.512  0.00  0.00    +0.000 A 
ATOM      6  C   UNL     1       0.808   3.460  20.577  0.00  0.00    +0.000 A 
ATOM      7  C   UNL     1       1.103   4.814  20.385  0.00  0.00    +0.000 A 
ATOM      8  C   UNL     1       2.397   5.307  20.036  0.00  0.00    +0.000 A 
ATOM      9  C   UNL     1       3.387   4.338  19.796  0.00  0.00    +0.000 A 
ENDROOT
BRANCH   8  10
ATOM     10  N   UNL     1       2.552   6.726  20.110  0.00  0.00    +0.000 N 
ATOM     11  C   UNL     1       2.100   7.570  19.096  0.00  0.00    +0.000 C 
ATOM     12  C   UNL     1       1.598   8.935  19.502  0.00  0.00    +0.000 C 
ATOM     13  O   UNL     1       2.032   7.240  17.904  0.00  0.00    +0.000 OA
ATOM     14  H   UNL     1       2.970   7.117  20.952  0.00  0.00    +0.000 HD
ENDBRANCH   8  10
BRANCH   1  15
ATOM     15  S   UNL     1       5.785   5.353  18.548  0.00  0.00    +0.000 S 
ATOM     16  O   UNL     1       7.069   5.210  19.183  0.00  0.00    +0.000 OA
ATOM     17  O   UNL     1       5.118   6.638  18.514  0.00  0.00    +0.000 OA
BRANCH  15  21
ATOM     18  C   UNL     1       6.312   4.152  14.091  0.00  0.00    +0.000 A 
ATOM     19  C   UNL     1       5.116   3.954  14.798  0.00  0.00    +0.000 A 
ATOM     20  C   UNL     1       4.998   4.302  16.141  0.00  0.00    +0.000 A 
ATOM     21  C   UNL     1       6.083   4.833  16.835  0.00  0.00    +0.000 A 
ATOM     22  C   UNL     1       7.259   5.112  16.113  0.00  0.00    +0.000 A 
ATOM     23  C   UNL     1       7.369   4.749  14.755  0.00  0.00    +0.000 A 
BRANCH  18  25
ATOM     24  C   UNL     1       5.002   3.416  12.213  0.00  0.00    +0.000 C 
ATOM     25  O   UNL     1       6.263   3.706  12.801  0.00  0.00    +0.000 OA
ENDBRANCH  18  25
ENDBRANCH  15  21
ENDBRANCH   1  15
TORSDOF 4
ENDMDL
MODEL 3
REMARK VINA RESULT:      -7.4      2.219      6.890
REMARK  Name = 
REMARK  6 active torsions:
REMARK  status: ('A' for Active; 'I' for Inactive)
REMARK    1  A    between atoms: C_1  and  O_2
REMARK    2  A    between atoms: O_2  and  C_3
REMARK    3  A    between atoms: C_6  and  S_7
REMARK    4  A    between atoms: S_7  and  N_10
REMARK    5  A    between atoms: C_17  and  N_18
REMARK    6  A    between atoms: C_19  and  C_20
REMARK                            x       y       z     vdW  Elec       q    Type
REMARK                         _______ _______ _______ _____ _____    ______ ____
ROOT
ATOM      1  N   UNL     1       4.118   4.781  17.788  0.00  0.00    +0.000 N 
ATOM      2  C   UNL     1       3.604   3.398  17.582  0.00  0.00    +0.000 C 
ATOM      3  C   UNL     1       3.646   3.224  16.088  0.00  0.00    +0.000 C 
ATOM      4  C   UNL     1       4.924   3.961  15.835  0.00  0.00    +0.000 A 
ATOM      5  C   UNL     1       5.775   3.655  14.787  0.00  0.00    +0.000 A 
ATOM      6  C   UNL     1       6.895   4.435  14.631  0.00  0.00    +0.000 A 
ATOM      7  C   UNL     1       7.069   5.552  15.454  0.00  0.00    +0.000 A 
ATOM      8  C   UNL     1       6.189   5.900  16.525  0.00  0.00    +0.000 A 
ATOM      9  C   UNL     1       5.146   4.996  16.789  0.00  0.00    +0.000 A 
ENDROOT
BRANCH   8  10
ATOM     10  N   UNL     1       6.403   7.192  17.098  0.00  0.00    +0.000 N 
ATOM     11  C   UNL     1       7.515   7.469  17.893  0.00  0.00    +0.000 C 
ATOM     12  C   UNL     1       8.083   8.866  17.828  0.00  0.00    +0.000 C 
ATOM     13  O   UNL     1       8.089   6.625  18.594  0.00  0.00    +0.000 OA
ATOM     14  H   UNL     1       5.737   7.929  16.875  0.00  0.00    +0.000 HD
ENDBRANCH   8  10
BRANCH   1  15
ATOM     15  S   UNL     1       3.772   5.446  19.290  0.00  0.00    +0.000 S 
ATOM     16  O   UNL     1       5.013   5.944  19.825  0.00  0.00    +0.000 OA
ATOM     17  O   UNL     1       2.990   4.473  20.024  0.00  0.00    +0.000 OA
BRANCH  15  21
ATOM     18  C   UNL     1       1.279   9.355  18.990  0.00  0.00    +0.000 A 
ATOM     19  C   UNL     1       1.322   8.564  20.148  0.00  0.00    +0.000 A 
ATOM     20  C   UNL     1       2.059   7.384  20.198  0.00  0.00    +0.000 A 
ATOM     21  C   UNL     1       2.757   6.935  19.079  0.00  0.00    +0.000 A 
ATOM     22  C   UNL     1       2.788   7.763  17.940  0.00  0.00    +0.000 A 
ATOM     23  C   UNL     1       2.032   8.953  17.900  0.00  0.00    +0.000 A 
BRANCH  18  25
ATOM     24  C   UNL     1      -0.828  10.413  18.520  0.00  0.00    +0.000 C 
ATOM     25  O   UNL     1       0.467  10.446  19.104  0.00  0.00    +0.000 OA
ENDBRANCH  18  25
ENDBRANCH  15  21
ENDBRANCH   1  15
TORSDOF 4
ENDMDL
MODEL 4
REMARK VINA RESULT:      -7.4      1.647      1.943
REMARK  Name = 
REMARK  6 active torsions:
REMARK  status: ('A' for Active; 'I' for Inactive)
REMARK    1  A    between atoms: C_1  and  O_2
REMARK    2  A    between atoms: O_2  and  C_3
REMARK    3  A    between atoms: C_6  and  S_7
REMARK    4  A    between atoms: S_7  and  N_10
REMARK    5  A    between atoms: C_17  and  N_18
REMARK    6  A    between atoms: C_19  and  C_20
REMARK                            x       y       z     vdW  Elec       q    Type
REMARK                         _______ _______ _______ _____ _____    ______ ____
ROOT
ATOM      1  N   UNL     1       4.842   5.935  18.096  0.00  0.00    +0.000 N 
ATOM      2  C   UNL     1       4.816   7.395  17.800  0.00  0.00    +0.000 C 
ATOM      3  C   UNL     1       3.348   7.719  17.747  0.00  0.00    +0.000 C 
ATOM      4  C   UNL     1       2.903   6.825  18.862  0.00  0.00    +0.000 A 
ATOM      5  C   UNL     1       1.810   7.107  19.663  0.00  0.00    +0.000 A 
ATOM      6  C   UNL     1       1.474   6.186  20.624  0.00  0.00    +0.000 A 
ATOM      7  C   UNL     1       2.169   4.973  20.681  0.00  0.00    +0.000 A 
ATOM      8  C   UNL     1       3.283   4.652  19.848  0.00  0.00    +0.000 A 
ATOM      9  C   UNL     1       3.731   5.672  18.990  0.00  0.00    +0.000 A 
ENDROOT
BRANCH   8  10
ATOM     10  N   UNL     1       3.711   3.289  19.895  0.00  0.00    +0.000 N 
ATOM     11  C   UNL     1       3.107   2.302  19.116  0.00  0.00    +0.000 C 
ATOM     12  C   UNL     1       3.983   1.173  18.626  0.00  0.00    +0.000 C 
ATOM     13  O   UNL     1       1.922   2.334  18.759  0.00  0.00    +0.000 OA
ATOM     14  H   UNL     1       4.505   3.058  20.489  0.00  0.00    +0.000 HD
ENDBRANCH   8  10
BRANCH   1  15
ATOM     15  S   UNL     1       6.302   5.175  17.772  0.00  0.00    +0.000 S 
ATOM     16  O   UNL     1       6.308   3.941  18.514  0.00  0.00    +0.000 OA
ATOM     17  O   UNL     1       7.352   6.154  17.961  0.00  0.00    +0.000 OA
BRANCH  15  21
ATOM     18  C   UNL     1       6.139   3.908  13.305  0.00  0.00    +0.000 A 
ATOM     19  C   UNL     1       5.135   3.580  14.228  0.00  0.00    +0.000 A 
ATOM     20  C   UNL     1       5.225   3.953  15.566  0.00  0.00    +0.000 A 
ATOM     21  C   UNL     1       6.341   4.643  16.037  0.00  0.00    +0.000 A 
ATOM     22  C   UNL     1       7.313   5.048  15.103  0.00  0.00    +0.000 A 
ATOM     23  C   UNL     1       7.213   4.658  13.752  0.00  0.00    +0.000 A 
BRANCH  18  25
ATOM     24  C   UNL     1       4.571   3.222  11.617  0.00  0.00    +0.000 C 
ATOM     25  O   UNL     1       5.909   3.418  12.051  0.00  0.00    +0.000 OA
ENDBRANCH  18  25
ENDBRANCH  15  21
ENDBRANCH   1  15
TORSDOF 4
ENDMDL
MODEL 5
REMARK VINA RESULT:      -7.3      2.197      6.841
REMARK  Name = 
REMARK  6 active torsions:
REMARK  status: ('A' for Active; 'I' for Inactive)
REMARK    1  A    between atoms: C_1  and  O_2
REMARK    2  A    between atoms: O_2  and  C_3
REMARK    3  A    between atoms: C_6  and  S_7
REMARK    4  A    between atoms: S_7  and  N_10
REMARK    5  A    between atoms: C_17  and  N_18
REMARK    6  A    between atoms: C_19  and  C_20
REMARK                            x       y       z     vdW  Elec       q    Type
REMARK                         _______ _______ _______ _____ _____    ______ ____
ROOT
ATOM      1  N   UNL     1       4.211   4.725  17.814  0.00  0.00    +0.000 N 
ATOM      2  C   UNL     1       3.706   3.342  17.592  0.00  0.00    +0.000 C 
ATOM      3  C   UNL     1       3.681   3.210  16.093  0.00  0.00    +0.000 C 
ATOM      4  C   UNL     1       4.937   3.972  15.803  0.00  0.00    +0.000 A 
ATOM      5  C   UNL     1       5.743   3.707  14.709  0.00  0.00    +0.000 A 
ATOM      6  C   UNL     1       6.844   4.506  14.525  0.00  0.00    +0.000 A 
ATOM      7  C   UNL     1       7.042   5.603  15.371  0.00  0.00    +0.000 A 
ATOM      8  C   UNL     1       6.208   5.908  16.490  0.00  0.00    +0.000 A 
ATOM      9  C   UNL     1       5.189   4.983  16.775  0.00  0.00    +0.000 A 
ENDROOT
BRANCH   8  10
ATOM     10  N   UNL     1       6.432   7.187  17.089  0.00  0.00    +0.000 N 
ATOM     11  C   UNL     1       7.544   7.438  17.892  0.00  0.00    +0.000 C 
ATOM     12  C   UNL     1       8.125   8.831  17.857  0.00  0.00    +0.000 C 
ATOM     13  O   UNL     1       8.109   6.574  18.577  0.00  0.00    +0.000 OA
ATOM     14  H   UNL     1       5.773   7.934  16.880  0.00  0.00    +0.000 HD
ENDBRANCH   8  10
BRANCH   1  15
ATOM     15  S   UNL     1       3.927   5.343  19.348  0.00  0.00    +0.000 S 
ATOM     16  O   UNL     1       5.199   5.763  19.875  0.00  0.00    +0.000 OA
ATOM     17  O   UNL     1       3.116   4.377  20.060  0.00  0.00    +0.000 OA
BRANCH  15  21
ATOM     18  C   UNL     1       1.384   9.190  18.779  0.00  0.00    +0.000 A 
ATOM     19  C   UNL     1       2.182   8.645  17.762  0.00  0.00    +0.000 A 
ATOM     20  C   UNL     1       2.952   7.505  17.971  0.00  0.00    +0.000 A 
ATOM     21  C   UNL     1       2.977   6.884  19.219  0.00  0.00    +0.000 A 
ATOM     22  C   UNL     1       2.117   7.373  20.220  0.00  0.00    +0.000 A 
ATOM     23  C   UNL     1       1.346   8.533  19.997  0.00  0.00    +0.000 A 
BRANCH  18  25
ATOM     24  C   UNL     1      -0.059  11.020  19.368  0.00  0.00    +0.000 C 
ATOM     25  O   UNL     1       0.738  10.336  18.412  0.00  0.00    +0.000 OA
ENDBRANCH  18  25
ENDBRANCH  15  21
ENDBRANCH   1  15
TORSDOF 4
ENDMDL
MODEL 6
REMARK VINA RESULT:      -7.3      0.307      1.015
REMARK  Name = 
REMARK  6 active torsions:
REMARK  status: ('A' for Active; 'I' for Inactive)
REMARK    1  A    between atoms: C_1  and  O_2
REMARK    2  A    between atoms: O_2  and  C_3
REMARK    3  A    between atoms: C_6  and  S_7
REMARK    4  A    between atoms: S_7  and  N_10
REMARK    5  A    between atoms: C_17  and  N_18
REMARK    6  A    between atoms: C_19  and  C_20
REMARK                            x       y       z     vdW  Elec       q    Type
REMARK                         _______ _______ _______ _____ _____    ______ ____
ROOT
ATOM      1  N   UNL     1       3.629   6.353  18.448  0.00  0.00    +0.000 N 
ATOM      2  C   UNL     1       3.888   7.490  17.521  0.00  0.00    +0.000 C 
ATOM      3  C   UNL     1       2.550   8.169  17.411  0.00  0.00    +0.000 C 
ATOM      4  C   UNL     1       2.120   8.000  18.835  0.00  0.00    +0.000 A 
ATOM      5  C   UNL     1       1.284   8.894  19.481  0.00  0.00    +0.000 A 
ATOM      6  C   UNL     1       0.923   8.605  20.774  0.00  0.00    +0.000 A 
ATOM      7  C   UNL     1       1.318   7.386  21.337  0.00  0.00    +0.000 A 
ATOM      8  C   UNL     1       2.159   6.438  20.678  0.00  0.00    +0.000 A 
ATOM      9  C   UNL     1       2.668   6.824  19.426  0.00  0.00    +0.000 A 
ENDROOT
BRANCH   8  10
ATOM     10  N   UNL     1       2.260   5.163  21.317  0.00  0.00    +0.000 N 
ATOM     11  C   UNL     1       1.589   4.042  20.830  0.00  0.00    +0.000 C 
ATOM     12  C   UNL     1       2.262   2.701  21.006  0.00  0.00    +0.000 C 
ATOM     13  O   UNL     1       0.515   4.093  20.216  0.00  0.00    +0.000 OA
ATOM     14  H   UNL     1       2.876   5.081  22.124  0.00  0.00    +0.000 HD
ENDBRANCH   8  10
BRANCH   1  15
ATOM     15  S   UNL     1       4.790   5.142  18.422  0.00  0.00    +0.000 S 
ATOM     16  O   UNL     1       4.106   3.898  18.658  0.00  0.00    +0.000 OA
ATOM     17  O   UNL     1       5.873   5.563  19.287  0.00  0.00    +0.000 OA
BRANCH  15  21
ATOM     18  C   UNL     1       6.718   4.589  14.232  0.00  0.00    +0.000 A 
ATOM     19  C   UNL     1       7.380   5.214  15.299  0.00  0.00    +0.000 A 
ATOM     20  C   UNL     1       6.765   5.387  16.536  0.00  0.00    +0.000 A 
ATOM     21  C   UNL     1       5.452   4.968  16.742  0.00  0.00    +0.000 A 
ATOM     22  C   UNL     1       4.810   4.266  15.704  0.00  0.00    +0.000 A 
ATOM     23  C   UNL     1       5.441   4.103  14.453  0.00  0.00    +0.000 A 
BRANCH  18  25
ATOM     24  C   UNL     1       6.950   3.839  11.959  0.00  0.00    +0.000 C 
ATOM     25  O   UNL     1       7.452   4.552  13.081  0.00  0.00    +0.000 OA
ENDBRANCH  18  25
ENDBRANCH  15  21
ENDBRANCH   1  15
TORSDOF 4
ENDMDL
MODEL 7
REMARK VINA RESULT:      -7.2      1.650      3.572
REMARK  Name = 
REMARK  6 active torsions:
REMARK  status: ('A' for Active; 'I' for Inactive)
REMARK    1  A    between atoms: C_1  and  O_2
REMARK    2  A    between atoms: O_2  and  C_3
REMARK    3  A    between atoms: C_6  and  S_7
REMARK    4  A    between atoms: S_7  and  N_10
REMARK    5  A    between atoms: C_17  and  N_18
REMARK    6  A    between atoms: C_19  and  C_20
REMARK                            x       y       z     vdW  Elec       q    Type
REMARK                         _______ _______ _______ _____ _____    ______ ____
ROOT
ATOM      1  N   UNL     1       4.753   4.209  19.365  0.00  0.00    +0.000 N 
ATOM      2  C   UNL     1       5.015   2.764  19.115  0.00  0.00    +0.000 C 
ATOM      3  C   UNL     1       4.257   2.072  20.215  0.00  0.00    +0.000 C 
ATOM      4  C   UNL     1       3.064   2.976  20.239  0.00  0.00    +0.000 A 
ATOM      5  C   UNL     1       1.799   2.545  20.600  0.00  0.00    +0.000 A 
ATOM      6  C   UNL     1       0.794   3.481  20.627  0.00  0.00    +0.000 A 
ATOM      7  C   UNL     1       1.107   4.825  20.400  0.00  0.00    +0.000 A 
ATOM      8  C   UNL     1       2.409   5.294  20.051  0.00  0.00    +0.000 A 
ATOM      9  C   UNL     1       3.391   4.308  19.851  0.00  0.00    +0.000 A 
ENDROOT
BRANCH   8  10
ATOM     10  N   UNL     1       2.579   6.713  20.087  0.00  0.00    +0.000 N 
ATOM     11  C   UNL     1       2.186   7.528  19.026  0.00  0.00    +0.000 C 
ATOM     12  C   UNL     1       1.684   8.911  19.363  0.00  0.00    +0.000 C 
ATOM     13  O   UNL     1       2.170   7.160  17.843  0.00  0.00    +0.000 OA
ATOM     14  H   UNL     1       2.963   7.127  20.934  0.00  0.00    +0.000 HD
ENDBRANCH   8  10
BRANCH   1  15
ATOM     15  S   UNL     1       5.813   5.261  18.600  0.00  0.00    +0.000 S 
ATOM     16  O   UNL     1       7.135   4.950  19.080  0.00  0.00    +0.000 OA
ATOM     17  O   UNL     1       5.274   6.598  18.742  0.00  0.00    +0.000 OA
BRANCH  15  21
ATOM     18  C   UNL     1       6.217   4.097  14.121  0.00  0.00    +0.000 A 
ATOM     19  C   UNL     1       7.305   4.513  14.902  0.00  0.00    +0.000 A 
ATOM     20  C   UNL     1       7.147   4.879  16.236  0.00  0.00    +0.000 A 
ATOM     21  C   UNL     1       5.887   4.873  16.829  0.00  0.00    +0.000 A 
ATOM     22  C   UNL     1       4.803   4.378  16.079  0.00  0.00    +0.000 A 
ATOM     23  C   UNL     1       4.975   4.016  14.727  0.00  0.00    +0.000 A 
BRANCH  18  25
ATOM     24  C   UNL     1       7.343   4.755  12.101  0.00  0.00    +0.000 C 
ATOM     25  O   UNL     1       6.548   3.826  12.824  0.00  0.00    +0.000 OA
ENDBRANCH  18  25
ENDBRANCH  15  21
ENDBRANCH   1  15
TORSDOF 4
ENDMDL
MODEL 8
REMARK VINA RESULT:      -7.2      2.160      3.108
REMARK  Name = 
REMARK  6 active torsions:
REMARK  status: ('A' for Active; 'I' for Inactive)
REMARK    1  A    between atoms: C_1  and  O_2
REMARK    2  A    between atoms: O_2  and  C_3
REMARK    3  A    between atoms: C_6  and  S_7
REMARK    4  A    between atoms: S_7  and  N_10
REMARK    5  A    between atoms: C_17  and  N_18
REMARK    6  A    between atoms: C_19  and  C_20
REMARK                            x       y       z     vdW  Elec       q    Type
REMARK                         _______ _______ _______ _____ _____    ______ ____
ROOT
ATOM      1  N   UNL     1       4.356   5.117  18.461  0.00  0.00    +0.000 N 
ATOM      2  C   UNL     1       3.641   6.423  18.490  0.00  0.00    +0.000 C 
ATOM      3  C   UNL     1       2.188   6.033  18.442  0.00  0.00    +0.000 C 
ATOM      4  C   UNL     1       2.277   4.819  19.314  0.00  0.00    +0.000 A 
ATOM      5  C   UNL     1       1.230   4.383  20.108  0.00  0.00    +0.000 A 
ATOM      6  C   UNL     1       1.418   3.229  20.828  0.00  0.00    +0.000 A 
ATOM      7  C   UNL     1       2.597   2.497  20.649  0.00  0.00    +0.000 A 
ATOM      8  C   UNL     1       3.679   2.916  19.817  0.00  0.00    +0.000 A 
ATOM      9  C   UNL     1       3.551   4.185  19.224  0.00  0.00    +0.000 A 
ENDROOT
BRANCH   8  10
ATOM     10  N   UNL     1       4.689   1.932  19.584  0.00  0.00    +0.000 N 
ATOM     11  C   UNL     1       5.231   1.174  20.621  0.00  0.00    +0.000 C 
ATOM     12  C   UNL     1       5.649  -0.241  20.302  0.00  0.00    +0.000 C 
ATOM     13  O   UNL     1       5.330   1.576  21.789  0.00  0.00    +0.000 OA
ATOM     14  H   UNL     1       4.980   1.765  18.622  0.00  0.00    +0.000 HD
ENDBRANCH   8  10
BRANCH   1  15
ATOM     15  S   UNL     1       5.979   5.209  18.044  0.00  0.00    +0.000 S 
ATOM     16  O   UNL     1       6.664   4.188  18.792  0.00  0.00    +0.000 OA
ATOM     17  O   UNL     1       6.376   6.598  18.156  0.00  0.00    +0.000 OA
BRANCH  15  21
ATOM     18  C   UNL     1       6.266   4.000  13.567  0.00  0.00    +0.000 A 
ATOM     19  C   UNL     1       5.205   3.609  14.396  0.00  0.00    +0.000 A 
ATOM     20  C   UNL     1       5.160   3.967  15.741  0.00  0.00    +0.000 A 
ATOM     21  C   UNL     1       6.194   4.705  16.314  0.00  0.00    +0.000 A 
ATOM     22  C   UNL     1       7.221   5.172  15.472  0.00  0.00    +0.000 A 
ATOM     23  C   UNL     1       7.258   4.797  14.113  0.00  0.00    +0.000 A 
BRANCH  18  25
ATOM     24  C   UNL     1       4.892   3.194  11.767  0.00  0.00    +0.000 C 
ATOM     25  O   UNL     1       6.171   3.517  12.293  0.00  0.00    +0.000 OA
ENDBRANCH  18  25
ENDBRANCH  15  21
ENDBRANCH   1  15
TORSDOF 4
ENDMDL
MODEL 9
REMARK VINA RESULT:      -7.1      2.633      4.705
REMARK  Name = 
REMARK  6 active torsions:
REMARK  status: ('A' for Active; 'I' for Inactive)
REMARK    1  A    between atoms: C_1  and  O_2
REMARK    2  A    between atoms: O_2  and  C_3
REMARK    3  A    between atoms: C_6  and  S_7
REMARK    4  A    between atoms: S_7  and  N_10
REMARK    5  A    between atoms: C_17  and  N_18
REMARK    6  A    between atoms: C_19  and  C_20
REMARK                            x       y       z     vdW  Elec       q    Type
REMARK                         _______ _______ _______ _____ _____    ______ ____
ROOT
ATOM      1  N   UNL     1       4.386   3.653  18.470  0.00  0.00    +0.000 N 
ATOM      2  C   UNL     1       4.905   2.322  18.892  0.00  0.00    +0.000 C 
ATOM      3  C   UNL     1       4.422   2.188  20.311  0.00  0.00    +0.000 C 
ATOM      4  C   UNL     1       3.080   2.827  20.129  0.00  0.00    +0.000 A 
ATOM      5  C   UNL     1       1.973   2.484  20.885  0.00  0.00    +0.000 A 
ATOM      6  C   UNL     1       0.809   3.175  20.654  0.00  0.00    +0.000 A 
ATOM      7  C   UNL     1       0.819   4.251  19.761  0.00  0.00    +0.000 A 
ATOM      8  C   UNL     1       1.957   4.638  18.989  0.00  0.00    +0.000 A 
ATOM      9  C   UNL     1       3.090   3.814  19.099  0.00  0.00    +0.000 A 
ENDROOT
BRANCH   8  10
ATOM     10  N   UNL     1       1.841   5.892  18.313  0.00  0.00    +0.000 N 
ATOM     11  C   UNL     1       2.334   7.074  18.864  0.00  0.00    +0.000 C 
ATOM     12  C   UNL     1       2.867   8.115  17.910  0.00  0.00    +0.000 C 
ATOM     13  O   UNL     1       2.412   7.286  20.082  0.00  0.00    +0.000 OA
ATOM     14  H   UNL     1       1.419   5.897  17.386  0.00  0.00    +0.000 HD
ENDBRANCH   8  10
BRANCH   1  15
ATOM     15  S   UNL     1       5.127   4.300  17.111  0.00  0.00    +0.000 S 
ATOM     16  O   UNL     1       4.134   5.086  16.424  0.00  0.00    +0.000 OA
ATOM     17  O   UNL     1       5.809   3.218  16.433  0.00  0.00    +0.000 OA
BRANCH  15  21
ATOM     18  C   UNL     1       8.115   7.601  18.438  0.00  0.00    +0.000 A 
ATOM     19  C   UNL     1       7.146   7.804  17.444  0.00  0.00    +0.000 A 
ATOM     20  C   UNL     1       6.281   6.787  17.051  0.00  0.00    +0.000 A 
ATOM     21  C   UNL     1       6.375   5.517  17.617  0.00  0.00    +0.000 A 
ATOM     22  C   UNL     1       7.288   5.327  18.672  0.00  0.00    +0.000 A 
ATOM     23  C   UNL     1       8.163   6.364  19.056  0.00  0.00    +0.000 A 
BRANCH  18  25
ATOM     24  C   UNL     1       8.552   9.937  18.077  0.00  0.00    +0.000 C 
ATOM     25  O   UNL     1       8.908   8.691  18.658  0.00  0.00    +0.000 OA
ENDBRANCH  18  25
ENDBRANCH  15  21
ENDBRANCH   1  15
TORSDOF 4
ENDMDL
