MODEL 1
REMARK VINA RESULT:      -7.0      0.000      0.000
REMARK  Name = 
REMARK  10 active torsions:
REMARK  status: ('A' for Active; 'I' for Inactive)
REMARK    1  A    between atoms: C_1  and  C_2
REMARK    2  A    between atoms: C_2  and  C_3
REMARK    3  A    between atoms: C_2  and  N_4
REMARK    4  A    between atoms: N_4  and  C_5
REMARK    5  A    between atoms: N_4  and  C_12
REMARK    6  A    between atoms: C_5  and  C_6
REMARK    7  A    between atoms: N_9  and  C_10
REMARK    8  A    between atoms: C_12  and  C_13
REMARK    9  A    between atoms: N_17  and  S_18
REMARK   10  A    between atoms: S_18  and  C_19
REMARK                            x       y       z     vdW  Elec       q    Type
REMARK                         _______ _______ _______ _____ _____    ______ ____
ROOT
ATOM      1  N   UNL     1       5.882   5.800  17.466  0.00  0.00    +0.000 NA
ENDROOT
BRANCH   1   3
ATOM      2  C   UNL     1       7.939   5.765  19.039  0.00  0.00    +0.000 C 
ATOM      3  C   UNL     1       6.853   6.582  18.319  0.00  0.00    +0.000 C 
ATOM      4  C   UNL     1       7.641   7.636  17.499  0.00  0.00    +0.000 C 
ENDBRANCH   1   3
BRANCH   1   5
ATOM      5  C   UNL     1       6.398   4.503  16.961  0.00  0.00    +0.000 C 
BRANCH   5   6
ATOM      6  C   UNL     1       6.461   4.351  15.482  0.00  0.00    +0.000 A 
ATOM      7  C   UNL     1       7.299   5.085  14.607  0.00  0.00    +0.000 A 
ATOM      8  N   UNL     1       7.140   4.742  13.328  0.00  0.00    +0.000 NA
ATOM      9  N   UNL     1       6.195   3.787  13.374  0.00  0.00    +0.000 N 
ATOM     10  C   UNL     1       5.708   3.212  12.145  0.00  0.00    +0.000 C 
ATOM     11  C   UNL     1       5.799   3.474  14.644  0.00  0.00    +0.000 A 
ENDBRANCH   5   6
ENDBRANCH   1   5
BRANCH   1  12
ATOM     12  C   UNL     1       4.680   5.496  18.308  0.00  0.00    +0.000 C 
BRANCH  12  13
ATOM     13  C   UNL     1       3.267   5.937  17.827  0.00  0.00    +0.000 C 
ATOM     14  C   UNL     1       2.628   7.025  18.698  0.00  0.00    +0.000 C 
ATOM     15  C   UNL     1       2.327   6.524  20.111  0.00  0.00    +0.000 C 
ATOM     16  C   UNL     1       1.561   5.198  20.126  0.00  0.00    +0.000 C 
ATOM     17  N   UNL     1       2.185   4.216  19.208  0.00  0.00    +0.000 NA
ATOM     18  C   UNL     1       2.336   4.710  17.822  0.00  0.00    +0.000 C 
BRANCH  17  19
ATOM     19  S   UNL     1       1.818   2.579  19.425  0.00  0.00    +0.000 S 
ATOM     20  C   UNL     1       3.174   1.771  18.604  0.00  0.00    +0.000 C 
ATOM     21  O   UNL     1       1.910   2.285  20.838  0.00  0.00    +0.000 OA
ATOM     22  O   UNL     1       0.612   2.289  18.679  0.00  0.00    +0.000 OA
ENDBRANCH  17  19
ENDBRANCH  12  13
ENDBRANCH   1  12
TORSDOF 6
ENDMDL
MODEL 2
REMARK VINA RESULT:      -6.9      0.837      1.083
REMARK  Name = 
REMARK  10 active torsions:
REMARK  status: ('A' for Active; 'I' for Inactive)
REMARK    1  A    between atoms: C_1  and  C_2
REMARK    2  A    between atoms: C_2  and  C_3
REMARK    3  A    between atoms: C_2  and  N_4
REMARK    4  A    between atoms: N_4  and  C_5
REMARK    5  A    between atoms: N_4  and  C_12
REMARK    6  A    between atoms: C_5  and  C_6
REMARK    7  A    between atoms: N_9  and  C_10
REMARK    8  A    between atoms: C_12  and  C_13
REMARK    9  A    between atoms: N_17  and  S_18
REMARK   10  A    between atoms: S_18  and  C_19
REMARK                            x       y       z     vdW  Elec       q    Type
REMARK                         _______ _______ _______ _____ _____    ______ ____
ROOT
ATOM      1  N   UNL     1       5.825   5.936  17.614  0.00  0.00    +0.000 NA
ENDROOT
BRANCH   1   3
ATOM      2  C   UNL     1       8.031   5.583  18.925  0.00  0.00    +0.000 C 
ATOM      3  C   UNL     1       6.956   6.553  18.402  0.00  0.00    +0.000 C 
ATOM      4  C   UNL     1       7.748   7.600  17.578  0.00  0.00    +0.000 C 
ENDBRANCH   1   3
BRANCH   1   5
ATOM      5  C   UNL     1       6.098   4.575  17.089  0.00  0.00    +0.000 C 
BRANCH   5   6
ATOM      6  C   UNL     1       6.347   4.471  15.626  0.00  0.00    +0.000 A 
ATOM      7  C   UNL     1       7.194   5.314  14.865  0.00  0.00    +0.000 A 
ATOM      8  N   UNL     1       7.221   4.992  13.572  0.00  0.00    +0.000 NA
ATOM      9  N   UNL     1       6.387   3.941  13.493  0.00  0.00    +0.000 N 
ATOM     10  C   UNL     1       6.109   3.351  12.207  0.00  0.00    +0.000 C 
ATOM     11  C   UNL     1       5.884   3.552  14.703  0.00  0.00    +0.000 A 
ENDBRANCH   5   6
ENDBRANCH   1   5
BRANCH   1  12
ATOM     12  C   UNL     1       4.642   5.825  18.528  0.00  0.00    +0.000 C 
BRANCH  12  13
ATOM     13  C   UNL     1       3.216   6.132  17.986  0.00  0.00    +0.000 C 
ATOM     14  C   UNL     1       2.463   7.195  18.796  0.00  0.00    +0.000 C 
ATOM     15  C   UNL     1       2.156   6.722  20.217  0.00  0.00    +0.000 C 
ATOM     16  C   UNL     1       1.497   5.339  20.258  0.00  0.00    +0.000 C 
ATOM     17  N   UNL     1       2.228   4.379  19.398  0.00  0.00    +0.000 NA
ATOM     18  C   UNL     1       2.386   4.834  18.000  0.00  0.00    +0.000 C 
BRANCH  17  19
ATOM     19  S   UNL     1       1.986   2.727  19.666  0.00  0.00    +0.000 S 
ATOM     20  C   UNL     1       1.467   2.687  21.368  0.00  0.00    +0.000 C 
ATOM     21  O   UNL     1       0.872   2.301  18.848  0.00  0.00    +0.000 OA
ATOM     22  O   UNL     1       3.271   2.067  19.579  0.00  0.00    +0.000 OA
ENDBRANCH  17  19
ENDBRANCH  12  13
ENDBRANCH   1  12
TORSDOF 6
ENDMDL
MODEL 3
REMARK VINA RESULT:      -6.8      0.894      1.196
REMARK  Name = 
REMARK  10 active torsions:
REMARK  status: ('A' for Active; 'I' for Inactive)
REMARK    1  A    between atoms: C_1  and  C_2
REMARK    2  A    between atoms: C_2  and  C_3
REMARK    3  A    between atoms: C_2  and  N_4
REMARK    4  A    between atoms: N_4  and  C_5
REMARK    5  A    between atoms: N_4  and  C_12
REMARK    6  A    between atoms: C_5  and  C_6
REMARK    7  A    between atoms: N_9  and  C_10
REMARK    8  A    between atoms: C_12  and  C_13
REMARK    9  A    between atoms: N_17  and  S_18
REMARK   10  A    between atoms: S_18  and  C_19
REMARK                            x       y       z     vdW  Elec       q    Type
REMARK                         _______ _______ _______ _____ _____    ______ ____
ROOT
ATOM      1  N   UNL     1       6.067   5.919  17.512  0.00  0.00    +0.000 NA
ENDROOT
BRANCH   1   3
ATOM      2  C   UNL     1       8.115   6.003  19.095  0.00  0.00    +0.000 C 
ATOM      3  C   UNL     1       7.009   6.761  18.339  0.00  0.00    +0.000 C 
ATOM      4  C   UNL     1       7.771   7.806  17.484  0.00  0.00    +0.000 C 
ENDBRANCH   1   3
BRANCH   1   5
ATOM      5  C   UNL     1       6.657   4.669  16.970  0.00  0.00    +0.000 C 
BRANCH   5   6
ATOM      6  C   UNL     1       6.532   4.466  15.501  0.00  0.00    +0.000 A 
ATOM      7  C   UNL     1       5.480   3.783  14.843  0.00  0.00    +0.000 A 
ATOM      8  N   UNL     1       5.631   3.750  13.519  0.00  0.00    +0.000 NA
ATOM      9  N   UNL     1       6.785   4.409  13.318  0.00  0.00    +0.000 N 
ATOM     10  C   UNL     1       7.315   4.520  11.982  0.00  0.00    +0.000 C 
ATOM     11  C   UNL     1       7.333   4.909  14.465  0.00  0.00    +0.000 A 
ENDBRANCH   5   6
ENDBRANCH   1   5
BRANCH   1  12
ATOM     12  C   UNL     1       4.924   5.517  18.395  0.00  0.00    +0.000 C 
BRANCH  12  13
ATOM     13  C   UNL     1       3.472   5.536  17.835  0.00  0.00    +0.000 C 
ATOM     14  C   UNL     1       2.662   6.767  18.259  0.00  0.00    +0.000 C 
ATOM     15  C   UNL     1       2.409   6.795  19.768  0.00  0.00    +0.000 C 
ATOM     16  C   UNL     1       1.846   5.475  20.304  0.00  0.00    +0.000 C 
ATOM     17  N   UNL     1       2.627   4.321  19.798  0.00  0.00    +0.000 NA
ATOM     18  C   UNL     1       2.732   4.276  18.323  0.00  0.00    +0.000 C 
BRANCH  17  19
ATOM     19  S   UNL     1       2.501   2.851  20.623  0.00  0.00    +0.000 S 
ATOM     20  C   UNL     1       4.131   2.164  20.433  0.00  0.00    +0.000 C 
ATOM     21  O   UNL     1       2.298   3.143  22.026  0.00  0.00    +0.000 OA
ATOM     22  O   UNL     1       1.577   2.008  19.896  0.00  0.00    +0.000 OA
ENDBRANCH  17  19
ENDBRANCH  12  13
ENDBRANCH   1  12
TORSDOF 6
ENDMDL
MODEL 4
REMARK VINA RESULT:      -6.6      1.153      1.755
REMARK  Name = 
REMARK  10 active torsions:
REMARK  status: ('A' for Active; 'I' for Inactive)
REMARK    1  A    between atoms: C_1  and  C_2
REMARK    2  A    between atoms: C_2  and  C_3
REMARK    3  A    between atoms: C_2  and  N_4
REMARK    4  A    between atoms: N_4  and  C_5
REMARK    5  A    between atoms: N_4  and  C_12
REMARK    6  A    between atoms: C_5  and  C_6
REMARK    7  A    between atoms: N_9  and  C_10
REMARK    8  A    between atoms: C_12  and  C_13
REMARK    9  A    between atoms: N_17  and  S_18
REMARK   10  A    between atoms: S_18  and  C_19
REMARK                            x       y       z     vdW  Elec       q    Type
REMARK                         _______ _______ _______ _____ _____    ______ ____
ROOT
ATOM      1  N   UNL     1       6.228   5.771  17.135  0.00  0.00    +0.000 NA
ENDROOT
BRANCH   1   3
ATOM      2  C   UNL     1       7.764   7.719  17.878  0.00  0.00    +0.000 C 
ATOM      3  C   UNL     1       7.482   6.206  17.856  0.00  0.00    +0.000 C 
ATOM      4  C   UNL     1       7.477   5.791  19.350  0.00  0.00    +0.000 C 
ENDBRANCH   1   3
BRANCH   1   5
ATOM      5  C   UNL     1       6.267   4.390  16.591  0.00  0.00    +0.000 C 
BRANCH   5   6
ATOM      6  C   UNL     1       6.311   4.267  15.109  0.00  0.00    +0.000 A 
ATOM      7  C   UNL     1       5.376   3.571  14.305  0.00  0.00    +0.000 A 
ATOM      8  N   UNL     1       5.669   3.623  13.005  0.00  0.00    +0.000 NA
ATOM      9  N   UNL     1       6.799   4.351  12.967  0.00  0.00    +0.000 N 
ATOM     10  C   UNL     1       7.462   4.566  11.705  0.00  0.00    +0.000 C 
ATOM     11  C   UNL     1       7.193   4.809  14.192  0.00  0.00    +0.000 A 
ENDBRANCH   5   6
ENDBRANCH   1   5
BRANCH   1  12
ATOM     12  C   UNL     1       5.097   5.822  18.118  0.00  0.00    +0.000 C 
BRANCH  12  13
ATOM     13  C   UNL     1       3.628   5.801  17.606  0.00  0.00    +0.000 C 
ATOM     14  C   UNL     1       2.744   6.896  18.217  0.00  0.00    +0.000 C 
ATOM     15  C   UNL     1       2.548   6.702  19.721  0.00  0.00    +0.000 C 
ATOM     16  C   UNL     1       2.107   5.281  20.088  0.00  0.00    +0.000 C 
ATOM     17  N   UNL     1       2.952   4.271  19.408  0.00  0.00    +0.000 NA
ATOM     18  C   UNL     1       3.003   4.432  17.939  0.00  0.00    +0.000 C 
BRANCH  17  19
ATOM     19  S   UNL     1       2.968   2.699  20.029  0.00  0.00    +0.000 S 
ATOM     20  C   UNL     1       2.161   2.901  21.602  0.00  0.00    +0.000 C 
ATOM     21  O   UNL     1       2.118   1.880  19.192  0.00  0.00    +0.000 OA
ATOM     22  O   UNL     1       4.344   2.332  20.281  0.00  0.00    +0.000 OA
ENDBRANCH  17  19
ENDBRANCH  12  13
ENDBRANCH   1  12
TORSDOF 6
ENDMDL
MODEL 5
REMARK VINA RESULT:      -6.6      3.502      7.139
REMARK  Name = 
REMARK  10 active torsions:
REMARK  status: ('A' for Active; 'I' for Inactive)
REMARK    1  A    between atoms: C_1  and  C_2
REMARK    2  A    between atoms: C_2  and  C_3
REMARK    3  A    between atoms: C_2  and  N_4
REMARK    4  A    between atoms: N_4  and  C_5
REMARK    5  A    between atoms: N_4  and  C_12
REMARK    6  A    between atoms: C_5  and  C_6
REMARK    7  A    between atoms: N_9  and  C_10
REMARK    8  A    between atoms: C_12  and  C_13
REMARK    9  A    between atoms: N_17  and  S_18
REMARK   10  A    between atoms: S_18  and  C_19
REMARK                            x       y       z     vdW  Elec       q    Type
REMARK                         _______ _______ _______ _____ _____    ______ ____
ROOT
ATOM      1  N   UNL     1       1.707   5.481  20.069  0.00  0.00    +0.000 NA
ENDROOT
BRANCH   1   3
ATOM      2  C   UNL     1       0.831   3.077  19.663  0.00  0.00    +0.000 C 
ATOM      3  C   UNL     1       1.216   4.182  20.663  0.00  0.00    +0.000 C 
ATOM      4  C   UNL     1       2.270   3.519  21.586  0.00  0.00    +0.000 C 
ENDBRANCH   1   3
BRANCH   1   5
ATOM      5  C   UNL     1       1.915   6.577  21.048  0.00  0.00    +0.000 C 
BRANCH   5   6
ATOM      6  C   UNL     1       1.394   7.915  20.658  0.00  0.00    +0.000 A 
ATOM      7  C   UNL     1       1.634   8.573  19.426  0.00  0.00    +0.000 A 
ATOM      8  N   UNL     1       1.045   9.767  19.353  0.00  0.00    +0.000 NA
ATOM      9  N   UNL     1       0.426   9.885  20.540  0.00  0.00    +0.000 N 
ATOM     10  C   UNL     1      -0.277  11.104  20.855  0.00  0.00    +0.000 C 
ATOM     11  C   UNL     1       0.554   8.780  21.334  0.00  0.00    +0.000 A 
ENDBRANCH   5   6
ENDBRANCH   1   5
BRANCH   1  12
ATOM     12  C   UNL     1       3.034   5.212  19.425  0.00  0.00    +0.000 C 
BRANCH  12  13
ATOM     13  C   UNL     1       3.220   5.472  17.902  0.00  0.00    +0.000 C 
ATOM     14  C   UNL     1       2.958   4.240  17.028  0.00  0.00    +0.000 C 
ATOM     15  C   UNL     1       3.981   3.131  17.276  0.00  0.00    +0.000 C 
ATOM     16  C   UNL     1       5.429   3.629  17.216  0.00  0.00    +0.000 C 
ATOM     17  N   UNL     1       5.599   4.863  18.020  0.00  0.00    +0.000 NA
ATOM     18  C   UNL     1       4.664   5.947  17.649  0.00  0.00    +0.000 C 
BRANCH  17  19
ATOM     19  S   UNL     1       7.164   5.298  18.487  0.00  0.00    +0.000 S 
ATOM     20  C   UNL     1       7.361   6.895  17.725  0.00  0.00    +0.000 C 
ATOM     21  O   UNL     1       7.166   5.484  19.922  0.00  0.00    +0.000 OA
ATOM     22  O   UNL     1       8.091   4.387  17.851  0.00  0.00    +0.000 OA
ENDBRANCH  17  19
ENDBRANCH  12  13
ENDBRANCH   1  12
TORSDOF 6
ENDMDL
MODEL 6
REMARK VINA RESULT:      -6.5      3.112      6.612
REMARK  Name = 
REMARK  10 active torsions:
REMARK  status: ('A' for Active; 'I' for Inactive)
REMARK    1  A    between atoms: C_1  and  C_2
REMARK    2  A    between atoms: C_2  and  C_3
REMARK    3  A    between atoms: C_2  and  N_4
REMARK    4  A    between atoms: N_4  and  C_5
REMARK    5  A    between atoms: N_4  and  C_12
REMARK    6  A    between atoms: C_5  and  C_6
REMARK    7  A    between atoms: N_9  and  C_10
REMARK    8  A    between atoms: C_12  and  C_13
REMARK    9  A    between atoms: N_17  and  S_18
REMARK   10  A    between atoms: S_18  and  C_19
REMARK                            x       y       z     vdW  Elec       q    Type
REMARK                         _______ _______ _______ _____ _____    ______ ____
ROOT
ATOM      1  N   UNL     1       2.469   4.571  17.945  0.00  0.00    +0.000 NA
ENDROOT
BRANCH   1   3
ATOM      2  C   UNL     1       2.576   1.985  18.034  0.00  0.00    +0.000 C 
ATOM      3  C   UNL     1       1.729   3.266  18.126  0.00  0.00    +0.000 C 
ATOM      4  C   UNL     1       1.031   3.171  19.507  0.00  0.00    +0.000 C 
ENDBRANCH   1   3
BRANCH   1   5
ATOM      5  C   UNL     1       2.777   5.295  19.204  0.00  0.00    +0.000 C 
BRANCH   5   6
ATOM      6  C   UNL     1       2.316   6.708  19.279  0.00  0.00    +0.000 A 
ATOM      7  C   UNL     1       1.766   7.342  20.420  0.00  0.00    +0.000 A 
ATOM      8  N   UNL     1       1.435   8.614  20.197  0.00  0.00    +0.000 NA
ATOM      9  N   UNL     1       1.767   8.803  18.908  0.00  0.00    +0.000 N 
ATOM     10  C   UNL     1       1.486  10.072  18.283  0.00  0.00    +0.000 C 
ATOM     11  C   UNL     1       2.352   7.712  18.331  0.00  0.00    +0.000 A 
ENDBRANCH   5   6
ENDBRANCH   1   5
BRANCH   1  12
ATOM     12  C   UNL     1       3.779   4.262  17.285  0.00  0.00    +0.000 C 
BRANCH  12  13
ATOM     13  C   UNL     1       4.438   5.314  16.346  0.00  0.00    +0.000 C 
ATOM     14  C   UNL     1       5.044   4.712  15.072  0.00  0.00    +0.000 C 
ATOM     15  C   UNL     1       6.226   3.792  15.379  0.00  0.00    +0.000 C 
ATOM     16  C   UNL     1       7.262   4.437  16.305  0.00  0.00    +0.000 C 
ATOM     17  N   UNL     1       6.607   5.065  17.476  0.00  0.00    +0.000 NA
ATOM     18  C   UNL     1       5.556   6.041  17.118  0.00  0.00    +0.000 C 
BRANCH  17  19
ATOM     19  S   UNL     1       7.555   5.393  18.837  0.00  0.00    +0.000 S 
ATOM     20  C   UNL     1       8.099   7.060  18.531  0.00  0.00    +0.000 C 
ATOM     21  O   UNL     1       6.686   5.411  19.993  0.00  0.00    +0.000 OA
ATOM     22  O   UNL     1       8.717   4.532  18.790  0.00  0.00    +0.000 OA
ENDBRANCH  17  19
ENDBRANCH  12  13
ENDBRANCH   1  12
TORSDOF 6
ENDMDL
MODEL 7
REMARK VINA RESULT:      -6.5      3.644      6.960
REMARK  Name = 
REMARK  10 active torsions:
REMARK  status: ('A' for Active; 'I' for Inactive)
REMARK    1  A    between atoms: C_1  and  C_2
REMARK    2  A    between atoms: C_2  and  C_3
REMARK    3  A    between atoms: C_2  and  N_4
REMARK    4  A    between atoms: N_4  and  C_5
REMARK    5  A    between atoms: N_4  and  C_12
REMARK    6  A    between atoms: C_5  and  C_6
REMARK    7  A    between atoms: N_9  and  C_10
REMARK    8  A    between atoms: C_12  and  C_13
REMARK    9  A    between atoms: N_17  and  S_18
REMARK   10  A    between atoms: S_18  and  C_19
REMARK                            x       y       z     vdW  Elec       q    Type
REMARK                         _______ _______ _______ _____ _____    ______ ____
ROOT
ATOM      1  N   UNL     1       2.107   5.173  18.953  0.00  0.00    +0.000 NA
ENDROOT
BRANCH   1   3
ATOM      2  C   UNL     1       1.190   3.734  20.902  0.00  0.00    +0.000 C 
ATOM      3  C   UNL     1       1.782   3.796  19.483  0.00  0.00    +0.000 C 
ATOM      4  C   UNL     1       0.747   3.054  18.599  0.00  0.00    +0.000 C 
ENDBRANCH   1   3
BRANCH   1   5
ATOM      5  C   UNL     1       2.585   6.139  19.975  0.00  0.00    +0.000 C 
BRANCH   5   6
ATOM      6  C   UNL     1       1.918   7.470  19.983  0.00  0.00    +0.000 A 
ATOM      7  C   UNL     1       1.218   8.041  21.074  0.00  0.00    +0.000 A 
ATOM      8  N   UNL     1       0.718   9.245  20.795  0.00  0.00    +0.000 NA
ATOM      9  N   UNL     1       1.090   9.452  19.520  0.00  0.00    +0.000 N 
ATOM     10  C   UNL     1       0.662  10.651  18.843  0.00  0.00    +0.000 C 
ATOM     11  C   UNL     1       1.860   8.447  19.008  0.00  0.00    +0.000 A 
ENDBRANCH   5   6
ENDBRANCH   1   5
BRANCH   1  12
ATOM     12  C   UNL     1       3.206   5.023  17.945  0.00  0.00    +0.000 C 
BRANCH  12  13
ATOM     13  C   UNL     1       4.192   3.823  18.049  0.00  0.00    +0.000 C 
ATOM     14  C   UNL     1       5.154   3.915  19.239  0.00  0.00    +0.000 C 
ATOM     15  C   UNL     1       6.120   5.094  19.106  0.00  0.00    +0.000 C 
ATOM     16  C   UNL     1       6.821   5.142  17.745  0.00  0.00    +0.000 C 
ATOM     17  N   UNL     1       5.847   4.973  16.641  0.00  0.00    +0.000 NA
ATOM     18  C   UNL     1       5.026   3.748  16.755  0.00  0.00    +0.000 C 
BRANCH  17  19
ATOM     19  S   UNL     1       6.306   5.471  15.092  0.00  0.00    +0.000 S 
ATOM     20  C   UNL     1       5.885   4.058  14.095  0.00  0.00    +0.000 C 
ATOM     21  O   UNL     1       5.444   6.566  14.702  0.00  0.00    +0.000 OA
ATOM     22  O   UNL     1       7.745   5.613  15.076  0.00  0.00    +0.000 OA
ENDBRANCH  17  19
ENDBRANCH  12  13
ENDBRANCH   1  12
TORSDOF 6
ENDMDL
MODEL 8
REMARK VINA RESULT:      -6.5      2.994      6.672
REMARK  Name = 
REMARK  10 active torsions:
REMARK  status: ('A' for Active; 'I' for Inactive)
REMARK    1  A    between atoms: C_1  and  C_2
REMARK    2  A    between atoms: C_2  and  C_3
REMARK    3  A    between atoms: C_2  and  N_4
REMARK    4  A    between atoms: N_4  and  C_5
REMARK    5  A    between atoms: N_4  and  C_12
REMARK    6  A    between atoms: C_5  and  C_6
REMARK    7  A    between atoms: N_9  and  C_10
REMARK    8  A    between atoms: C_12  and  C_13
REMARK    9  A    between atoms: N_17  and  S_18
REMARK   10  A    between atoms: S_18  and  C_19
REMARK                            x       y       z     vdW  Elec       q    Type
REMARK                         _______ _______ _______ _____ _____    ______ ____
ROOT
ATOM      1  N   UNL     1       2.762   4.027  17.868  0.00  0.00    +0.000 NA
ENDROOT
BRANCH   1   3
ATOM      2  C   UNL     1       3.030   1.534  18.519  0.00  0.00    +0.000 C 
ATOM      3  C   UNL     1       2.127   2.662  17.987  0.00  0.00    +0.000 C 
ATOM      4  C   UNL     1       0.905   2.661  18.941  0.00  0.00    +0.000 C 
ENDBRANCH   1   3
BRANCH   1   5
ATOM      5  C   UNL     1       3.203   4.626  19.153  0.00  0.00    +0.000 C 
BRANCH   5   6
ATOM      6  C   UNL     1       2.601   5.940  19.507  0.00  0.00    +0.000 A 
ATOM      7  C   UNL     1       2.595   7.098  18.692  0.00  0.00    +0.000 A 
ATOM      8  N   UNL     1       1.988   8.135  19.269  0.00  0.00    +0.000 NA
ATOM      9  N   UNL     1       1.603   7.650  20.462  0.00  0.00    +0.000 N 
ATOM     10  C   UNL     1       0.957   8.525  21.409  0.00  0.00    +0.000 C 
ATOM     11  C   UNL     1       1.893   6.326  20.630  0.00  0.00    +0.000 A 
ENDBRANCH   5   6
ENDBRANCH   1   5
BRANCH   1  12
ATOM     12  C   UNL     1       3.983   3.887  17.009  0.00  0.00    +0.000 C 
BRANCH  12  13
ATOM     13  C   UNL     1       4.499   5.109  16.196  0.00  0.00    +0.000 C 
ATOM     14  C   UNL     1       5.206   4.728  14.889  0.00  0.00    +0.000 C 
ATOM     15  C   UNL     1       6.503   3.958  15.142  0.00  0.00    +0.000 C 
ATOM     16  C   UNL     1       7.420   4.648  16.156  0.00  0.00    +0.000 C 
ATOM     17  N   UNL     1       6.662   5.058  17.362  0.00  0.00    +0.000 NA
ATOM     18  C   UNL     1       5.488   5.907  17.067  0.00  0.00    +0.000 C 
BRANCH  17  19
ATOM     19  S   UNL     1       7.531   5.380  18.777  0.00  0.00    +0.000 S 
ATOM     20  C   UNL     1       8.077   7.054  18.516  0.00  0.00    +0.000 C 
ATOM     21  O   UNL     1       6.598   5.380  19.883  0.00  0.00    +0.000 OA
ATOM     22  O   UNL     1       8.701   4.529  18.786  0.00  0.00    +0.000 OA
ENDBRANCH  17  19
ENDBRANCH  12  13
ENDBRANCH   1  12
TORSDOF 6
ENDMDL
MODEL 9
REMARK VINA RESULT:      -6.5      3.622      6.742
REMARK  Name = 
REMARK  10 active torsions:
REMARK  status: ('A' for Active; 'I' for Inactive)
REMARK    1  A    between atoms: C_1  and  C_2
REMARK    2  A    between atoms: C_2  and  C_3
REMARK    3  A    between atoms: C_2  and  N_4
REMARK    4  A    between atoms: N_4  and  C_5
REMARK    5  A    between atoms: N_4  and  C_12
REMARK    6  A    between atoms: C_5  and  C_6
REMARK    7  A    between atoms: N_9  and  C_10
REMARK    8  A    between atoms: C_12  and  C_13
REMARK    9  A    between atoms: N_17  and  S_18
REMARK   10  A    between atoms: S_18  and  C_19
REMARK                            x       y       z     vdW  Elec       q    Type
REMARK                         _______ _______ _______ _____ _____    ______ ____
ROOT
ATOM      1  N   UNL     1       2.009   5.033  19.043  0.00  0.00    +0.000 NA
ENDROOT
BRANCH   1   3
ATOM      2  C   UNL     1       1.853   3.703  21.260  0.00  0.00    +0.000 C 
ATOM      3  C   UNL     1       1.864   3.691  19.721  0.00  0.00    +0.000 C 
ATOM      4  C   UNL     1       0.546   2.972  19.331  0.00  0.00    +0.000 C 
ENDBRANCH   1   3
BRANCH   1   5
ATOM      5  C   UNL     1       2.457   6.136  19.929  0.00  0.00    +0.000 C 
BRANCH   5   6
ATOM      6  C   UNL     1       2.048   7.510  19.528  0.00  0.00    +0.000 A 
ATOM      7  C   UNL     1       2.269   8.105  18.261  0.00  0.00    +0.000 A 
ATOM      8  N   UNL     1       1.800   9.351  18.186  0.00  0.00    +0.000 NA
ATOM      9  N   UNL     1       1.279   9.565  19.406  0.00  0.00    +0.000 N 
ATOM     10  C   UNL     1       0.726  10.858  19.724  0.00  0.00    +0.000 C 
ATOM     11  C   UNL     1       1.349   8.475  20.227  0.00  0.00    +0.000 A 
ENDBRANCH   5   6
ENDBRANCH   1   5
BRANCH   1  12
ATOM     12  C   UNL     1       3.042   4.888  17.967  0.00  0.00    +0.000 C 
BRANCH  12  13
ATOM     13  C   UNL     1       3.924   3.607  17.910  0.00  0.00    +0.000 C 
ATOM     14  C   UNL     1       4.890   3.468  19.093  0.00  0.00    +0.000 C 
ATOM     15  C   UNL     1       5.950   4.570  19.100  0.00  0.00    +0.000 C 
ATOM     16  C   UNL     1       6.655   4.731  17.749  0.00  0.00    +0.000 C 
ATOM     17  N   UNL     1       5.671   4.783  16.642  0.00  0.00    +0.000 NA
ATOM     18  C   UNL     1       4.750   3.626  16.610  0.00  0.00    +0.000 C 
BRANCH  17  19
ATOM     19  S   UNL     1       6.171   5.433  15.163  0.00  0.00    +0.000 S 
ATOM     20  C   UNL     1       5.813   4.112  14.025  0.00  0.00    +0.000 C 
ATOM     21  O   UNL     1       5.301   6.545  14.847  0.00  0.00    +0.000 OA
ATOM     22  O   UNL     1       7.607   5.599  15.211  0.00  0.00    +0.000 OA
ENDBRANCH  17  19
ENDBRANCH  12  13
ENDBRANCH   1  12
TORSDOF 6
ENDMDL
