MODEL 1
REMARK VINA RESULT:      -7.2      0.000      0.000
REMARK  Name = 
REMARK  3 active torsions:
REMARK  status: ('A' for Active; 'I' for Inactive)
REMARK    1  A    between atoms: C_5  and  C_6
REMARK    2  A    between atoms: C_9  and  O_10
REMARK    3  A    between atoms: N_15  and  C_16
REMARK                            x       y       z     vdW  Elec       q    Type
REMARK                         _______ _______ _______ _____ _____    ______ ____
ROOT
ATOM      1  O   UNL     1       7.469   5.404  14.763  0.00  0.00    +0.000 OA
ATOM      2  C   UNL     1       6.663   5.037  15.605  0.00  0.00    +0.000 C 
ATOM      3  N   UNL     1       5.766   4.001  15.372  0.00  0.00    +0.000 N 
ATOM      4  C   UNL     1       4.964   3.820  16.456  0.00  0.00    +0.000 C 
ATOM      5  C   UNL     1       3.915   2.991  16.493  0.00  0.00    +0.000 C 
ATOM      6  C   UNL     1       5.451   4.767  17.515  0.00  0.00    +0.000 C 
ATOM      7  O   UNL     1       4.990   4.867  18.640  0.00  0.00    +0.000 OA
ATOM      8  N   UNL     1       6.459   5.492  16.904  0.00  0.00    +0.000 N 
ATOM      9  H   UNL     1       5.709   3.527  14.482  0.00  0.00    +0.000 HD
ENDROOT
BRANCH   5  10
ATOM     10  C   UNL     1       3.000   2.932  17.634  0.00  0.00    +0.000 A 
ATOM     11  C   UNL     1       1.938   3.845  17.722  0.00  0.00    +0.000 A 
ATOM     12  C   UNL     1       1.131   3.880  18.860  0.00  0.00    +0.000 A 
ATOM     13  C   UNL     1       1.384   2.995  19.903  0.00  0.00    +0.000 A 
ATOM     14  C   UNL     1       2.414   2.064  19.816  0.00  0.00    +0.000 A 
ATOM     15  C   UNL     1       3.227   2.033  18.681  0.00  0.00    +0.000 A 
BRANCH  13  16
ATOM     16  O   UNL     1       0.645   3.017  21.048  0.00  0.00    +0.000 OA
ATOM     17  H   UNL     1      -0.083   3.652  20.930  0.00  0.00    +0.000 HD
ENDBRANCH  13  16
ENDBRANCH   5  10
BRANCH   8  18
ATOM     18  C   UNL     1       7.158   6.562  17.513  0.00  0.00    +0.000 A 
ATOM     19  C   UNL     1       7.074   7.859  16.993  0.00  0.00    +0.000 A 
ATOM     20  C   UNL     1       7.758   8.920  17.592  0.00  0.00    +0.000 A 
ATOM     21  C   UNL     1       8.559   8.692  18.705  0.00  0.00    +0.000 A 
ATOM     22  C   UNL     1       8.654   7.411  19.239  0.00  0.00    +0.000 A 
ATOM     23  C   UNL     1       7.944   6.357  18.658  0.00  0.00    +0.000 A 
ENDBRANCH   8  18
TORSDOF 3
ENDMDL
MODEL 2
REMARK VINA RESULT:      -7.2      0.083      1.053
REMARK  Name = 
REMARK  3 active torsions:
REMARK  status: ('A' for Active; 'I' for Inactive)
REMARK    1  A    between atoms: C_5  and  C_6
REMARK    2  A    between atoms: C_9  and  O_10
REMARK    3  A    between atoms: N_15  and  C_16
REMARK                            x       y       z     vdW  Elec       q    Type
REMARK                         _______ _______ _______ _____ _____    ______ ____
ROOT
ATOM      1  O   UNL     1       7.581   5.393  14.795  0.00  0.00    +0.000 OA
ATOM      2  C   UNL     1       6.754   5.038  15.623  0.00  0.00    +0.000 C 
ATOM      3  N   UNL     1       5.864   3.999  15.383  0.00  0.00    +0.000 N 
ATOM      4  C   UNL     1       5.034   3.834  16.449  0.00  0.00    +0.000 C 
ATOM      5  C   UNL     1       3.985   3.005  16.473  0.00  0.00    +0.000 C 
ATOM      6  C   UNL     1       5.495   4.797  17.505  0.00  0.00    +0.000 C 
ATOM      7  O   UNL     1       5.007   4.915  18.617  0.00  0.00    +0.000 OA
ATOM      8  N   UNL     1       6.518   5.513  16.909  0.00  0.00    +0.000 N 
ATOM      9  H   UNL     1       5.829   3.511  14.500  0.00  0.00    +0.000 HD
ENDROOT
BRANCH   5  10
ATOM     10  C   UNL     1       3.041   2.964  17.591  0.00  0.00    +0.000 A 
ATOM     11  C   UNL     1       2.018   3.920  17.674  0.00  0.00    +0.000 A 
ATOM     12  C   UNL     1       1.186   3.967  18.795  0.00  0.00    +0.000 A 
ATOM     13  C   UNL     1       1.378   3.053  19.824  0.00  0.00    +0.000 A 
ATOM     14  C   UNL     1       2.368   2.080  19.742  0.00  0.00    +0.000 A 
ATOM     15  C   UNL     1       3.206   2.036  18.626  0.00  0.00    +0.000 A 
BRANCH  13  16
ATOM     16  O   UNL     1       0.613   3.085  20.953  0.00  0.00    +0.000 OA
ATOM     17  H   UNL     1       1.040   2.531  21.628  0.00  0.00    +0.000 HD
ENDBRANCH  13  16
ENDBRANCH   5  10
BRANCH   8  18
ATOM     18  C   UNL     1       7.202   6.593  17.518  0.00  0.00    +0.000 A 
ATOM     19  C   UNL     1       7.964   6.396  18.676  0.00  0.00    +0.000 A 
ATOM     20  C   UNL     1       8.645   7.456  19.279  0.00  0.00    +0.000 A 
ATOM     21  C   UNL     1       8.551   8.736  18.746  0.00  0.00    +0.000 A 
ATOM     22  C   UNL     1       7.801   8.953  17.594  0.00  0.00    +0.000 A 
ATOM     23  C   UNL     1       7.147   7.886  16.974  0.00  0.00    +0.000 A 
ENDBRANCH   8  18
TORSDOF 3
ENDMDL
MODEL 3
REMARK VINA RESULT:      -7.1      2.002      3.905
REMARK  Name = 
REMARK  3 active torsions:
REMARK  status: ('A' for Active; 'I' for Inactive)
REMARK    1  A    between atoms: C_5  and  C_6
REMARK    2  A    between atoms: C_9  and  O_10
REMARK    3  A    between atoms: N_15  and  C_16
REMARK                            x       y       z     vdW  Elec       q    Type
REMARK                         _______ _______ _______ _____ _____    ______ ____
ROOT
ATOM      1  O   UNL     1       7.930   6.797  16.387  0.00  0.00    +0.000 OA
ATOM      2  C   UNL     1       6.906   6.188  16.658  0.00  0.00    +0.000 C 
ATOM      3  N   UNL     1       6.273   6.313  17.889  0.00  0.00    +0.000 N 
ATOM      4  C   UNL     1       5.180   5.503  17.941  0.00  0.00    +0.000 C 
ATOM      5  C   UNL     1       4.439   5.298  19.035  0.00  0.00    +0.000 C 
ATOM      6  C   UNL     1       5.050   4.870  16.585  0.00  0.00    +0.000 C 
ATOM      7  O   UNL     1       4.164   4.102  16.245  0.00  0.00    +0.000 OA
ATOM      8  N   UNL     1       6.157   5.311  15.881  0.00  0.00    +0.000 N 
ATOM      9  H   UNL     1       6.649   6.882  18.634  0.00  0.00    +0.000 HD
ENDROOT
BRANCH   5  10
ATOM     10  C   UNL     1       3.357   4.313  19.078  0.00  0.00    +0.000 A 
ATOM     11  C   UNL     1       3.646   2.975  19.380  0.00  0.00    +0.000 A 
ATOM     12  C   UNL     1       2.645   2.003  19.307  0.00  0.00    +0.000 A 
ATOM     13  C   UNL     1       1.358   2.378  18.938  0.00  0.00    +0.000 A 
ATOM     14  C   UNL     1       1.050   3.706  18.665  0.00  0.00    +0.000 A 
ATOM     15  C   UNL     1       2.051   4.677  18.731  0.00  0.00    +0.000 A 
BRANCH  13  16
ATOM     16  O   UNL     1       0.359   1.458  18.819  0.00  0.00    +0.000 OA
ATOM     17  H   UNL     1      -0.331   1.668  19.472  0.00  0.00    +0.000 HD
ENDBRANCH  13  16
ENDBRANCH   5  10
BRANCH   8  18
ATOM     18  C   UNL     1       6.487   4.900  14.567  0.00  0.00    +0.000 A 
ATOM     19  C   UNL     1       7.548   5.496  13.876  0.00  0.00    +0.000 A 
ATOM     20  C   UNL     1       7.882   5.091  12.581  0.00  0.00    +0.000 A 
ATOM     21  C   UNL     1       7.138   4.102  11.948  0.00  0.00    +0.000 A 
ATOM     22  C   UNL     1       6.081   3.494  12.618  0.00  0.00    +0.000 A 
ATOM     23  C   UNL     1       5.769   3.878  13.925  0.00  0.00    +0.000 A 
ENDBRANCH   8  18
TORSDOF 3
ENDMDL
MODEL 4
REMARK VINA RESULT:      -7.1      1.998      3.924
REMARK  Name = 
REMARK  3 active torsions:
REMARK  status: ('A' for Active; 'I' for Inactive)
REMARK    1  A    between atoms: C_5  and  C_6
REMARK    2  A    between atoms: C_9  and  O_10
REMARK    3  A    between atoms: N_15  and  C_16
REMARK                            x       y       z     vdW  Elec       q    Type
REMARK                         _______ _______ _______ _____ _____    ______ ____
ROOT
ATOM      1  O   UNL     1       7.930   6.786  16.408  0.00  0.00    +0.000 OA
ATOM      2  C   UNL     1       6.905   6.176  16.677  0.00  0.00    +0.000 C 
ATOM      3  N   UNL     1       6.275   6.294  17.910  0.00  0.00    +0.000 N 
ATOM      4  C   UNL     1       5.180   5.487  17.959  0.00  0.00    +0.000 C 
ATOM      5  C   UNL     1       4.441   5.275  19.053  0.00  0.00    +0.000 C 
ATOM      6  C   UNL     1       5.046   4.863  16.599  0.00  0.00    +0.000 C 
ATOM      7  O   UNL     1       4.158   4.099  16.256  0.00  0.00    +0.000 OA
ATOM      8  N   UNL     1       6.152   5.306  15.896  0.00  0.00    +0.000 N 
ATOM      9  H   UNL     1       6.653   6.857  18.658  0.00  0.00    +0.000 HD
ENDROOT
BRANCH   5  10
ATOM     10  C   UNL     1       3.357   4.293  19.092  0.00  0.00    +0.000 A 
ATOM     11  C   UNL     1       3.645   2.950  19.376  0.00  0.00    +0.000 A 
ATOM     12  C   UNL     1       2.642   1.982  19.298  0.00  0.00    +0.000 A 
ATOM     13  C   UNL     1       1.353   2.364  18.943  0.00  0.00    +0.000 A 
ATOM     14  C   UNL     1       1.046   3.696  18.689  0.00  0.00    +0.000 A 
ATOM     15  C   UNL     1       2.050   4.664  18.759  0.00  0.00    +0.000 A 
BRANCH  13  16
ATOM     16  O   UNL     1       0.350   1.448  18.820  0.00  0.00    +0.000 OA
ATOM     17  H   UNL     1      -0.439   1.901  18.478  0.00  0.00    +0.000 HD
ENDBRANCH  13  16
ENDBRANCH   5  10
BRANCH   8  18
ATOM     18  C   UNL     1       6.478   4.903  14.578  0.00  0.00    +0.000 A 
ATOM     19  C   UNL     1       5.747   3.896  13.935  0.00  0.00    +0.000 A 
ATOM     20  C   UNL     1       6.062   3.498  12.634  0.00  0.00    +0.000 A 
ATOM     21  C   UNL     1       7.131   4.083  11.966  0.00  0.00    +0.000 A 
ATOM     22  C   UNL     1       7.868   5.088  12.586  0.00  0.00    +0.000 A 
ATOM     23  C   UNL     1       7.533   5.508  13.875  0.00  0.00    +0.000 A 
ENDBRANCH   8  18
TORSDOF 3
ENDMDL
MODEL 5
REMARK VINA RESULT:      -7.0      3.442      6.110
REMARK  Name = 
REMARK  3 active torsions:
REMARK  status: ('A' for Active; 'I' for Inactive)
REMARK    1  A    between atoms: C_5  and  C_6
REMARK    2  A    between atoms: C_9  and  O_10
REMARK    3  A    between atoms: N_15  and  C_16
REMARK                            x       y       z     vdW  Elec       q    Type
REMARK                         _______ _______ _______ _____ _____    ______ ____
ROOT
ATOM      1  O   UNL     1       1.312   5.258  20.891  0.00  0.00    +0.000 OA
ATOM      2  C   UNL     1       2.081   5.277  19.941  0.00  0.00    +0.000 C 
ATOM      3  N   UNL     1       2.762   4.143  19.516  0.00  0.00    +0.000 N 
ATOM      4  C   UNL     1       3.574   4.447  18.467  0.00  0.00    +0.000 C 
ATOM      5  C   UNL     1       4.457   3.603  17.921  0.00  0.00    +0.000 C 
ATOM      6  C   UNL     1       3.322   5.889  18.132  0.00  0.00    +0.000 C 
ATOM      7  O   UNL     1       3.851   6.507  17.222  0.00  0.00    +0.000 OA
ATOM      8  N   UNL     1       2.430   6.325  19.096  0.00  0.00    +0.000 N 
ATOM      9  H   UNL     1       2.687   3.257  19.994  0.00  0.00    +0.000 HD
ENDROOT
BRANCH   5  10
ATOM     10  C   UNL     1       5.405   4.018  16.886  0.00  0.00    +0.000 A 
ATOM     11  C   UNL     1       6.623   4.607  17.254  0.00  0.00    +0.000 A 
ATOM     12  C   UNL     1       7.483   5.117  16.279  0.00  0.00    +0.000 A 
ATOM     13  C   UNL     1       7.122   5.029  14.939  0.00  0.00    +0.000 A 
ATOM     14  C   UNL     1       5.932   4.420  14.558  0.00  0.00    +0.000 A 
ATOM     15  C   UNL     1       5.067   3.916  15.532  0.00  0.00    +0.000 A 
BRANCH  13  16
ATOM     16  O   UNL     1       7.914   5.545  13.956  0.00  0.00    +0.000 OA
ATOM     17  H   UNL     1       8.478   4.832  13.611  0.00  0.00    +0.000 HD
ENDBRANCH  13  16
ENDBRANCH   5  10
BRANCH   8  18
ATOM     18  C   UNL     1       1.968   7.658  19.216  0.00  0.00    +0.000 A 
ATOM     19  C   UNL     1       1.558   8.165  20.455  0.00  0.00    +0.000 A 
ATOM     20  C   UNL     1       1.106   9.481  20.580  0.00  0.00    +0.000 A 
ATOM     21  C   UNL     1       1.031  10.301  19.460  0.00  0.00    +0.000 A 
ATOM     22  C   UNL     1       1.436   9.817  18.220  0.00  0.00    +0.000 A 
ATOM     23  C   UNL     1       1.919   8.512  18.102  0.00  0.00    +0.000 A 
ENDBRANCH   8  18
TORSDOF 3
ENDMDL
MODEL 6
REMARK VINA RESULT:      -7.0      3.392      6.036
REMARK  Name = 
REMARK  3 active torsions:
REMARK  status: ('A' for Active; 'I' for Inactive)
REMARK    1  A    between atoms: C_5  and  C_6
REMARK    2  A    between atoms: C_9  and  O_10
REMARK    3  A    between atoms: N_15  and  C_16
REMARK                            x       y       z     vdW  Elec       q    Type
REMARK                         _______ _______ _______ _____ _____    ______ ____
ROOT
ATOM      1  O   UNL     1       1.206   5.102  20.747  0.00  0.00    +0.000 OA
ATOM      2  C   UNL     1       2.000   5.152  19.818  0.00  0.00    +0.000 C 
ATOM      3  N   UNL     1       2.668   4.025  19.354  0.00  0.00    +0.000 N 
ATOM      4  C   UNL     1       3.513   4.363  18.342  0.00  0.00    +0.000 C 
ATOM      5  C   UNL     1       4.392   3.529  17.777  0.00  0.00    +0.000 C 
ATOM      6  C   UNL     1       3.298   5.825  18.073  0.00  0.00    +0.000 C 
ATOM      7  O   UNL     1       3.863   6.476  17.208  0.00  0.00    +0.000 OA
ATOM      8  N   UNL     1       2.392   6.232  19.035  0.00  0.00    +0.000 N 
ATOM      9  H   UNL     1       2.563   3.119  19.785  0.00  0.00    +0.000 HD
ENDROOT
BRANCH   5  10
ATOM     10  C   UNL     1       5.374   3.974  16.787  0.00  0.00    +0.000 A 
ATOM     11  C   UNL     1       6.594   4.520  17.213  0.00  0.00    +0.000 A 
ATOM     12  C   UNL     1       7.488   5.059  16.286  0.00  0.00    +0.000 A 
ATOM     13  C   UNL     1       7.161   5.042  14.935  0.00  0.00    +0.000 A 
ATOM     14  C   UNL     1       5.969   4.476  14.495  0.00  0.00    +0.000 A 
ATOM     15  C   UNL     1       5.070   3.944  15.421  0.00  0.00    +0.000 A 
BRANCH  13  16
ATOM     16  O   UNL     1       7.987   5.589  13.998  0.00  0.00    +0.000 OA
ATOM     17  H   UNL     1       8.659   6.122  14.456  0.00  0.00    +0.000 HD
ENDBRANCH  13  16
ENDBRANCH   5  10
BRANCH   8  18
ATOM     18  C   UNL     1       1.953   7.567  19.210  0.00  0.00    +0.000 A 
ATOM     19  C   UNL     1       1.894   8.450  18.124  0.00  0.00    +0.000 A 
ATOM     20  C   UNL     1       1.458   9.766  18.290  0.00  0.00    +0.000 A 
ATOM     21  C   UNL     1       1.101  10.228  19.552  0.00  0.00    +0.000 A 
ATOM     22  C   UNL     1       1.150   9.367  20.643  0.00  0.00    +0.000 A 
ATOM     23  C   UNL     1       1.556   8.041  20.471  0.00  0.00    +0.000 A 
ENDBRANCH   8  18
TORSDOF 3
ENDMDL
MODEL 7
REMARK VINA RESULT:      -7.0      0.860      1.366
REMARK  Name = 
REMARK  3 active torsions:
REMARK  status: ('A' for Active; 'I' for Inactive)
REMARK    1  A    between atoms: C_5  and  C_6
REMARK    2  A    between atoms: C_9  and  O_10
REMARK    3  A    between atoms: N_15  and  C_16
REMARK                            x       y       z     vdW  Elec       q    Type
REMARK                         _______ _______ _______ _____ _____    ______ ____
ROOT
ATOM      1  O   UNL     1       7.355   5.034  15.226  0.00  0.00    +0.000 OA
ATOM      2  C   UNL     1       6.638   4.779  16.184  0.00  0.00    +0.000 C 
ATOM      3  N   UNL     1       5.819   3.656  16.218  0.00  0.00    +0.000 N 
ATOM      4  C   UNL     1       5.105   3.630  17.376  0.00  0.00    +0.000 C 
ATOM      5  C   UNL     1       4.135   2.751  17.649  0.00  0.00    +0.000 C 
ATOM      6  C   UNL     1       5.578   4.794  18.199  0.00  0.00    +0.000 C 
ATOM      7  O   UNL     1       5.183   5.075  19.319  0.00  0.00    +0.000 OA
ATOM      8  N   UNL     1       6.480   5.458  17.387  0.00  0.00    +0.000 N 
ATOM      9  H   UNL     1       5.746   3.018  15.439  0.00  0.00    +0.000 HD
ENDROOT
BRANCH   5  10
ATOM     10  C   UNL     1       3.302   2.848  18.849  0.00  0.00    +0.000 A 
ATOM     11  C   UNL     1       3.813   2.426  20.086  0.00  0.00    +0.000 A 
ATOM     12  C   UNL     1       2.993   2.398  21.215  0.00  0.00    +0.000 A 
ATOM     13  C   UNL     1       1.667   2.801  21.104  0.00  0.00    +0.000 A 
ATOM     14  C   UNL     1       1.155   3.251  19.892  0.00  0.00    +0.000 A 
ATOM     15  C   UNL     1       1.972   3.272  18.760  0.00  0.00    +0.000 A 
BRANCH  13  16
ATOM     16  O   UNL     1       0.821   2.757  22.173  0.00  0.00    +0.000 OA
ATOM     17  H   UNL     1       0.713   3.661  22.516  0.00  0.00    +0.000 HD
ENDBRANCH  13  16
ENDBRANCH   5  10
BRANCH   8  18
ATOM     18  C   UNL     1       7.124   6.672  17.729  0.00  0.00    +0.000 A 
ATOM     19  C   UNL     1       6.788   7.868  17.083  0.00  0.00    +0.000 A 
ATOM     20  C   UNL     1       7.416   9.069  17.420  0.00  0.00    +0.000 A 
ATOM     21  C   UNL     1       8.412   9.086  18.390  0.00  0.00    +0.000 A 
ATOM     22  C   UNL     1       8.759   7.909  19.046  0.00  0.00    +0.000 A 
ATOM     23  C   UNL     1       8.108   6.714  18.731  0.00  0.00    +0.000 A 
ENDBRANCH   8  18
TORSDOF 3
ENDMDL
MODEL 8
REMARK VINA RESULT:      -7.0      3.358      6.158
REMARK  Name = 
REMARK  3 active torsions:
REMARK  status: ('A' for Active; 'I' for Inactive)
REMARK    1  A    between atoms: C_5  and  C_6
REMARK    2  A    between atoms: C_9  and  O_10
REMARK    3  A    between atoms: N_15  and  C_16
REMARK                            x       y       z     vdW  Elec       q    Type
REMARK                         _______ _______ _______ _____ _____    ______ ____
ROOT
ATOM      1  O   UNL     1       1.178   4.806  20.830  0.00  0.00    +0.000 OA
ATOM      2  C   UNL     1       1.952   4.967  19.897  0.00  0.00    +0.000 C 
ATOM      3  N   UNL     1       2.626   3.907  19.302  0.00  0.00    +0.000 N 
ATOM      4  C   UNL     1       3.445   4.364  18.317  0.00  0.00    +0.000 C 
ATOM      5  C   UNL     1       4.324   3.609  17.649  0.00  0.00    +0.000 C 
ATOM      6  C   UNL     1       3.206   5.844  18.211  0.00  0.00    +0.000 C 
ATOM      7  O   UNL     1       3.745   6.592  17.411  0.00  0.00    +0.000 OA
ATOM      8  N   UNL     1       2.314   6.131  19.228  0.00  0.00    +0.000 N 
ATOM      9  H   UNL     1       2.540   2.958  19.636  0.00  0.00    +0.000 HD
ENDROOT
BRANCH   5  10
ATOM     10  C   UNL     1       5.280   4.173  16.695  0.00  0.00    +0.000 A 
ATOM     11  C   UNL     1       4.969   4.188  15.327  0.00  0.00    +0.000 A 
ATOM     12  C   UNL     1       5.918   4.611  14.393  0.00  0.00    +0.000 A 
ATOM     13  C   UNL     1       7.171   5.024  14.834  0.00  0.00    +0.000 A 
ATOM     14  C   UNL     1       7.481   5.043  16.190  0.00  0.00    +0.000 A 
ATOM     15  C   UNL     1       6.536   4.613  17.124  0.00  0.00    +0.000 A 
BRANCH  13  16
ATOM     16  O   UNL     1       8.139   5.411  13.956  0.00  0.00    +0.000 OA
ATOM     17  H   UNL     1       8.813   4.711  13.915  0.00  0.00    +0.000 HD
ENDBRANCH  13  16
ENDBRANCH   5  10
BRANCH   8  18
ATOM     18  C   UNL     1       1.862   7.433  19.554  0.00  0.00    +0.000 A 
ATOM     19  C   UNL     1       1.498   7.758  20.867  0.00  0.00    +0.000 A 
ATOM     20  C   UNL     1       1.057   9.041  21.195  0.00  0.00    +0.000 A 
ATOM     21  C   UNL     1       0.946  10.013  20.207  0.00  0.00    +0.000 A 
ATOM     22  C   UNL     1       1.306   9.713  18.896  0.00  0.00    +0.000 A 
ATOM     23  C   UNL     1       1.778   8.437  18.576  0.00  0.00    +0.000 A 
ENDBRANCH   8  18
TORSDOF 3
ENDMDL
MODEL 9
REMARK VINA RESULT:      -6.9      3.384      6.085
REMARK  Name = 
REMARK  3 active torsions:
REMARK  status: ('A' for Active; 'I' for Inactive)
REMARK    1  A    between atoms: C_5  and  C_6
REMARK    2  A    between atoms: C_9  and  O_10
REMARK    3  A    between atoms: N_15  and  C_16
REMARK                            x       y       z     vdW  Elec       q    Type
REMARK                         _______ _______ _______ _____ _____    ______ ____
ROOT
ATOM      1  O   UNL     1       1.228   4.883  20.863  0.00  0.00    +0.000 OA
ATOM      2  C   UNL     1       1.996   5.031  19.923  0.00  0.00    +0.000 C 
ATOM      3  N   UNL     1       2.676   3.964  19.347  0.00  0.00    +0.000 N 
ATOM      4  C   UNL     1       3.486   4.408  18.347  0.00  0.00    +0.000 C 
ATOM      5  C   UNL     1       4.367   3.645  17.691  0.00  0.00    +0.000 C 
ATOM      6  C   UNL     1       3.233   5.882  18.211  0.00  0.00    +0.000 C 
ATOM      7  O   UNL     1       3.760   6.617  17.391  0.00  0.00    +0.000 OA
ATOM      8  N   UNL     1       2.343   6.184  19.227  0.00  0.00    +0.000 N 
ATOM      9  H   UNL     1       2.601   3.022  19.702  0.00  0.00    +0.000 HD
ENDROOT
BRANCH   5  10
ATOM     10  C   UNL     1       5.313   4.197  16.719  0.00  0.00    +0.000 A 
ATOM     11  C   UNL     1       4.989   4.191  15.354  0.00  0.00    +0.000 A 
ATOM     12  C   UNL     1       5.928   4.602  14.406  0.00  0.00    +0.000 A 
ATOM     13  C   UNL     1       7.184   5.024  14.828  0.00  0.00    +0.000 A 
ATOM     14  C   UNL     1       7.507   5.064  16.180  0.00  0.00    +0.000 A 
ATOM     15  C   UNL     1       6.572   4.647  17.129  0.00  0.00    +0.000 A 
BRANCH  13  16
ATOM     16  O   UNL     1       8.143   5.400  13.935  0.00  0.00    +0.000 OA
ATOM     17  H   UNL     1       8.900   4.797  14.026  0.00  0.00    +0.000 HD
ENDBRANCH  13  16
ENDBRANCH   5  10
BRANCH   8  18
ATOM     18  C   UNL     1       1.881   7.488  19.527  0.00  0.00    +0.000 A 
ATOM     19  C   UNL     1       1.744   8.449  18.517  0.00  0.00    +0.000 A 
ATOM     20  C   UNL     1       1.284   9.736  18.806  0.00  0.00    +0.000 A 
ATOM     21  C   UNL     1       0.981  10.089  20.116  0.00  0.00    +0.000 A 
ATOM     22  C   UNL     1       1.108   9.148  21.134  0.00  0.00    +0.000 A 
ATOM     23  C   UNL     1       1.538   7.852  20.839  0.00  0.00    +0.000 A 
ENDBRANCH   8  18
TORSDOF 3
ENDMDL
