MODEL 1
REMARK VINA RESULT:      -7.3      0.000      0.000
REMARK  Name = 
REMARK  5 active torsions:
REMARK  status: ('A' for Active; 'I' for Inactive)
REMARK    1  A    between atoms: C_1  and  C_2
REMARK    2  A    between atoms: C_6  and  C_7
REMARK    3  A    between atoms: C_7  and  N_8
REMARK    4  A    between atoms: N_12  and  S_13
REMARK    5  A    between atoms: S_13  and  N_16
REMARK                            x       y       z     vdW  Elec       q    Type
REMARK                         _______ _______ _______ _____ _____    ______ ____
ROOT
ATOM      1  N   UNL     1       1.691   6.083  19.912  0.00  0.00    +0.000 NA
ATOM      2  C   UNL     1       1.946   4.996  20.869  0.00  0.00    +0.000 C 
ATOM      3  C   UNL     1       1.137   3.702  20.736  0.00  0.00    +0.000 C 
ATOM      4  C   UNL     1       1.279   2.865  19.476  0.00  0.00    +0.000 C 
ATOM      5  N   UNL     1       2.285   3.375  18.558  0.00  0.00    +0.000 NA
ATOM      6  C   UNL     1       1.917   4.575  17.807  0.00  0.00    +0.000 C 
ATOM      7  C   UNL     1       2.242   5.874  18.559  0.00  0.00    +0.000 C 
ENDROOT
BRANCH   5   8
ATOM      8  S   UNL     1       3.827   2.765  18.575  0.00  0.00    +0.000 S 
ATOM      9  O   UNL     1       4.303   2.686  19.937  0.00  0.00    +0.000 OA
ATOM     10  O   UNL     1       3.882   1.638  17.679  0.00  0.00    +0.000 OA
BRANCH   8  11
ATOM     11  N   UNL     1       4.638   4.072  17.819  0.00  0.00    +0.000 NA
ATOM     12  C   UNL     1       5.720   4.659  18.657  0.00  0.00    +0.000 C 
ATOM     13  C   UNL     1       6.274   5.916  17.998  0.00  0.00    +0.000 C 
ATOM     14  C   UNL     1       6.821   5.586  16.616  0.00  0.00    +0.000 C 
ATOM     15  C   UNL     1       5.714   4.980  15.763  0.00  0.00    +0.000 C 
ATOM     16  C   UNL     1       5.094   3.753  16.435  0.00  0.00    +0.000 C 
ENDBRANCH   8  11
ENDBRANCH   5   8
BRANCH   1  17
ATOM     17  C   UNL     1       2.156   7.398  20.451  0.00  0.00    +0.000 C 
BRANCH  17  23
ATOM     18  C   UNL     1       1.851   9.507  17.889  0.00  0.00    +0.000 C 
ATOM     19  C   UNL     1       1.108   9.479  19.178  0.00  0.00    +0.000 A 
ATOM     20  N   UNL     1       0.132  10.455  19.343  0.00  0.00    +0.000 NA
ATOM     21  C   UNL     1      -0.461  10.307  20.503  0.00  0.00    +0.000 A 
ATOM     22  S   UNL     1       0.067   8.990  21.449  0.00  0.00    +0.000 S 
ATOM     23  C   UNL     1       1.254   8.599  20.249  0.00  0.00    +0.000 A 
ENDBRANCH  17  23
ENDBRANCH   1  17
TORSDOF 4
ENDMDL
MODEL 2
REMARK VINA RESULT:      -7.1      0.963      1.322
REMARK  Name = 
REMARK  5 active torsions:
REMARK  status: ('A' for Active; 'I' for Inactive)
REMARK    1  A    between atoms: C_1  and  C_2
REMARK    2  A    between atoms: C_6  and  C_7
REMARK    3  A    between atoms: C_7  and  N_8
REMARK    4  A    between atoms: N_12  and  S_13
REMARK    5  A    between atoms: S_13  and  N_16
REMARK                            x       y       z     vdW  Elec       q    Type
REMARK                         _______ _______ _______ _____ _____    ______ ____
ROOT
ATOM      1  N   UNL     1       1.723   6.153  19.680  0.00  0.00    +0.000 NA
ATOM      2  C   UNL     1       2.028   5.178  20.738  0.00  0.00    +0.000 C 
ATOM      3  C   UNL     1       1.216   3.881  20.791  0.00  0.00    +0.000 C 
ATOM      4  C   UNL     1       1.295   2.908  19.627  0.00  0.00    +0.000 C 
ATOM      5  N   UNL     1       2.252   3.309  18.608  0.00  0.00    +0.000 NA
ATOM      6  C   UNL     1       1.844   4.419  17.748  0.00  0.00    +0.000 C 
ATOM      7  C   UNL     1       2.204   5.792  18.333  0.00  0.00    +0.000 C 
ENDROOT
BRANCH   5   8
ATOM      8  S   UNL     1       3.794   2.699  18.614  0.00  0.00    +0.000 S 
ATOM      9  O   UNL     1       4.273   2.605  19.974  0.00  0.00    +0.000 OA
ATOM     10  O   UNL     1       3.847   1.582  17.706  0.00  0.00    +0.000 OA
BRANCH   8  11
ATOM     11  N   UNL     1       4.603   4.014  17.871  0.00  0.00    +0.000 NA
ATOM     12  C   UNL     1       5.674   4.604  18.720  0.00  0.00    +0.000 C 
ATOM     13  C   UNL     1       6.226   5.867  18.071  0.00  0.00    +0.000 C 
ATOM     14  C   UNL     1       6.787   5.546  16.692  0.00  0.00    +0.000 C 
ATOM     15  C   UNL     1       5.690   4.938  15.828  0.00  0.00    +0.000 C 
ATOM     16  C   UNL     1       5.072   3.704  16.489  0.00  0.00    +0.000 C 
ENDBRANCH   8  11
ENDBRANCH   5   8
BRANCH   1  17
ATOM     17  C   UNL     1       2.212   7.518  20.045  0.00  0.00    +0.000 C 
BRANCH  17  23
ATOM     18  C   UNL     1      -0.130   8.967  21.923  0.00  0.00    +0.000 C 
ATOM     19  C   UNL     1       0.321   9.314  20.549  0.00  0.00    +0.000 A 
ATOM     20  N   UNL     1      -0.302  10.407  19.957  0.00  0.00    +0.000 NA
ATOM     21  C   UNL     1       0.199  10.621  18.765  0.00  0.00    +0.000 A 
ATOM     22  S   UNL     1       1.457   9.574  18.285  0.00  0.00    +0.000 S 
ATOM     23  C   UNL     1       1.293   8.692  19.767  0.00  0.00    +0.000 A 
ENDBRANCH  17  23
ENDBRANCH   1  17
TORSDOF 4
ENDMDL
MODEL 3
REMARK VINA RESULT:      -7.0      1.412      1.937
REMARK  Name = 
REMARK  5 active torsions:
REMARK  status: ('A' for Active; 'I' for Inactive)
REMARK    1  A    between atoms: C_1  and  C_2
REMARK    2  A    between atoms: C_6  and  C_7
REMARK    3  A    between atoms: C_7  and  N_8
REMARK    4  A    between atoms: N_12  and  S_13
REMARK    5  A    between atoms: S_13  and  N_16
REMARK                            x       y       z     vdW  Elec       q    Type
REMARK                         _______ _______ _______ _____ _____    ______ ____
ROOT
ATOM      1  N   UNL     1       1.595   6.980  20.164  0.00  0.00    +0.000 NA
ATOM      2  C   UNL     1       1.714   5.729  20.928  0.00  0.00    +0.000 C 
ATOM      3  C   UNL     1       1.118   4.451  20.332  0.00  0.00    +0.000 C 
ATOM      4  C   UNL     1       1.675   3.913  19.024  0.00  0.00    +0.000 C 
ATOM      5  N   UNL     1       2.819   4.664  18.535  0.00  0.00    +0.000 NA
ATOM      6  C   UNL     1       2.526   5.975  17.956  0.00  0.00    +0.000 C 
ATOM      7  C   UNL     1       2.497   7.098  19.002  0.00  0.00    +0.000 C 
ENDROOT
BRANCH   5   8
ATOM      8  S   UNL     1       4.364   4.153  18.861  0.00  0.00    +0.000 S 
ATOM      9  O   UNL     1       4.907   4.921  19.957  0.00  0.00    +0.000 OA
ATOM     10  O   UNL     1       4.379   2.713  18.855  0.00  0.00    +0.000 OA
BRANCH   8  11
ATOM     11  N   UNL     1       5.130   4.689  17.424  0.00  0.00    +0.000 NA
ATOM     12  C   UNL     1       6.550   5.087  17.626  0.00  0.00    +0.000 C 
ATOM     13  C   UNL     1       7.108   5.711  16.353  0.00  0.00    +0.000 C 
ATOM     14  C   UNL     1       7.014   4.722  15.199  0.00  0.00    +0.000 C 
ATOM     15  C   UNL     1       5.561   4.312  14.999  0.00  0.00    +0.000 C 
ATOM     16  C   UNL     1       4.955   3.743  16.283  0.00  0.00    +0.000 C 
ENDBRANCH   8  11
ENDBRANCH   5   8
BRANCH   1  17
ATOM     17  C   UNL     1       1.753   8.173  21.052  0.00  0.00    +0.000 C 
BRANCH  17  23
ATOM     18  C   UNL     1      -0.257   9.646  23.265  0.00  0.00    +0.000 C 
ATOM     19  C   UNL     1      -0.081   9.935  21.816  0.00  0.00    +0.000 A 
ATOM     20  N   UNL     1      -0.845  10.977  21.302  0.00  0.00    +0.000 NA
ATOM     21  C   UNL     1      -0.581  11.143  20.029  0.00  0.00    +0.000 A 
ATOM     22  S   UNL     1       0.606  10.111  19.371  0.00  0.00    +0.000 S 
ATOM     23  C   UNL     1       0.753   9.302  20.897  0.00  0.00    +0.000 A 
ENDBRANCH  17  23
ENDBRANCH   1  17
TORSDOF 4
ENDMDL
MODEL 4
REMARK VINA RESULT:      -6.9      0.958      1.051
REMARK  Name = 
REMARK  5 active torsions:
REMARK  status: ('A' for Active; 'I' for Inactive)
REMARK    1  A    between atoms: C_1  and  C_2
REMARK    2  A    between atoms: C_6  and  C_7
REMARK    3  A    between atoms: C_7  and  N_8
REMARK    4  A    between atoms: N_12  and  S_13
REMARK    5  A    between atoms: S_13  and  N_16
REMARK                            x       y       z     vdW  Elec       q    Type
REMARK                         _______ _______ _______ _____ _____    ______ ____
ROOT
ATOM      1  N   UNL     1       1.650   6.674  20.156  0.00  0.00    +0.000 NA
ATOM      2  C   UNL     1       1.670   5.376  20.846  0.00  0.00    +0.000 C 
ATOM      3  C   UNL     1       0.940   4.195  20.200  0.00  0.00    +0.000 C 
ATOM      4  C   UNL     1       1.408   3.684  18.848  0.00  0.00    +0.000 C 
ATOM      5  N   UNL     1       2.606   4.351  18.365  0.00  0.00    +0.000 NA
ATOM      6  C   UNL     1       2.423   5.715  17.868  0.00  0.00    +0.000 C 
ATOM      7  C   UNL     1       2.529   6.774  18.974  0.00  0.00    +0.000 C 
ENDROOT
BRANCH   5   8
ATOM      8  S   UNL     1       4.102   3.680  18.614  0.00  0.00    +0.000 S 
ATOM      9  O   UNL     1       4.631   4.130  19.881  0.00  0.00    +0.000 OA
ATOM     10  O   UNL     1       4.041   2.285  18.263  0.00  0.00    +0.000 OA
BRANCH   8  11
ATOM     11  N   UNL     1       4.967   4.491  17.375  0.00  0.00    +0.000 NA
ATOM     12  C   UNL     1       6.352   4.866  17.772  0.00  0.00    +0.000 C 
ATOM     13  C   UNL     1       6.993   5.729  16.693  0.00  0.00    +0.000 C 
ATOM     14  C   UNL     1       7.026   4.977  15.369  0.00  0.00    +0.000 C 
ATOM     15  C   UNL     1       5.608   4.591  14.970  0.00  0.00    +0.000 C 
ATOM     16  C   UNL     1       4.916   3.778  16.067  0.00  0.00    +0.000 C 
ENDBRANCH   8  11
ENDBRANCH   5   8
BRANCH   1  17
ATOM     17  C   UNL     1       1.945   7.794  21.102  0.00  0.00    +0.000 C 
BRANCH  17  23
ATOM     18  C   UNL     1       1.082   9.909  18.674  0.00  0.00    +0.000 C 
ATOM     19  C   UNL     1       0.624   9.864  20.089  0.00  0.00    +0.000 A 
ATOM     20  N   UNL     1      -0.310  10.824  20.461  0.00  0.00    +0.000 NA
ATOM     21  C   UNL     1      -0.647  10.662  21.718  0.00  0.00    +0.000 A 
ATOM     22  S   UNL     1       0.086   9.350  22.523  0.00  0.00    +0.000 S 
ATOM     23  C   UNL     1       1.002   8.982  21.100  0.00  0.00    +0.000 A 
ENDBRANCH  17  23
ENDBRANCH   1  17
TORSDOF 4
ENDMDL
MODEL 5
REMARK VINA RESULT:      -6.7      1.512      2.288
REMARK  Name = 
REMARK  5 active torsions:
REMARK  status: ('A' for Active; 'I' for Inactive)
REMARK    1  A    between atoms: C_1  and  C_2
REMARK    2  A    between atoms: C_6  and  C_7
REMARK    3  A    between atoms: C_7  and  N_8
REMARK    4  A    between atoms: N_12  and  S_13
REMARK    5  A    between atoms: S_13  and  N_16
REMARK                            x       y       z     vdW  Elec       q    Type
REMARK                         _______ _______ _______ _____ _____    ______ ____
ROOT
ATOM      1  N   UNL     1       1.764   6.854  20.048  0.00  0.00    +0.000 NA
ATOM      2  C   UNL     1       1.850   5.536  20.695  0.00  0.00    +0.000 C 
ATOM      3  C   UNL     1       1.477   4.296  19.876  0.00  0.00    +0.000 C 
ATOM      4  C   UNL     1       2.298   3.945  18.647  0.00  0.00    +0.000 C 
ATOM      5  N   UNL     1       3.445   4.817  18.454  0.00  0.00    +0.000 NA
ATOM      6  C   UNL     1       3.151   6.163  17.962  0.00  0.00    +0.000 C 
ATOM      7  C   UNL     1       2.844   7.158  19.090  0.00  0.00    +0.000 C 
ENDROOT
BRANCH   5   8
ATOM      8  S   UNL     1       4.944   4.373  19.008  0.00  0.00    +0.000 S 
ATOM      9  O   UNL     1       5.522   5.457  19.767  0.00  0.00    +0.000 OA
ATOM     10  O   UNL     1       4.859   3.034  19.533  0.00  0.00    +0.000 OA
BRANCH   8  11
ATOM     11  N   UNL     1       5.769   4.293  17.508  0.00  0.00    +0.000 NA
ATOM     12  C   UNL     1       4.909   3.828  16.386  0.00  0.00    +0.000 C 
ATOM     13  C   UNL     1       5.747   3.616  15.132  0.00  0.00    +0.000 C 
ATOM     14  C   UNL     1       6.441   4.914  14.739  0.00  0.00    +0.000 C 
ATOM     15  C   UNL     1       7.316   5.390  15.892  0.00  0.00    +0.000 C 
ATOM     16  C   UNL     1       6.510   5.546  17.183  0.00  0.00    +0.000 C 
ENDBRANCH   8  11
ENDBRANCH   5   8
BRANCH   1  17
ATOM     17  C   UNL     1       1.663   7.948  21.063  0.00  0.00    +0.000 C 
BRANCH  17  23
ATOM     18  C   UNL     1      -0.408   9.663  23.032  0.00  0.00    +0.000 C 
ATOM     19  C   UNL     1      -0.134   9.834  21.580  0.00  0.00    +0.000 A 
ATOM     20  N   UNL     1      -0.820  10.862  20.944  0.00  0.00    +0.000 NA
ATOM     21  C   UNL     1      -0.474  10.921  19.680  0.00  0.00    +0.000 A 
ATOM     22  S   UNL     1       0.704   9.796  19.176  0.00  0.00    +0.000 S 
ATOM     23  C   UNL     1       0.725   9.101  20.763  0.00  0.00    +0.000 A 
ENDBRANCH  17  23
ENDBRANCH   1  17
TORSDOF 4
ENDMDL
MODEL 6
REMARK VINA RESULT:      -6.4      1.208      1.766
REMARK  Name = 
REMARK  5 active torsions:
REMARK  status: ('A' for Active; 'I' for Inactive)
REMARK    1  A    between atoms: C_1  and  C_2
REMARK    2  A    between atoms: C_6  and  C_7
REMARK    3  A    between atoms: C_7  and  N_8
REMARK    4  A    between atoms: N_12  and  S_13
REMARK    5  A    between atoms: S_13  and  N_16
REMARK                            x       y       z     vdW  Elec       q    Type
REMARK                         _______ _______ _______ _____ _____    ______ ____
ROOT
ATOM      1  N   UNL     1       1.833   6.898  19.973  0.00  0.00    +0.000 NA
ATOM      2  C   UNL     1       1.906   5.615  20.688  0.00  0.00    +0.000 C 
ATOM      3  C   UNL     1       1.499   4.341  19.942  0.00  0.00    +0.000 C 
ATOM      4  C   UNL     1       2.295   3.909  18.722  0.00  0.00    +0.000 C 
ATOM      5  N   UNL     1       3.454   4.749  18.467  0.00  0.00    +0.000 NA
ATOM      6  C   UNL     1       3.176   6.072  17.908  0.00  0.00    +0.000 C 
ATOM      7  C   UNL     1       2.904   7.131  18.985  0.00  0.00    +0.000 C 
ENDROOT
BRANCH   5   8
ATOM      8  S   UNL     1       4.954   4.308  19.022  0.00  0.00    +0.000 S 
ATOM      9  O   UNL     1       5.524   5.389  19.792  0.00  0.00    +0.000 OA
ATOM     10  O   UNL     1       4.873   2.964  19.535  0.00  0.00    +0.000 OA
BRANCH   8  11
ATOM     11  N   UNL     1       5.785   4.244  17.524  0.00  0.00    +0.000 NA
ATOM     12  C   UNL     1       4.919   3.825  16.387  0.00  0.00    +0.000 C 
ATOM     13  C   UNL     1       5.759   3.624  15.133  0.00  0.00    +0.000 C 
ATOM     14  C   UNL     1       6.484   4.915  14.774  0.00  0.00    +0.000 C 
ATOM     15  C   UNL     1       7.364   5.343  15.941  0.00  0.00    +0.000 C 
ATOM     16  C   UNL     1       6.555   5.488  17.232  0.00  0.00    +0.000 C 
ENDBRANCH   8  11
ENDBRANCH   5   8
BRANCH   1  17
ATOM     17  C   UNL     1       1.766   8.046  20.929  0.00  0.00    +0.000 C 
BRANCH  17  23
ATOM     18  C   UNL     1       1.166   9.590  18.037  0.00  0.00    +0.000 C 
ATOM     19  C   UNL     1       0.571   9.839  19.378  0.00  0.00    +0.000 A 
ATOM     20  N   UNL     1      -0.386  10.845  19.445  0.00  0.00    +0.000 NA
ATOM     21  C   UNL     1      -0.846  10.948  20.669  0.00  0.00    +0.000 A 
ATOM     22  S   UNL     1      -0.209   9.844  21.801  0.00  0.00    +0.000 S 
ATOM     23  C   UNL     1       0.840   9.196  20.584  0.00  0.00    +0.000 A 
ENDBRANCH  17  23
ENDBRANCH   1  17
TORSDOF 4
ENDMDL
MODEL 7
REMARK VINA RESULT:      -6.2      3.273      7.049
REMARK  Name = 
REMARK  5 active torsions:
REMARK  status: ('A' for Active; 'I' for Inactive)
REMARK    1  A    between atoms: C_1  and  C_2
REMARK    2  A    between atoms: C_6  and  C_7
REMARK    3  A    between atoms: C_7  and  N_8
REMARK    4  A    between atoms: N_12  and  S_13
REMARK    5  A    between atoms: S_13  and  N_16
REMARK                            x       y       z     vdW  Elec       q    Type
REMARK                         _______ _______ _______ _____ _____    ______ ____
ROOT
ATOM      1  N   UNL     1       5.433   4.486  16.339  0.00  0.00    +0.000 NA
ATOM      2  C   UNL     1       4.933   3.705  17.480  0.00  0.00    +0.000 C 
ATOM      3  C   UNL     1       5.449   4.050  18.881  0.00  0.00    +0.000 C 
ATOM      4  C   UNL     1       5.154   5.422  19.462  0.00  0.00    +0.000 C 
ATOM      5  N   UNL     1       4.298   6.234  18.613  0.00  0.00    +0.000 NA
ATOM      6  C   UNL     1       4.928   6.795  17.418  0.00  0.00    +0.000 C 
ATOM      7  C   UNL     1       4.875   5.846  16.212  0.00  0.00    +0.000 C 
ENDROOT
BRANCH   5   8
ATOM      8  S   UNL     1       2.661   6.289  18.872  0.00  0.00    +0.000 S 
ATOM      9  O   UNL     1       2.359   7.303  19.855  0.00  0.00    +0.000 OA
ATOM     10  O   UNL     1       1.995   6.239  17.596  0.00  0.00    +0.000 OA
BRANCH   8  11
ATOM     11  N   UNL     1       2.459   4.762  19.625  0.00  0.00    +0.000 NA
ATOM     12  C   UNL     1       2.154   4.858  21.079  0.00  0.00    +0.000 C 
ATOM     13  C   UNL     1       2.162   3.472  21.711  0.00  0.00    +0.000 C 
ATOM     14  C   UNL     1       1.132   2.579  21.032  0.00  0.00    +0.000 C 
ATOM     15  C   UNL     1       1.444   2.488  19.543  0.00  0.00    +0.000 C 
ATOM     16  C   UNL     1       1.509   3.874  18.896  0.00  0.00    +0.000 C 
ENDBRANCH   8  11
ENDBRANCH   5   8
BRANCH   1  17
ATOM     17  C   UNL     1       5.251   3.742  15.054  0.00  0.00    +0.000 C 
BRANCH  17  23
ATOM     18  C   UNL     1       5.257   2.768  11.866  0.00  0.00    +0.000 C 
ATOM     19  C   UNL     1       6.191   3.687  12.571  0.00  0.00    +0.000 A 
ATOM     20  N   UNL     1       7.207   4.239  11.798  0.00  0.00    +0.000 NA
ATOM     21  C   UNL     1       7.942   5.042  12.528  0.00  0.00    +0.000 A 
ATOM     22  S   UNL     1       7.460   5.225  14.153  0.00  0.00    +0.000 S 
ATOM     23  C   UNL     1       6.187   4.076  13.909  0.00  0.00    +0.000 A 
ENDBRANCH  17  23
ENDBRANCH   1  17
TORSDOF 4
ENDMDL
MODEL 8
REMARK VINA RESULT:      -5.8      3.746      5.714
REMARK  Name = 
REMARK  5 active torsions:
REMARK  status: ('A' for Active; 'I' for Inactive)
REMARK    1  A    between atoms: C_1  and  C_2
REMARK    2  A    between atoms: C_6  and  C_7
REMARK    3  A    between atoms: C_7  and  N_8
REMARK    4  A    between atoms: N_12  and  S_13
REMARK    5  A    between atoms: S_13  and  N_16
REMARK                            x       y       z     vdW  Elec       q    Type
REMARK                         _______ _______ _______ _____ _____    ______ ____
ROOT
ATOM      1  N   UNL     1       4.418   4.507  18.155  0.00  0.00    +0.000 NA
ATOM      2  C   UNL     1       5.331   5.660  18.151  0.00  0.00    +0.000 C 
ATOM      3  C   UNL     1       6.835   5.400  18.282  0.00  0.00    +0.000 C 
ATOM      4  C   UNL     1       7.547   4.607  17.199  0.00  0.00    +0.000 C 
ATOM      5  N   UNL     1       6.687   4.264  16.078  0.00  0.00    +0.000 NA
ATOM      6  C   UNL     1       5.713   3.199  16.320  0.00  0.00    +0.000 C 
ATOM      7  C   UNL     1       4.393   3.718  16.908  0.00  0.00    +0.000 C 
ENDROOT
BRANCH   5   8
ATOM      8  S   UNL     1       6.661   5.209  14.715  0.00  0.00    +0.000 S 
ATOM      9  O   UNL     1       5.586   6.169  14.811  0.00  0.00    +0.000 OA
ATOM     10  O   UNL     1       8.012   5.603  14.408  0.00  0.00    +0.000 OA
BRANCH   8  11
ATOM     11  N   UNL     1       6.192   4.018  13.575  0.00  0.00    +0.000 NA
ATOM     12  C   UNL     1       4.832   4.244  13.013  0.00  0.00    +0.000 C 
ATOM     13  C   UNL     1       4.418   3.061  12.146  0.00  0.00    +0.000 C 
ATOM     14  C   UNL     1       5.415   2.868  11.010  0.00  0.00    +0.000 C 
ATOM     15  C   UNL     1       6.806   2.644  11.589  0.00  0.00    +0.000 C 
ATOM     16  C   UNL     1       7.220   3.787  12.518  0.00  0.00    +0.000 C 
ENDBRANCH   8  11
ENDBRANCH   5   8
BRANCH   1  17
ATOM     17  C   UNL     1       3.028   4.919  18.523  0.00  0.00    +0.000 C 
BRANCH  17  23
ATOM     18  C   UNL     1       1.148   2.174  18.328  0.00  0.00    +0.000 C 
ATOM     19  C   UNL     1       1.542   2.961  19.527  0.00  0.00    +0.000 A 
ATOM     20  N   UNL     1       1.081   2.486  20.750  0.00  0.00    +0.000 NA
ATOM     21  C   UNL     1       1.513   3.252  21.723  0.00  0.00    +0.000 A 
ATOM     22  S   UNL     1       2.517   4.550  21.261  0.00  0.00    +0.000 S 
ATOM     23  C   UNL     1       2.318   4.117  19.595  0.00  0.00    +0.000 A 
ENDBRANCH  17  23
ENDBRANCH   1  17
TORSDOF 4
ENDMDL
MODEL 9
REMARK VINA RESULT:      -5.7      3.659      8.610
REMARK  Name = 
REMARK  5 active torsions:
REMARK  status: ('A' for Active; 'I' for Inactive)
REMARK    1  A    between atoms: C_1  and  C_2
REMARK    2  A    between atoms: C_6  and  C_7
REMARK    3  A    between atoms: C_7  and  N_8
REMARK    4  A    between atoms: N_12  and  S_13
REMARK    5  A    between atoms: S_13  and  N_16
REMARK                            x       y       z     vdW  Elec       q    Type
REMARK                         _______ _______ _______ _____ _____    ______ ____
ROOT
ATOM      1  N   UNL     1       1.534   7.699  19.629  0.00  0.00    +0.000 NA
ATOM      2  C   UNL     1       1.702   9.052  19.078  0.00  0.00    +0.000 C 
ATOM      3  C   UNL     1       0.462   9.786  18.556  0.00  0.00    +0.000 C 
ATOM      4  C   UNL     1      -0.660  10.126  19.522  0.00  0.00    +0.000 C 
ATOM      5  N   UNL     1      -0.355   9.780  20.901  0.00  0.00    +0.000 NA
ATOM      6  C   UNL     1      -0.404   8.356  21.231  0.00  0.00    +0.000 C 
ATOM      7  C   UNL     1       0.927   7.636  20.973  0.00  0.00    +0.000 C 
ENDROOT
BRANCH   5   8
ATOM      8  S   UNL     1       0.254  10.920  21.940  0.00  0.00    +0.000 S 
ATOM      9  O   UNL     1       0.457  10.330  23.243  0.00  0.00    +0.000 OA
ATOM     10  O   UNL     1       1.296  11.647  21.260  0.00  0.00    +0.000 OA
BRANCH   8  11
ATOM     11  N   UNL     1      -1.115  11.946  22.044  0.00  0.00    +0.000 NA
ATOM     12  C   UNL     1      -2.010  11.620  23.188  0.00  0.00    +0.000 C 
ATOM     13  C   UNL     1      -3.284  12.452  23.114  0.00  0.00    +0.000 C 
ATOM     14  C   UNL     1      -2.943  13.936  23.138  0.00  0.00    +0.000 C 
ATOM     15  C   UNL     1      -2.023  14.265  21.970  0.00  0.00    +0.000 C 
ATOM     16  C   UNL     1      -0.765  13.394  21.983  0.00  0.00    +0.000 C 
ENDBRANCH   8  11
ENDBRANCH   5   8
BRANCH   1  17
ATOM     17  C   UNL     1       2.828   6.949  19.621  0.00  0.00    +0.000 C 
BRANCH  17  23
ATOM     18  C   UNL     1       1.125   4.155  20.259  0.00  0.00    +0.000 C 
ATOM     19  C   UNL     1       2.132   4.422  19.196  0.00  0.00    +0.000 A 
ATOM     20  N   UNL     1       2.398   3.369  18.327  0.00  0.00    +0.000 NA
ATOM     21  C   UNL     1       3.279   3.738  17.429  0.00  0.00    +0.000 A 
ATOM     22  S   UNL     1       3.818   5.353  17.531  0.00  0.00    +0.000 S 
ATOM     23  C   UNL     1       2.848   5.591  18.948  0.00  0.00    +0.000 A 
ENDBRANCH  17  23
ENDBRANCH   1  17
TORSDOF 4
ENDMDL
