MODEL 1
REMARK VINA RESULT:      -8.6      0.000      0.000
REMARK  Name = 
REMARK  3 active torsions:
REMARK  status: ('A' for Active; 'I' for Inactive)
REMARK    1  A    between atoms: N_1  and  S_2
REMARK    2  A    between atoms: S_2  and  N_5
REMARK    3  A    between atoms: N_13  and  C_14
REMARK                            x       y       z     vdW  Elec       q    Type
REMARK                         _______ _______ _______ _____ _____    ______ ____
ROOT
ATOM      1  N   UNL     1       4.832   5.323  18.027  0.00  0.00    +0.000 N 
ATOM      2  C   UNL     1       4.235   6.583  18.535  0.00  0.00    +0.000 C 
ATOM      3  C   UNL     1       2.692   6.329  18.626  0.00  0.00    +0.000 C 
ATOM      4  C   UNL     1       1.917   7.158  17.572  0.00  0.00    +0.000 C 
ATOM      5  C   UNL     1       1.864   8.650  17.923  0.00  0.00    +0.000 C 
ATOM      6  N   UNL     1       1.357   8.838  19.280  0.00  0.00    +0.000 N 
ATOM      7  C   UNL     1       0.291   9.625  19.710  0.00  0.00    +0.000 C 
ATOM      8  O   UNL     1       0.048   9.741  20.911  0.00  0.00    +0.000 OA
ATOM      9  N   UNL     1      -0.471  10.217  18.722  0.00  0.00    +0.000 N 
ATOM     10  C   UNL     1       2.134   8.146  20.311  0.00  0.00    +0.000 C 
ATOM     11  C   UNL     1       2.155   6.645  20.037  0.00  0.00    +0.000 C 
ATOM     12  C   UNL     1       2.607   4.840  18.344  0.00  0.00    +0.000 A 
ATOM     13  C   UNL     1       1.464   4.046  18.299  0.00  0.00    +0.000 A 
ATOM     14  C   UNL     1       1.596   2.692  17.989  0.00  0.00    +0.000 A 
ATOM     15  C   UNL     1       2.859   2.144  17.734  0.00  0.00    +0.000 A 
ATOM     16  C   UNL     1       4.002   2.947  17.768  0.00  0.00    +0.000 A 
ATOM     17  C   UNL     1       3.865   4.289  18.080  0.00  0.00    +0.000 A 
ATOM     18  H   UNL     1      -0.380   9.843  17.795  0.00  0.00    +0.000 HD
ENDROOT
BRANCH   9  19
ATOM     19  C   UNL     1      -1.607  11.037  18.945  0.00  0.00    +0.000 A 
ATOM     20  C   UNL     1      -1.673  12.011  19.947  0.00  0.00    +0.000 A 
ATOM     21  C   UNL     1      -2.857  12.712  20.196  0.00  0.00    +0.000 A 
ATOM     22  C   UNL     1      -3.994  12.461  19.432  0.00  0.00    +0.000 A 
ATOM     23 CL   UNL     1      -5.439  13.315  19.833  0.00  0.00    +0.000 Cl
ATOM     24  C   UNL     1      -3.925  11.536  18.385  0.00  0.00    +0.000 A 
ATOM     25 CL   UNL     1      -5.287  11.187  17.377  0.00  0.00    +0.000 Cl
ATOM     26  C   UNL     1      -2.734  10.836  18.136  0.00  0.00    +0.000 A 
ENDBRANCH   9  19
BRANCH   1  27
ATOM     27  S   UNL     1       6.475   5.134  18.035  0.00  0.00    +0.000 S 
ATOM     28  O   UNL     1       6.873   4.405  16.857  0.00  0.00    +0.000 OA
ATOM     29  O   UNL     1       6.960   4.774  19.345  0.00  0.00    +0.000 OA
BRANCH  27  30
ATOM     30  N   UNL     1       6.984   6.701  17.791  0.00  0.00    +0.000 NA
ATOM     31  H   UNL     1       7.504   6.989  18.619  0.00  0.00    +0.000 HD
ATOM     32  H   UNL     1       6.166   7.302  17.668  0.00  0.00    +0.000 HD
ENDBRANCH  27  30
ENDBRANCH   1  27
TORSDOF 3
ENDMDL
MODEL 2
REMARK VINA RESULT:      -7.9      0.684      1.395
REMARK  Name = 
REMARK  3 active torsions:
REMARK  status: ('A' for Active; 'I' for Inactive)
REMARK    1  A    between atoms: N_1  and  S_2
REMARK    2  A    between atoms: S_2  and  N_5
REMARK    3  A    between atoms: N_13  and  C_14
REMARK                            x       y       z     vdW  Elec       q    Type
REMARK                         _______ _______ _______ _____ _____    ______ ____
ROOT
ATOM      1  N   UNL     1       4.907   5.516  18.321  0.00  0.00    +0.000 N 
ATOM      2  C   UNL     1       4.222   6.721  18.849  0.00  0.00    +0.000 C 
ATOM      3  C   UNL     1       2.689   6.404  18.813  0.00  0.00    +0.000 C 
ATOM      4  C   UNL     1       1.957   7.259  17.750  0.00  0.00    +0.000 C 
ATOM      5  C   UNL     1       1.816   8.727  18.174  0.00  0.00    +0.000 C 
ATOM      6  N   UNL     1       1.206   8.820  19.498  0.00  0.00    +0.000 N 
ATOM      7  C   UNL     1       0.079   9.540  19.889  0.00  0.00    +0.000 C 
ATOM      8  O   UNL     1      -0.254   9.579  21.073  0.00  0.00    +0.000 OA
ATOM      9  N   UNL     1      -0.635  10.156  18.880  0.00  0.00    +0.000 N 
ATOM     10  C   UNL     1       1.935   8.102  20.545  0.00  0.00    +0.000 C 
ATOM     11  C   UNL     1       2.040   6.620  20.195  0.00  0.00    +0.000 C 
ATOM     12  C   UNL     1       2.688   4.930  18.447  0.00  0.00    +0.000 A 
ATOM     13  C   UNL     1       1.586   4.097  18.277  0.00  0.00    +0.000 A 
ATOM     14  C   UNL     1       1.797   2.768  17.907  0.00  0.00    +0.000 A 
ATOM     15  C   UNL     1       3.096   2.284  17.717  0.00  0.00    +0.000 A 
ATOM     16  C   UNL     1       4.200   3.128  17.877  0.00  0.00    +0.000 A 
ATOM     17  C   UNL     1       3.984   4.444  18.248  0.00  0.00    +0.000 A 
ATOM     18  H   UNL     1      -0.462   9.837  17.944  0.00  0.00    +0.000 HD
ENDROOT
BRANCH   9  19
ATOM     19  C   UNL     1      -1.818  10.918  19.062  0.00  0.00    +0.000 A 
ATOM     20  C   UNL     1      -2.958  10.777  18.264  0.00  0.00    +0.000 A 
ATOM     21  C   UNL     1      -4.054  11.632  18.414  0.00  0.00    +0.000 A 
ATOM     22  C   UNL     1      -4.034  12.634  19.381  0.00  0.00    +0.000 A 
ATOM     23 CL   UNL     1      -5.393  13.695  19.470  0.00  0.00    +0.000 Cl
ATOM     24  C   UNL     1      -2.928  12.747  20.228  0.00  0.00    +0.000 A 
ATOM     25 CL   UNL     1      -2.838  13.952  21.466  0.00  0.00    +0.000 Cl
ATOM     26  C   UNL     1      -1.830  11.885  20.077  0.00  0.00    +0.000 A 
ENDBRANCH   9  19
BRANCH   1  27
ATOM     27  S   UNL     1       6.552   5.390  18.440  0.00  0.00    +0.000 S 
ATOM     28  O   UNL     1       7.031   4.479  17.430  0.00  0.00    +0.000 OA
ATOM     29  O   UNL     1       6.976   5.284  19.814  0.00  0.00    +0.000 OA
BRANCH  27  30
ATOM     30  N   UNL     1       7.030   6.906  17.944  0.00  0.00    +0.000 NA
ATOM     31  H   UNL     1       6.196   7.410  17.645  0.00  0.00    +0.000 HD
ATOM     32  H   UNL     1       7.679   6.812  17.160  0.00  0.00    +0.000 HD
ENDBRANCH  27  30
ENDBRANCH   1  27
TORSDOF 3
ENDMDL
MODEL 3
REMARK VINA RESULT:      -7.4      1.324      1.931
REMARK  Name = 
REMARK  3 active torsions:
REMARK  status: ('A' for Active; 'I' for Inactive)
REMARK    1  A    between atoms: N_1  and  S_2
REMARK    2  A    between atoms: S_2  and  N_5
REMARK    3  A    between atoms: N_13  and  C_14
REMARK                            x       y       z     vdW  Elec       q    Type
REMARK                         _______ _______ _______ _____ _____    ______ ____
ROOT
ATOM      1  N   UNL     1       5.193   5.564  18.743  0.00  0.00    +0.000 N 
ATOM      2  C   UNL     1       4.398   6.817  18.780  0.00  0.00    +0.000 C 
ATOM      3  C   UNL     1       2.898   6.380  18.880  0.00  0.00    +0.000 C 
ATOM      4  C   UNL     1       2.124   6.703  17.578  0.00  0.00    +0.000 C 
ATOM      5  C   UNL     1       1.853   8.203  17.414  0.00  0.00    +0.000 C 
ATOM      6  N   UNL     1       1.205   8.739  18.609  0.00  0.00    +0.000 N 
ATOM      7  C   UNL     1       0.013   9.455  18.706  0.00  0.00    +0.000 C 
ATOM      8  O   UNL     1      -0.351   9.912  19.789  0.00  0.00    +0.000 OA
ATOM      9  N   UNL     1      -0.724   9.579  17.545  0.00  0.00    +0.000 N 
ATOM     10  C   UNL     1       1.965   8.537  19.844  0.00  0.00    +0.000 C 
ATOM     11  C   UNL     1       2.199   7.048  20.083  0.00  0.00    +0.000 C 
ATOM     12  C   UNL     1       3.027   4.884  19.102  0.00  0.00    +0.000 A 
ATOM     13  C   UNL     1       2.001   3.957  19.271  0.00  0.00    +0.000 A 
ATOM     14  C   UNL     1       2.330   2.611  19.432  0.00  0.00    +0.000 A 
ATOM     15  C   UNL     1       3.669   2.204  19.429  0.00  0.00    +0.000 A 
ATOM     16  C   UNL     1       4.695   3.136  19.247  0.00  0.00    +0.000 A 
ATOM     17  C   UNL     1       4.362   4.471  19.092  0.00  0.00    +0.000 A 
ATOM     18  H   UNL     1      -0.503   8.945  16.799  0.00  0.00    +0.000 HD
ENDROOT
BRANCH   9  19
ATOM     19  C   UNL     1      -1.970  10.249  17.434  0.00  0.00    +0.000 A 
ATOM     20  C   UNL     1      -2.729  10.278  16.260  0.00  0.00    +0.000 A 
ATOM     21  C   UNL     1      -3.893  11.048  16.172  0.00  0.00    +0.000 A 
ATOM     22  C   UNL     1      -4.327  11.790  17.267  0.00  0.00    +0.000 A 
ATOM     23 CL   UNL     1      -5.736  12.768  17.071  0.00  0.00    +0.000 Cl
ATOM     24  C   UNL     1      -3.613  11.721  18.468  0.00  0.00    +0.000 A 
ATOM     25 CL   UNL     1      -4.100  12.596  19.878  0.00  0.00    +0.000 Cl
ATOM     26  C   UNL     1      -2.446  10.945  18.554  0.00  0.00    +0.000 A 
ENDBRANCH   9  19
BRANCH   1  27
ATOM     27  S   UNL     1       6.839   5.634  18.887  0.00  0.00    +0.000 S 
ATOM     28  O   UNL     1       7.209   5.306  20.242  0.00  0.00    +0.000 OA
ATOM     29  O   UNL     1       7.380   6.790  18.216  0.00  0.00    +0.000 OA
BRANCH  27  30
ATOM     30  N   UNL     1       7.301   4.328  17.963  0.00  0.00    +0.000 NA
ATOM     31  H   UNL     1       8.310   4.389  17.827  0.00  0.00    +0.000 HD
ATOM     32  H   UNL     1       6.826   4.374  17.059  0.00  0.00    +0.000 HD
ENDBRANCH  27  30
ENDBRANCH   1  27
TORSDOF 3
ENDMDL
MODEL 4
REMARK VINA RESULT:      -7.3      8.094      9.223
REMARK  Name = 
REMARK  3 active torsions:
REMARK  status: ('A' for Active; 'I' for Inactive)
REMARK    1  A    between atoms: N_1  and  S_2
REMARK    2  A    between atoms: S_2  and  N_5
REMARK    3  A    between atoms: N_13  and  C_14
REMARK                            x       y       z     vdW  Elec       q    Type
REMARK                         _______ _______ _______ _____ _____    ______ ____
ROOT
ATOM      1  N   UNL     1      10.200  15.655  18.158  0.00  0.00    +0.000 N 
ATOM      2  C   UNL     1       8.812  15.903  18.621  0.00  0.00    +0.000 C 
ATOM      3  C   UNL     1       8.105  14.506  18.651  0.00  0.00    +0.000 C 
ATOM      4  C   UNL     1       7.019  14.395  17.553  0.00  0.00    +0.000 C 
ATOM      5  C   UNL     1       5.770  15.224  17.877  0.00  0.00    +0.000 C 
ATOM      6  N   UNL     1       5.268  14.893  19.209  0.00  0.00    +0.000 N 
ATOM      7  C   UNL     1       3.989  14.486  19.581  0.00  0.00    +0.000 C 
ATOM      8  O   UNL     1       3.708  14.328  20.769  0.00  0.00    +0.000 OA
ATOM      9  N   UNL     1       3.099  14.244  18.553  0.00  0.00    +0.000 N 
ATOM     10  C   UNL     1       6.246  15.086  20.282  0.00  0.00    +0.000 C 
ATOM     11  C   UNL     1       7.481  14.224  20.033  0.00  0.00    +0.000 C 
ATOM     12  C   UNL     1       9.268  13.566  18.389  0.00  0.00    +0.000 A 
ATOM     13  C   UNL     1       9.237  12.176  18.310  0.00  0.00    +0.000 A 
ATOM     14  C   UNL     1      10.420  11.492  18.027  0.00  0.00    +0.000 A 
ATOM     15  C   UNL     1      11.615  12.194  17.834  0.00  0.00    +0.000 A 
ATOM     16  C   UNL     1      11.639  13.590  17.902  0.00  0.00    +0.000 A 
ATOM     17  C   UNL     1      10.463  14.263  18.187  0.00  0.00    +0.000 A 
ATOM     18  H   UNL     1       3.490  14.119  17.637  0.00  0.00    +0.000 HD
ENDROOT
BRANCH   9  19
ATOM     19  C   UNL     1       1.760  13.805  18.716  0.00  0.00    +0.000 A 
ATOM     20  C   UNL     1       0.686  14.671  18.949  0.00  0.00    +0.000 A 
ATOM     21  C   UNL     1      -0.595  14.177  19.214  0.00  0.00    +0.000 A 
ATOM     22  C   UNL     1      -0.826  12.804  19.233  0.00  0.00    +0.000 A 
ATOM     23 CL   UNL     1      -2.415  12.260  19.630  0.00  0.00    +0.000 Cl
ATOM     24  C   UNL     1       0.224  11.928  18.940  0.00  0.00    +0.000 A 
ATOM     25 CL   UNL     1       0.010  10.211  18.922  0.00  0.00    +0.000 Cl
ATOM     26  C   UNL     1       1.508  12.427  18.671  0.00  0.00    +0.000 A 
ENDBRANCH   9  19
BRANCH   1  27
ATOM     27  S   UNL     1      11.320  16.869  18.238  0.00  0.00    +0.000 S 
ATOM     28  O   UNL     1      12.085  16.887  17.016  0.00  0.00    +0.000 OA
ATOM     29  O   UNL     1      11.959  16.915  19.529  0.00  0.00    +0.000 OA
BRANCH  27  30
ATOM     30  N   UNL     1      10.342  18.216  18.179  0.00  0.00    +0.000 NA
ATOM     31  H   UNL     1      10.267  18.584  19.127  0.00  0.00    +0.000 HD
ATOM     32  H   UNL     1       9.418  17.944  17.837  0.00  0.00    +0.000 HD
ENDBRANCH  27  30
ENDBRANCH   1  27
TORSDOF 3
ENDMDL
MODEL 5
REMARK VINA RESULT:      -7.2      4.895      9.772
REMARK  Name = 
REMARK  3 active torsions:
REMARK  status: ('A' for Active; 'I' for Inactive)
REMARK    1  A    between atoms: N_1  and  S_2
REMARK    2  A    between atoms: S_2  and  N_5
REMARK    3  A    between atoms: N_13  and  C_14
REMARK                            x       y       z     vdW  Elec       q    Type
REMARK                         _______ _______ _______ _____ _____    ______ ____
ROOT
ATOM      1  N   UNL     1      -2.913  12.889  20.776  0.00  0.00    +0.000 N 
ATOM      2  C   UNL     1      -1.537  12.383  20.550  0.00  0.00    +0.000 C 
ATOM      3  C   UNL     1      -1.636  11.365  19.363  0.00  0.00    +0.000 C 
ATOM      4  C   UNL     1      -1.386   9.913  19.839  0.00  0.00    +0.000 C 
ATOM      5  C   UNL     1       0.089   9.648  20.167  0.00  0.00    +0.000 C 
ATOM      6  N   UNL     1       0.939  10.033  19.042  0.00  0.00    +0.000 N 
ATOM      7  C   UNL     1       1.888   9.269  18.367  0.00  0.00    +0.000 C 
ATOM      8  O   UNL     1       2.586   9.777  17.490  0.00  0.00    +0.000 OA
ATOM      9  N   UNL     1       1.963   7.935  18.717  0.00  0.00    +0.000 N 
ATOM     10  C   UNL     1       0.797  11.433  18.637  0.00  0.00    +0.000 C 
ATOM     11  C   UNL     1      -0.647  11.723  18.235  0.00  0.00    +0.000 C 
ATOM     12  C   UNL     1      -3.068  11.568  18.902  0.00  0.00    +0.000 A 
ATOM     13  C   UNL     1      -3.723  10.924  17.856  0.00  0.00    +0.000 A 
ATOM     14  C   UNL     1      -5.062  11.231  17.609  0.00  0.00    +0.000 A 
ATOM     15  C   UNL     1      -5.728  12.176  18.398  0.00  0.00    +0.000 A 
ATOM     16  C   UNL     1      -5.069  12.811  19.455  0.00  0.00    +0.000 A 
ATOM     17  C   UNL     1      -3.740  12.505  19.692  0.00  0.00    +0.000 A 
ATOM     18  H   UNL     1       1.181   7.555  19.217  0.00  0.00    +0.000 HD
ENDROOT
BRANCH   9  19
ATOM     19  C   UNL     1       2.845   6.985  18.139  0.00  0.00    +0.000 A 
ATOM     20  C   UNL     1       4.051   7.327  17.520  0.00  0.00    +0.000 A 
ATOM     21  C   UNL     1       4.826   6.363  16.868  0.00  0.00    +0.000 A 
ATOM     22  C   UNL     1       4.413   5.034  16.839  0.00  0.00    +0.000 A 
ATOM     23 CL   UNL     1       5.383   3.907  15.962  0.00  0.00    +0.000 Cl
ATOM     24  C   UNL     1       3.241   4.666  17.507  0.00  0.00    +0.000 A 
ATOM     25 CL   UNL     1       2.675   3.031  17.537  0.00  0.00    +0.000 Cl
ATOM     26  C   UNL     1       2.467   5.635  18.164  0.00  0.00    +0.000 A 
ENDBRANCH   9  19
BRANCH   1  27
ATOM     27  S   UNL     1      -3.157  14.170  21.793  0.00  0.00    +0.000 S 
ATOM     28  O   UNL     1      -4.205  13.840  22.727  0.00  0.00    +0.000 OA
ATOM     29  O   UNL     1      -3.152  15.422  21.077  0.00  0.00    +0.000 OA
BRANCH  27  30
ATOM     30  N   UNL     1      -1.745  14.159  22.675  0.00  0.00    +0.000 NA
ATOM     31  H   UNL     1      -0.992  13.875  22.048  0.00  0.00    +0.000 HD
ATOM     32  H   UNL     1      -1.833  13.485  23.439  0.00  0.00    +0.000 HD
ENDBRANCH  27  30
ENDBRANCH   1  27
TORSDOF 3
ENDMDL
MODEL 6
REMARK VINA RESULT:      -7.1      5.043      9.916
REMARK  Name = 
REMARK  3 active torsions:
REMARK  status: ('A' for Active; 'I' for Inactive)
REMARK    1  A    between atoms: N_1  and  S_2
REMARK    2  A    between atoms: S_2  and  N_5
REMARK    3  A    between atoms: N_13  and  C_14
REMARK                            x       y       z     vdW  Elec       q    Type
REMARK                         _______ _______ _______ _____ _____    ______ ____
ROOT
ATOM      1  N   UNL     1      -1.723  13.992  21.508  0.00  0.00    +0.000 N 
ATOM      2  C   UNL     1      -0.517  13.287  21.006  0.00  0.00    +0.000 C 
ATOM      3  C   UNL     1      -1.036  12.156  20.056  0.00  0.00    +0.000 C 
ATOM      4  C   UNL     1      -0.801  10.751  20.663  0.00  0.00    +0.000 C 
ATOM      5  C   UNL     1       0.676  10.337  20.627  0.00  0.00    +0.000 C 
ATOM      6  N   UNL     1       1.212  10.470  19.274  0.00  0.00    +0.000 N 
ATOM      7  C   UNL     1       1.860   9.513  18.497  0.00  0.00    +0.000 C 
ATOM      8  O   UNL     1       2.330   9.816  17.401  0.00  0.00    +0.000 OA
ATOM      9  N   UNL     1       1.905   8.232  19.012  0.00  0.00    +0.000 N 
ATOM     10  C   UNL     1       1.093  11.817  18.713  0.00  0.00    +0.000 C 
ATOM     11  C   UNL     1      -0.372  12.243  18.666  0.00  0.00    +0.000 C 
ATOM     12  C   UNL     1      -2.515  12.487  19.962  0.00  0.00    +0.000 A 
ATOM     13  C   UNL     1      -3.493  11.814  19.235  0.00  0.00    +0.000 A 
ATOM     14  C   UNL     1      -4.813  12.262  19.305  0.00  0.00    +0.000 A 
ATOM     15  C   UNL     1      -5.142  13.373  20.089  0.00  0.00    +0.000 A 
ATOM     16  C   UNL     1      -4.158  14.039  20.827  0.00  0.00    +0.000 A 
ATOM     17  C   UNL     1      -2.851  13.592  20.750  0.00  0.00    +0.000 A 
ATOM     18  H   UNL     1       1.261   8.020  19.752  0.00  0.00    +0.000 HD
ENDROOT
BRANCH   9  19
ATOM     19  C   UNL     1       2.498   7.113  18.373  0.00  0.00    +0.000 A 
ATOM     20  C   UNL     1       1.927   5.837  18.363  0.00  0.00    +0.000 A 
ATOM     21  C   UNL     1       2.609   4.745  17.817  0.00  0.00    +0.000 A 
ATOM     22  C   UNL     1       3.871   4.917  17.255  0.00  0.00    +0.000 A 
ATOM     23 CL   UNL     1       4.684   3.517  16.656  0.00  0.00    +0.000 Cl
ATOM     24  C   UNL     1       4.428   6.198  17.201  0.00  0.00    +0.000 A 
ATOM     25 CL   UNL     1       5.981   6.496  16.498  0.00  0.00    +0.000 Cl
ATOM     26  C   UNL     1       3.740   7.293  17.747  0.00  0.00    +0.000 A 
ENDBRANCH   9  19
BRANCH   1  27
ATOM     27  S   UNL     1      -1.554  15.407  22.347  0.00  0.00    +0.000 S 
ATOM     28  O   UNL     1      -2.529  15.446  23.409  0.00  0.00    +0.000 OA
ATOM     29  O   UNL     1      -1.358  16.528  21.461  0.00  0.00    +0.000 OA
BRANCH  27  30
ATOM     30  N   UNL     1      -0.083  15.169  23.092  0.00  0.00    +0.000 NA
ATOM     31  H   UNL     1      -0.233  14.527  23.870  0.00  0.00    +0.000 HD
ATOM     32  H   UNL     1       0.262  16.065  23.443  0.00  0.00    +0.000 HD
ENDBRANCH  27  30
ENDBRANCH   1  27
TORSDOF 3
ENDMDL
MODEL 7
REMARK VINA RESULT:      -7.1      5.243     10.224
REMARK  Name = 
REMARK  3 active torsions:
REMARK  status: ('A' for Active; 'I' for Inactive)
REMARK    1  A    between atoms: N_1  and  S_2
REMARK    2  A    between atoms: S_2  and  N_5
REMARK    3  A    between atoms: N_13  and  C_14
REMARK                            x       y       z     vdW  Elec       q    Type
REMARK                         _______ _______ _______ _____ _____    ______ ____
ROOT
ATOM      1  N   UNL     1      -1.668  15.207  21.217  0.00  0.00    +0.000 N 
ATOM      2  C   UNL     1      -1.018  14.318  20.223  0.00  0.00    +0.000 C 
ATOM      3  C   UNL     1      -1.200  12.858  20.759  0.00  0.00    +0.000 C 
ATOM      4  C   UNL     1       0.150  12.247  21.211  0.00  0.00    +0.000 C 
ATOM      5  C   UNL     1       1.054  11.881  20.027  0.00  0.00    +0.000 C 
ATOM      6  N   UNL     1       0.336  11.035  19.077  0.00  0.00    +0.000 N 
ATOM      7  C   UNL     1       0.700   9.788  18.574  0.00  0.00    +0.000 C 
ATOM      8  O   UNL     1       0.016   9.243  17.707  0.00  0.00    +0.000 OA
ATOM      9  N   UNL     1       1.826   9.209  19.125  0.00  0.00    +0.000 N 
ATOM     10  C   UNL     1      -0.895  11.632  18.555  0.00  0.00    +0.000 C 
ATOM     11  C   UNL     1      -1.855  11.949  19.698  0.00  0.00    +0.000 C 
ATOM     12  C   UNL     1      -2.140  13.074  21.931  0.00  0.00    +0.000 A 
ATOM     13  C   UNL     1      -2.661  12.112  22.792  0.00  0.00    +0.000 A 
ATOM     14  C   UNL     1      -3.491  12.522  23.836  0.00  0.00    +0.000 A 
ATOM     15  C   UNL     1      -3.797  13.877  24.007  0.00  0.00    +0.000 A 
ATOM     16  C   UNL     1      -3.262  14.841  23.147  0.00  0.00    +0.000 A 
ATOM     17  C   UNL     1      -2.442  14.427  22.111  0.00  0.00    +0.000 A 
ATOM     18  H   UNL     1       2.142   9.581  20.003  0.00  0.00    +0.000 HD
ENDROOT
BRANCH   9  19
ATOM     19  C   UNL     1       2.353   7.941  18.769  0.00  0.00    +0.000 A 
ATOM     20  C   UNL     1       2.067   6.762  19.464  0.00  0.00    +0.000 A 
ATOM     21  C   UNL     1       2.703   5.560  19.140  0.00  0.00    +0.000 A 
ATOM     22  C   UNL     1       3.626   5.514  18.098  0.00  0.00    +0.000 A 
ATOM     23 CL   UNL     1       4.422   4.014  17.791  0.00  0.00    +0.000 Cl
ATOM     24  C   UNL     1       3.876   6.671  17.353  0.00  0.00    +0.000 A 
ATOM     25 CL   UNL     1       4.991   6.689  16.030  0.00  0.00    +0.000 Cl
ATOM     26  C   UNL     1       3.233   7.876  17.679  0.00  0.00    +0.000 A 
ENDBRANCH   9  19
BRANCH   1  27
ATOM     27  S   UNL     1      -1.891  16.807  20.862  0.00  0.00    +0.000 S 
ATOM     28  O   UNL     1      -0.822  17.575  21.451  0.00  0.00    +0.000 OA
ATOM     29  O   UNL     1      -3.271  17.196  21.013  0.00  0.00    +0.000 OA
BRANCH  27  30
ATOM     30  N   UNL     1      -1.605  16.819  19.221  0.00  0.00    +0.000 NA
ATOM     31  H   UNL     1      -1.232  17.737  18.980  0.00  0.00    +0.000 HD
ATOM     32  H   UNL     1      -2.486  16.661  18.727  0.00  0.00    +0.000 HD
ENDBRANCH  27  30
ENDBRANCH   1  27
TORSDOF 3
ENDMDL
MODEL 8
REMARK VINA RESULT:      -7.0      8.057      9.248
REMARK  Name = 
REMARK  3 active torsions:
REMARK  status: ('A' for Active; 'I' for Inactive)
REMARK    1  A    between atoms: N_1  and  S_2
REMARK    2  A    between atoms: S_2  and  N_5
REMARK    3  A    between atoms: N_13  and  C_14
REMARK                            x       y       z     vdW  Elec       q    Type
REMARK                         _______ _______ _______ _____ _____    ______ ____
ROOT
ATOM      1  N   UNL     1      10.117  15.623  17.860  0.00  0.00    +0.000 N 
ATOM      2  C   UNL     1       8.766  15.919  18.398  0.00  0.00    +0.000 C 
ATOM      3  C   UNL     1       8.072  14.534  18.624  0.00  0.00    +0.000 C 
ATOM      4  C   UNL     1       6.907  14.313  17.628  0.00  0.00    +0.000 C 
ATOM      5  C   UNL     1       5.681  15.173  17.959  0.00  0.00    +0.000 C 
ATOM      6  N   UNL     1       5.283  14.980  19.352  0.00  0.00    +0.000 N 
ATOM      7  C   UNL     1       4.038  14.615  19.859  0.00  0.00    +0.000 C 
ATOM      8  O   UNL     1       3.847  14.580  21.074  0.00  0.00    +0.000 OA
ATOM      9  N   UNL     1       3.075  14.271  18.931  0.00  0.00    +0.000 N 
ATOM     10  C   UNL     1       6.337  15.280  20.323  0.00  0.00    +0.000 C 
ATOM     11  C   UNL     1       7.555  14.396  20.071  0.00  0.00    +0.000 C 
ATOM     12  C   UNL     1       9.218  13.570  18.372  0.00  0.00    +0.000 A 
ATOM     13  C   UNL     1       9.190  12.180  18.438  0.00  0.00    +0.000 A 
ATOM     14  C   UNL     1      10.352  11.468  18.138  0.00  0.00    +0.000 A 
ATOM     15  C   UNL     1      11.525  12.145  17.784  0.00  0.00    +0.000 A 
ATOM     16  C   UNL     1      11.545  13.541  17.708  0.00  0.00    +0.000 A 
ATOM     17  C   UNL     1      10.390  14.241  18.011  0.00  0.00    +0.000 A 
ATOM     18  H   UNL     1       3.397  14.053  18.005  0.00  0.00    +0.000 HD
ENDROOT
BRANCH   9  19
ATOM     19  C   UNL     1       1.754  13.853  19.238  0.00  0.00    +0.000 A 
ATOM     20  C   UNL     1       1.319  12.528  19.135  0.00  0.00    +0.000 A 
ATOM     21  C   UNL     1      -0.022  12.190  19.340  0.00  0.00    +0.000 A 
ATOM     22  C   UNL     1      -0.950  13.175  19.669  0.00  0.00    +0.000 A 
ATOM     23 CL   UNL     1      -2.600  12.700  19.846  0.00  0.00    +0.000 Cl
ATOM     24  C   UNL     1      -0.519  14.494  19.838  0.00  0.00    +0.000 A 
ATOM     25 CL   UNL     1      -1.607  15.769  20.268  0.00  0.00    +0.000 Cl
ATOM     26  C   UNL     1       0.829  14.830  19.634  0.00  0.00    +0.000 A 
ENDBRANCH   9  19
BRANCH   1  27
ATOM     27  S   UNL     1      11.232  16.838  17.731  0.00  0.00    +0.000 S 
ATOM     28  O   UNL     1      12.208  16.479  16.732  0.00  0.00    +0.000 OA
ATOM     29  O   UNL     1      11.626  17.334  19.026  0.00  0.00    +0.000 OA
BRANCH  27  30
ATOM     30  N   UNL     1      10.314  18.050  17.053  0.00  0.00    +0.000 NA
ATOM     31  H   UNL     1       9.359  17.702  16.966  0.00  0.00    +0.000 HD
ATOM     32  H   UNL     1      10.688  18.274  16.128  0.00  0.00    +0.000 HD
ENDBRANCH  27  30
ENDBRANCH   1  27
TORSDOF 3
ENDMDL
MODEL 9
REMARK VINA RESULT:      -7.0      5.067     10.120
REMARK  Name = 
REMARK  3 active torsions:
REMARK  status: ('A' for Active; 'I' for Inactive)
REMARK    1  A    between atoms: N_1  and  S_2
REMARK    2  A    between atoms: S_2  and  N_5
REMARK    3  A    between atoms: N_13  and  C_14
REMARK                            x       y       z     vdW  Elec       q    Type
REMARK                         _______ _______ _______ _____ _____    ______ ____
ROOT
ATOM      1  N   UNL     1      -2.473  13.625  20.617  0.00  0.00    +0.000 N 
ATOM      2  C   UNL     1      -1.998  12.219  20.614  0.00  0.00    +0.000 C 
ATOM      3  C   UNL     1      -0.492  12.268  20.187  0.00  0.00    +0.000 C 
ATOM      4  C   UNL     1      -0.280  11.651  18.782  0.00  0.00    +0.000 C 
ATOM      5  C   UNL     1      -0.405  10.122  18.788  0.00  0.00    +0.000 C 
ATOM      6  N   UNL     1       0.471   9.541  19.802  0.00  0.00    +0.000 N 
ATOM      7  C   UNL     1       1.446   8.558  19.651  0.00  0.00    +0.000 C 
ATOM      8  O   UNL     1       2.041   8.116  20.633  0.00  0.00    +0.000 OA
ATOM      9  N   UNL     1       1.713   8.154  18.358  0.00  0.00    +0.000 N 
ATOM     10  C   UNL     1       0.223  10.033  21.159  0.00  0.00    +0.000 C 
ATOM     11  C   UNL     1       0.405  11.547  21.215  0.00  0.00    +0.000 C 
ATOM     12  C   UNL     1      -0.218  13.761  20.194  0.00  0.00    +0.000 A 
ATOM     13  C   UNL     1       0.979  14.407  19.895  0.00  0.00    +0.000 A 
ATOM     14  C   UNL     1       1.017  15.802  19.929  0.00  0.00    +0.000 A 
ATOM     15  C   UNL     1      -0.128  16.534  20.263  0.00  0.00    +0.000 A 
ATOM     16  C   UNL     1      -1.331  15.880  20.550  0.00  0.00    +0.000 A 
ATOM     17  C   UNL     1      -1.361  14.497  20.519  0.00  0.00    +0.000 A 
ATOM     18  H   UNL     1       1.399   8.759  17.621  0.00  0.00    +0.000 HD
ENDROOT
BRANCH   9  19
ATOM     19  C   UNL     1       2.679   7.182  17.987  0.00  0.00    +0.000 A 
ATOM     20  C   UNL     1       3.946   7.503  17.490  0.00  0.00    +0.000 A 
ATOM     21  C   UNL     1       4.815   6.508  17.033  0.00  0.00    +0.000 A 
ATOM     22  C   UNL     1       4.436   5.169  17.082  0.00  0.00    +0.000 A 
ATOM     23 CL   UNL     1       5.530   3.998  16.443  0.00  0.00    +0.000 Cl
ATOM     24  C   UNL     1       3.197   4.828  17.634  0.00  0.00    +0.000 A 
ATOM     25 CL   UNL     1       2.664   3.186  17.750  0.00  0.00    +0.000 Cl
ATOM     26  C   UNL     1       2.328   5.829  18.095  0.00  0.00    +0.000 A 
ENDBRANCH   9  19
BRANCH   1  27
ATOM     27  S   UNL     1      -3.954  13.987  21.258  0.00  0.00    +0.000 S 
ATOM     28  O   UNL     1      -3.779  14.889  22.370  0.00  0.00    +0.000 OA
ATOM     29  O   UNL     1      -4.787  12.815  21.361  0.00  0.00    +0.000 OA
BRANCH  27  30
ATOM     30  N   UNL     1      -4.622  14.900  20.037  0.00  0.00    +0.000 NA
ATOM     31  H   UNL     1      -5.619  14.995  20.232  0.00  0.00    +0.000 HD
ATOM     32  H   UNL     1      -4.487  14.416  19.146  0.00  0.00    +0.000 HD
ENDBRANCH  27  30
ENDBRANCH   1  27
TORSDOF 3
ENDMDL
