MODEL 1
REMARK VINA RESULT:      -8.1      0.000      0.000
REMARK  Name = 
REMARK  11 active torsions:
REMARK  status: ('A' for Active; 'I' for Inactive)
REMARK    1  A    between atoms: C_1  and  C_2
REMARK    2  A    between atoms: C_2  and  C_3
REMARK    3  A    between atoms: C_2  and  C_4
REMARK    4  A    between atoms: C_2  and  C_5
REMARK    5  A    between atoms: C_5  and  C_6
REMARK    6  A    between atoms: C_6  and  O_7
REMARK    7  A    between atoms: C_6  and  C_8
REMARK    8  A    between atoms: C_11  and  C_12
REMARK    9  A    between atoms: N_14  and  C_15
REMARK   10  A    between atoms: C_15  and  C_16
REMARK   11  A    between atoms: C_22  and  N_23
REMARK                            x       y       z     vdW  Elec       q    Type
REMARK                         _______ _______ _______ _____ _____    ______ ____
ROOT
ATOM      1  C   UNL     1       4.614   2.832  19.575  0.00  0.00    +0.000 C 
ATOM      2  O   UNL     1       5.348   2.391  20.467  0.00  0.00    +0.000 OA
ATOM      3  N   UNL     1       5.249   3.299  18.458  0.00  0.00    +0.000 N 
ATOM      4  H   UNL     1       6.226   3.013  18.463  0.00  0.00    +0.000 HD
ENDROOT
BRANCH   1   8
ATOM      5  C   UNL     1       2.837   5.708  19.588  0.00  0.00    +0.000 C 
ATOM      6  O   UNL     1       3.961   6.001  19.178  0.00  0.00    +0.000 OA
ATOM      7  N   UNL     1       2.365   4.413  19.720  0.00  0.00    +0.000 N 
ATOM      8  C   UNL     1       3.111   3.105  19.817  0.00  0.00    +0.000 C 
ATOM      9  C   UNL     1       2.281   2.093  18.961  0.00  0.00    +0.000 C 
ATOM     10  C   UNL     1       0.932   2.717  18.788  0.00  0.00    +0.000 C 
ATOM     11  C   UNL     1       0.738   3.869  17.837  0.00  0.00    +0.000 C 
ATOM     12  C   UNL     1       1.021   4.120  19.287  0.00  0.00    +0.000 C 
BRANCH   5  13
ATOM     13  C   UNL     1       1.818   6.853  19.774  0.00  0.00    +0.000 C 
BRANCH  13  14
ATOM     14  O   UNL     1       2.131   7.630  18.612  0.00  0.00    +0.000 OA
ATOM     15  H   UNL     1       2.587   8.425  18.960  0.00  0.00    +0.000 HD
ENDBRANCH  13  14
BRANCH  13  16
ATOM     16  C   UNL     1       2.004   7.715  21.052  0.00  0.00    +0.000 C 
BRANCH  16  18
ATOM     17  C   UNL     1      -0.502   8.030  21.363  0.00  0.00    +0.000 C 
ATOM     18  C   UNL     1       0.867   8.731  21.373  0.00  0.00    +0.000 C 
ATOM     19  C   UNL     1       0.884   9.894  20.375  0.00  0.00    +0.000 C 
ATOM     20  C   UNL     1       1.083   9.325  22.784  0.00  0.00    +0.000 C 
ENDBRANCH  16  18
ENDBRANCH  13  16
ENDBRANCH   5  13
ENDBRANCH   1   8
BRANCH   3  21
ATOM     21  C   UNL     1       4.698   3.791  17.212  0.00  0.00    +0.000 C 
BRANCH  21  22
ATOM     22  C   UNL     1       5.704   3.984  16.097  0.00  0.00    +0.000 A 
ATOM     23  C   UNL     1       5.413   3.440  14.831  0.00  0.00    +0.000 A 
ATOM     24  C   UNL     1       6.103   3.826  13.677  0.00  0.00    +0.000 A 
ATOM     25 CL   UNL     1       5.613   3.278  12.124  0.00  0.00    +0.000 Cl
ATOM     26  C   UNL     1       7.161   4.709  13.772  0.00  0.00    +0.000 A 
ATOM     27  C   UNL     1       7.543   5.176  15.028  0.00  0.00    +0.000 A 
ATOM     28  C   UNL     1       6.847   4.796  16.200  0.00  0.00    +0.000 A 
BRANCH  28  29
ATOM     29  N   UNL     1       7.321   5.276  17.436  0.00  0.00    +0.000 N 
ATOM     30  C   UNL     1       7.295   6.546  17.957  0.00  0.00    +0.000 A 
ATOM     31  N   UNL     1       7.957   6.562  19.087  0.00  0.00    +0.000 NA
ATOM     32  N   UNL     1       8.326   5.268  19.329  0.00  0.00    +0.000 NA
ATOM     33  N   UNL     1       7.900   4.466  18.349  0.00  0.00    +0.000 NA
ENDBRANCH  28  29
ENDBRANCH  21  22
ENDBRANCH   3  21
TORSDOF 8
ENDMDL
MODEL 2
REMARK VINA RESULT:      -7.3      2.769      7.574
REMARK  Name = 
REMARK  11 active torsions:
REMARK  status: ('A' for Active; 'I' for Inactive)
REMARK    1  A    between atoms: C_1  and  C_2
REMARK    2  A    between atoms: C_2  and  C_3
REMARK    3  A    between atoms: C_2  and  C_4
REMARK    4  A    between atoms: C_2  and  C_5
REMARK    5  A    between atoms: C_5  and  C_6
REMARK    6  A    between atoms: C_6  and  O_7
REMARK    7  A    between atoms: C_6  and  C_8
REMARK    8  A    between atoms: C_11  and  C_12
REMARK    9  A    between atoms: N_14  and  C_15
REMARK   10  A    between atoms: C_15  and  C_16
REMARK   11  A    between atoms: C_22  and  N_23
REMARK                            x       y       z     vdW  Elec       q    Type
REMARK                         _______ _______ _______ _____ _____    ______ ____
ROOT
ATOM      1  C   UNL     1       4.752   3.562  19.197  0.00  0.00    +0.000 C 
ATOM      2  O   UNL     1       4.819   2.548  19.901  0.00  0.00    +0.000 OA
ATOM      3  N   UNL     1       3.495   3.951  18.830  0.00  0.00    +0.000 N 
ATOM      4  H   UNL     1       2.798   3.448  19.376  0.00  0.00    +0.000 HD
ENDROOT
BRANCH   1   8
ATOM      5  C   UNL     1       5.570   4.037  15.951  0.00  0.00    +0.000 C 
ATOM      6  O   UNL     1       4.396   3.665  15.958  0.00  0.00    +0.000 OA
ATOM      7  N   UNL     1       6.270   4.444  17.075  0.00  0.00    +0.000 N 
ATOM      8  C   UNL     1       6.008   4.182  18.538  0.00  0.00    +0.000 C 
ATOM      9  C   UNL     1       6.333   5.528  19.263  0.00  0.00    +0.000 C 
ATOM     10  C   UNL     1       7.150   6.325  18.295  0.00  0.00    +0.000 C 
ATOM     11  C   UNL     1       6.500   6.980  17.104  0.00  0.00    +0.000 C 
ATOM     12  C   UNL     1       7.106   5.615  16.983  0.00  0.00    +0.000 C 
BRANCH   5  13
ATOM     13  C   UNL     1       6.246   4.262  14.581  0.00  0.00    +0.000 C 
BRANCH  13  14
ATOM     14  O   UNL     1       5.393   5.293  14.070  0.00  0.00    +0.000 OA
ATOM     15  H   UNL     1       5.869   5.648  13.291  0.00  0.00    +0.000 HD
ENDBRANCH  13  14
BRANCH  13  16
ATOM     16  C   UNL     1       6.233   3.042  13.620  0.00  0.00    +0.000 C 
BRANCH  16  18
ATOM     17  C   UNL     1       6.924   2.153  11.337  0.00  0.00    +0.000 C 
ATOM     18  C   UNL     1       6.347   3.359  12.099  0.00  0.00    +0.000 C 
ATOM     19  C   UNL     1       7.211   4.605  11.869  0.00  0.00    +0.000 C 
ATOM     20  C   UNL     1       4.944   3.653  11.522  0.00  0.00    +0.000 C 
ENDBRANCH  16  18
ENDBRANCH  13  16
ENDBRANCH   5  13
ENDBRANCH   1   8
BRANCH   3  21
ATOM     21  C   UNL     1       3.059   5.122  18.098  0.00  0.00    +0.000 C 
BRANCH  21  22
ATOM     22  C   UNL     1       2.558   6.266  18.954  0.00  0.00    +0.000 A 
ATOM     23  C   UNL     1       2.684   7.579  18.459  0.00  0.00    +0.000 A 
ATOM     24  C   UNL     1       1.981   8.654  19.011  0.00  0.00    +0.000 A 
ATOM     25 CL   UNL     1       2.019  10.209  18.281  0.00  0.00    +0.000 Cl
ATOM     26  C   UNL     1       1.191   8.458  20.128  0.00  0.00    +0.000 A 
ATOM     27  C   UNL     1       1.137   7.192  20.707  0.00  0.00    +0.000 A 
ATOM     28  C   UNL     1       1.840   6.097  20.152  0.00  0.00    +0.000 A 
BRANCH  28  29
ATOM     29  N   UNL     1       1.770   4.859  20.819  0.00  0.00    +0.000 N 
ATOM     30  C   UNL     1       2.486   4.396  21.895  0.00  0.00    +0.000 A 
ATOM     31  N   UNL     1       2.179   3.141  22.109  0.00  0.00    +0.000 NA
ATOM     32  N   UNL     1       1.190   2.834  21.216  0.00  0.00    +0.000 NA
ATOM     33  N   UNL     1       0.899   3.893  20.455  0.00  0.00    +0.000 NA
ENDBRANCH  28  29
ENDBRANCH  21  22
ENDBRANCH   3  21
TORSDOF 8
ENDMDL
MODEL 3
REMARK VINA RESULT:      -7.3      2.721      7.610
REMARK  Name = 
REMARK  11 active torsions:
REMARK  status: ('A' for Active; 'I' for Inactive)
REMARK    1  A    between atoms: C_1  and  C_2
REMARK    2  A    between atoms: C_2  and  C_3
REMARK    3  A    between atoms: C_2  and  C_4
REMARK    4  A    between atoms: C_2  and  C_5
REMARK    5  A    between atoms: C_5  and  C_6
REMARK    6  A    between atoms: C_6  and  O_7
REMARK    7  A    between atoms: C_6  and  C_8
REMARK    8  A    between atoms: C_11  and  C_12
REMARK    9  A    between atoms: N_14  and  C_15
REMARK   10  A    between atoms: C_15  and  C_16
REMARK   11  A    between atoms: C_22  and  N_23
REMARK                            x       y       z     vdW  Elec       q    Type
REMARK                         _______ _______ _______ _____ _____    ______ ____
ROOT
ATOM      1  C   UNL     1       4.793   3.525  19.173  0.00  0.00    +0.000 C 
ATOM      2  O   UNL     1       4.869   2.494  19.851  0.00  0.00    +0.000 OA
ATOM      3  N   UNL     1       3.531   3.916  18.825  0.00  0.00    +0.000 N 
ATOM      4  H   UNL     1       2.840   3.397  19.363  0.00  0.00    +0.000 HD
ENDROOT
BRANCH   1   8
ATOM      5  C   UNL     1       5.613   4.026  15.932  0.00  0.00    +0.000 C 
ATOM      6  O   UNL     1       4.445   3.636  15.934  0.00  0.00    +0.000 OA
ATOM      7  N   UNL     1       6.303   4.439  17.060  0.00  0.00    +0.000 N 
ATOM      8  C   UNL     1       6.040   4.167  18.520  0.00  0.00    +0.000 C 
ATOM      9  C   UNL     1       6.342   5.516  19.252  0.00  0.00    +0.000 C 
ATOM     10  C   UNL     1       7.149   6.329  18.289  0.00  0.00    +0.000 C 
ATOM     11  C   UNL     1       6.493   6.979  17.099  0.00  0.00    +0.000 C 
ATOM     12  C   UNL     1       7.121   5.624  16.975  0.00  0.00    +0.000 C 
BRANCH   5  13
ATOM     13  C   UNL     1       6.290   4.268  14.565  0.00  0.00    +0.000 C 
BRANCH  13  14
ATOM     14  O   UNL     1       5.440   5.308  14.068  0.00  0.00    +0.000 OA
ATOM     15  H   UNL     1       5.861   6.140  14.369  0.00  0.00    +0.000 HD
ENDBRANCH  13  14
BRANCH  13  16
ATOM     16  C   UNL     1       6.273   3.061  13.587  0.00  0.00    +0.000 C 
BRANCH  16  18
ATOM     17  C   UNL     1       7.213   4.638  11.825  0.00  0.00    +0.000 C 
ATOM     18  C   UNL     1       6.333   3.400  12.068  0.00  0.00    +0.000 C 
ATOM     19  C   UNL     1       4.923   3.623  11.507  0.00  0.00    +0.000 C 
ATOM     20  C   UNL     1       6.960   2.218  11.295  0.00  0.00    +0.000 C 
ENDBRANCH  16  18
ENDBRANCH  13  16
ENDBRANCH   5  13
ENDBRANCH   1   8
BRANCH   3  21
ATOM     21  C   UNL     1       3.084   5.103  18.124  0.00  0.00    +0.000 C 
BRANCH  21  22
ATOM     22  C   UNL     1       2.551   6.210  19.011  0.00  0.00    +0.000 A 
ATOM     23  C   UNL     1       2.648   7.539  18.554  0.00  0.00    +0.000 A 
ATOM     24  C   UNL     1       1.916   8.581  19.132  0.00  0.00    +0.000 A 
ATOM     25 CL   UNL     1       1.920  10.157  18.446  0.00  0.00    +0.000 Cl
ATOM     26  C   UNL     1       1.126   8.334  20.239  0.00  0.00    +0.000 A 
ATOM     27  C   UNL     1       1.100   7.051  20.781  0.00  0.00    +0.000 A 
ATOM     28  C   UNL     1       1.832   5.990  20.199  0.00  0.00    +0.000 A 
BRANCH  28  29
ATOM     29  N   UNL     1       1.789   4.732  20.830  0.00  0.00    +0.000 N 
ATOM     30  C   UNL     1       0.934   3.676  20.634  0.00  0.00    +0.000 A 
ATOM     31  N   UNL     1       1.182   2.748  21.525  0.00  0.00    +0.000 NA
ATOM     32  N   UNL     1       2.267   3.184  22.235  0.00  0.00    +0.000 NA
ATOM     33  N   UNL     1       2.675   4.374  21.785  0.00  0.00    +0.000 NA
ENDBRANCH  28  29
ENDBRANCH  21  22
ENDBRANCH   3  21
TORSDOF 8
ENDMDL
MODEL 4
REMARK VINA RESULT:      -7.2      3.937      6.444
REMARK  Name = 
REMARK  11 active torsions:
REMARK  status: ('A' for Active; 'I' for Inactive)
REMARK    1  A    between atoms: C_1  and  C_2
REMARK    2  A    between atoms: C_2  and  C_3
REMARK    3  A    between atoms: C_2  and  C_4
REMARK    4  A    between atoms: C_2  and  C_5
REMARK    5  A    between atoms: C_5  and  C_6
REMARK    6  A    between atoms: C_6  and  O_7
REMARK    7  A    between atoms: C_6  and  C_8
REMARK    8  A    between atoms: C_11  and  C_12
REMARK    9  A    between atoms: N_14  and  C_15
REMARK   10  A    between atoms: C_15  and  C_16
REMARK   11  A    between atoms: C_22  and  N_23
REMARK                            x       y       z     vdW  Elec       q    Type
REMARK                         _______ _______ _______ _____ _____    ______ ____
ROOT
ATOM      1  C   UNL     1       2.042   9.872  17.982  0.00  0.00    +0.000 C 
ATOM      2  O   UNL     1       2.494  10.820  17.330  0.00  0.00    +0.000 OA
ATOM      3  N   UNL     1       2.630   8.660  17.755  0.00  0.00    +0.000 N 
ATOM      4  H   UNL     1       3.492   8.779  17.228  0.00  0.00    +0.000 HD
ENDROOT
BRANCH   1   8
ATOM      5  C   UNL     1       0.897  12.260  20.084  0.00  0.00    +0.000 C 
ATOM      6  O   UNL     1       1.923  12.713  19.575  0.00  0.00    +0.000 OA
ATOM      7  N   UNL     1       0.234  11.130  19.635  0.00  0.00    +0.000 N 
ATOM      8  C   UNL     1       0.720   9.986  18.779  0.00  0.00    +0.000 C 
ATOM      9  C   UNL     1      -0.468   9.658  17.816  0.00  0.00    +0.000 C 
ATOM     10  C   UNL     1      -1.675  10.294  18.429  0.00  0.00    +0.000 C 
ATOM     11  C   UNL     1      -1.871  11.787  18.361  0.00  0.00    +0.000 C 
ATOM     12  C   UNL     1      -1.205  11.161  19.548  0.00  0.00    +0.000 C 
BRANCH   5  13
ATOM     13  C   UNL     1       0.187  13.113  21.157  0.00  0.00    +0.000 C 
BRANCH  13  14
ATOM     14  O   UNL     1       1.334  13.728  21.757  0.00  0.00    +0.000 OA
ATOM     15  H   UNL     1       1.264  14.675  21.515  0.00  0.00    +0.000 HD
ENDBRANCH  13  14
BRANCH  13  16
ATOM     16  C   UNL     1      -0.605  12.317  22.230  0.00  0.00    +0.000 C 
BRANCH  16  18
ATOM     17  C   UNL     1      -2.796  11.974  23.479  0.00  0.00    +0.000 C 
ATOM     18  C   UNL     1      -1.877  13.008  22.806  0.00  0.00    +0.000 C 
ATOM     19  C   UNL     1      -2.630  13.760  21.702  0.00  0.00    +0.000 C 
ATOM     20  C   UNL     1      -1.467  14.043  23.878  0.00  0.00    +0.000 C 
ENDBRANCH  16  18
ENDBRANCH  13  16
ENDBRANCH   5  13
ENDBRANCH   1   8
BRANCH   3  21
ATOM     21  C   UNL     1       2.409   7.383  18.402  0.00  0.00    +0.000 C 
BRANCH  21  22
ATOM     22  C   UNL     1       3.550   6.394  18.278  0.00  0.00    +0.000 A 
ATOM     23  C   UNL     1       4.739   6.819  17.654  0.00  0.00    +0.000 A 
ATOM     24  C   UNL     1       5.937   6.107  17.772  0.00  0.00    +0.000 A 
ATOM     25 CL   UNL     1       7.409   6.737  17.147  0.00  0.00    +0.000 Cl
ATOM     26  C   UNL     1       5.959   4.905  18.452  0.00  0.00    +0.000 A 
ATOM     27  C   UNL     1       4.772   4.405  18.983  0.00  0.00    +0.000 A 
ATOM     28  C   UNL     1       3.556   5.121  18.874  0.00  0.00    +0.000 A 
BRANCH  28  29
ATOM     29  N   UNL     1       2.391   4.529  19.399  0.00  0.00    +0.000 N 
ATOM     30  C   UNL     1       1.788   4.702  20.620  0.00  0.00    +0.000 A 
ATOM     31  N   UNL     1       0.790   3.860  20.731  0.00  0.00    +0.000 NA
ATOM     32  N   UNL     1       0.705   3.211  19.530  0.00  0.00    +0.000 NA
ATOM     33  N   UNL     1       1.650   3.648  18.692  0.00  0.00    +0.000 NA
ENDBRANCH  28  29
ENDBRANCH  21  22
ENDBRANCH   3  21
TORSDOF 8
ENDMDL
MODEL 5
REMARK VINA RESULT:      -7.2      3.668      6.002
REMARK  Name = 
REMARK  11 active torsions:
REMARK  status: ('A' for Active; 'I' for Inactive)
REMARK    1  A    between atoms: C_1  and  C_2
REMARK    2  A    between atoms: C_2  and  C_3
REMARK    3  A    between atoms: C_2  and  C_4
REMARK    4  A    between atoms: C_2  and  C_5
REMARK    5  A    between atoms: C_5  and  C_6
REMARK    6  A    between atoms: C_6  and  O_7
REMARK    7  A    between atoms: C_6  and  C_8
REMARK    8  A    between atoms: C_11  and  C_12
REMARK    9  A    between atoms: N_14  and  C_15
REMARK   10  A    between atoms: C_15  and  C_16
REMARK   11  A    between atoms: C_22  and  N_23
REMARK                            x       y       z     vdW  Elec       q    Type
REMARK                         _______ _______ _______ _____ _____    ______ ____
ROOT
ATOM      1  C   UNL     1       2.069   9.257  18.060  0.00  0.00    +0.000 C 
ATOM      2  O   UNL     1       2.514   9.974  17.156  0.00  0.00    +0.000 OA
ATOM      3  N   UNL     1       2.716   8.069  18.250  0.00  0.00    +0.000 N 
ATOM      4  H   UNL     1       3.598   8.062  17.742  0.00  0.00    +0.000 HD
ENDROOT
BRANCH   1   8
ATOM      5  C   UNL     1       1.031  11.832  19.991  0.00  0.00    +0.000 C 
ATOM      6  O   UNL     1       2.141  12.150  19.562  0.00  0.00    +0.000 OA
ATOM      7  N   UNL     1       0.284  10.767  19.516  0.00  0.00    +0.000 N 
ATOM      8  C   UNL     1       0.707   9.546  18.735  0.00  0.00    +0.000 C 
ATOM      9  C   UNL     1      -0.425   9.317  17.681  0.00  0.00    +0.000 C 
ATOM     10  C   UNL     1      -1.600  10.106  18.169  0.00  0.00    +0.000 C 
ATOM     11  C   UNL     1      -1.618  11.607  18.045  0.00  0.00    +0.000 C 
ATOM     12  C   UNL     1      -1.130  10.955  19.302  0.00  0.00    +0.000 C 
BRANCH   5  13
ATOM     13  C   UNL     1       0.336  12.797  20.975  0.00  0.00    +0.000 C 
BRANCH  13  14
ATOM     14  O   UNL     1       1.491  13.455  21.507  0.00  0.00    +0.000 OA
ATOM     15  H   UNL     1       1.144  14.031  22.220  0.00  0.00    +0.000 HD
ENDBRANCH  13  14
BRANCH  13  16
ATOM     16  C   UNL     1      -0.463  12.121  22.124  0.00  0.00    +0.000 C 
BRANCH  16  18
ATOM     17  C   UNL     1      -1.262  14.019  23.619  0.00  0.00    +0.000 C 
ATOM     18  C   UNL     1      -1.701  12.901  22.658  0.00  0.00    +0.000 C 
ATOM     19  C   UNL     1      -2.682  11.949  23.352  0.00  0.00    +0.000 C 
ATOM     20  C   UNL     1      -2.449  13.561  21.478  0.00  0.00    +0.000 C 
ENDBRANCH  16  18
ENDBRANCH  13  16
ENDBRANCH   5  13
ENDBRANCH   1   8
BRANCH   3  21
ATOM     21  C   UNL     1       2.516   7.052  19.262  0.00  0.00    +0.000 C 
BRANCH  21  22
ATOM     22  C   UNL     1       2.677   5.625  18.778  0.00  0.00    +0.000 A 
ATOM     23  C   UNL     1       1.686   4.685  19.123  0.00  0.00    +0.000 A 
ATOM     24  C   UNL     1       1.572   3.451  18.476  0.00  0.00    +0.000 A 
ATOM     25 CL   UNL     1       0.252   2.399  18.796  0.00  0.00    +0.000 Cl
ATOM     26  C   UNL     1       2.500   3.089  17.518  0.00  0.00    +0.000 A 
ATOM     27  C   UNL     1       3.557   3.953  17.238  0.00  0.00    +0.000 A 
ATOM     28  C   UNL     1       3.677   5.206  17.883  0.00  0.00    +0.000 A 
BRANCH  28  29
ATOM     29  N   UNL     1       4.796   6.003  17.577  0.00  0.00    +0.000 N 
ATOM     30  C   UNL     1       5.999   6.121  18.228  0.00  0.00    +0.000 A 
ATOM     31  N   UNL     1       6.704   7.070  17.664  0.00  0.00    +0.000 NA
ATOM     32  N   UNL     1       5.976   7.494  16.587  0.00  0.00    +0.000 NA
ATOM     33  N   UNL     1       4.830   6.814  16.497  0.00  0.00    +0.000 NA
ENDBRANCH  28  29
ENDBRANCH  21  22
ENDBRANCH   3  21
TORSDOF 8
ENDMDL
MODEL 6
REMARK VINA RESULT:      -7.1      3.767      6.417
REMARK  Name = 
REMARK  11 active torsions:
REMARK  status: ('A' for Active; 'I' for Inactive)
REMARK    1  A    between atoms: C_1  and  C_2
REMARK    2  A    between atoms: C_2  and  C_3
REMARK    3  A    between atoms: C_2  and  C_4
REMARK    4  A    between atoms: C_2  and  C_5
REMARK    5  A    between atoms: C_5  and  C_6
REMARK    6  A    between atoms: C_6  and  O_7
REMARK    7  A    between atoms: C_6  and  C_8
REMARK    8  A    between atoms: C_11  and  C_12
REMARK    9  A    between atoms: N_14  and  C_15
REMARK   10  A    between atoms: C_15  and  C_16
REMARK   11  A    between atoms: C_22  and  N_23
REMARK                            x       y       z     vdW  Elec       q    Type
REMARK                         _______ _______ _______ _____ _____    ______ ____
ROOT
ATOM      1  C   UNL     1       1.479   8.259  20.744  0.00  0.00    +0.000 C 
ATOM      2  O   UNL     1       1.656   8.279  21.967  0.00  0.00    +0.000 OA
ATOM      3  N   UNL     1       2.254   7.378  20.044  0.00  0.00    +0.000 N 
ATOM      4  H   UNL     1       2.711   6.728  20.681  0.00  0.00    +0.000 HD
ENDROOT
BRANCH   1   8
ATOM      5  C   UNL     1      -0.297  10.877  21.937  0.00  0.00    +0.000 C 
ATOM      6  O   UNL     1       0.314  10.409  22.900  0.00  0.00    +0.000 OA
ATOM      7  N   UNL     1      -0.044  10.549  20.616  0.00  0.00    +0.000 N 
ATOM      8  C   UNL     1       0.655   9.352  20.021  0.00  0.00    +0.000 C 
ATOM      9  C   UNL     1       1.511   9.917  18.841  0.00  0.00    +0.000 C 
ATOM     10  C   UNL     1       0.950  11.272  18.545  0.00  0.00    +0.000 C 
ATOM     11  C   UNL     1       1.227  12.433  19.465  0.00  0.00    +0.000 C 
ATOM     12  C   UNL     1      -0.012  11.607  19.635  0.00  0.00    +0.000 C 
BRANCH   5  13
ATOM     13  C   UNL     1      -1.262  12.053  22.199  0.00  0.00    +0.000 C 
BRANCH  13  14
ATOM     14  O   UNL     1      -0.307  13.058  22.560  0.00  0.00    +0.000 OA
ATOM     15  H   UNL     1       0.533  12.764  22.150  0.00  0.00    +0.000 HD
ENDBRANCH  13  14
BRANCH  13  16
ATOM     16  C   UNL     1      -2.272  11.845  23.361  0.00  0.00    +0.000 C 
BRANCH  16  18
ATOM     17  C   UNL     1      -4.469  12.402  24.519  0.00  0.00    +0.000 C 
ATOM     18  C   UNL     1      -3.514  12.785  23.376  0.00  0.00    +0.000 C 
ATOM     19  C   UNL     1      -4.242  12.740  22.028  0.00  0.00    +0.000 C 
ATOM     20  C   UNL     1      -3.059  14.244  23.610  0.00  0.00    +0.000 C 
ENDBRANCH  16  18
ENDBRANCH  13  16
ENDBRANCH   5  13
ENDBRANCH   1   8
BRANCH   3  21
ATOM     21  C   UNL     1       2.240   7.041  18.635  0.00  0.00    +0.000 C 
BRANCH  21  22
ATOM     22  C   UNL     1       3.397   6.181  18.169  0.00  0.00    +0.000 A 
ATOM     23  C   UNL     1       4.557   6.821  17.690  0.00  0.00    +0.000 A 
ATOM     24  C   UNL     1       5.773   6.146  17.543  0.00  0.00    +0.000 A 
ATOM     25 CL   UNL     1       7.211   6.988  17.123  0.00  0.00    +0.000 Cl
ATOM     26  C   UNL     1       5.841   4.789  17.794  0.00  0.00    +0.000 A 
ATOM     27  C   UNL     1       4.681   4.108  18.161  0.00  0.00    +0.000 A 
ATOM     28  C   UNL     1       3.449   4.784  18.319  0.00  0.00    +0.000 A 
BRANCH  28  29
ATOM     29  N   UNL     1       2.313   4.019  18.649  0.00  0.00    +0.000 N 
ATOM     30  C   UNL     1       1.819   3.662  19.879  0.00  0.00    +0.000 A 
ATOM     31  N   UNL     1       0.809   2.844  19.716  0.00  0.00    +0.000 NA
ATOM     32  N   UNL     1       0.604   2.756  18.367  0.00  0.00    +0.000 NA
ATOM     33  N   UNL     1       1.489   3.510  17.708  0.00  0.00    +0.000 NA
ENDBRANCH  28  29
ENDBRANCH  21  22
ENDBRANCH   3  21
TORSDOF 8
ENDMDL
MODEL 7
REMARK VINA RESULT:      -7.1      0.954      1.390
REMARK  Name = 
REMARK  11 active torsions:
REMARK  status: ('A' for Active; 'I' for Inactive)
REMARK    1  A    between atoms: C_1  and  C_2
REMARK    2  A    between atoms: C_2  and  C_3
REMARK    3  A    between atoms: C_2  and  C_4
REMARK    4  A    between atoms: C_2  and  C_5
REMARK    5  A    between atoms: C_5  and  C_6
REMARK    6  A    between atoms: C_6  and  O_7
REMARK    7  A    between atoms: C_6  and  C_8
REMARK    8  A    between atoms: C_11  and  C_12
REMARK    9  A    between atoms: N_14  and  C_15
REMARK   10  A    between atoms: C_15  and  C_16
REMARK   11  A    between atoms: C_22  and  N_23
REMARK                            x       y       z     vdW  Elec       q    Type
REMARK                         _______ _______ _______ _____ _____    ______ ____
ROOT
ATOM      1  C   UNL     1       4.584   2.746  19.458  0.00  0.00    +0.000 C 
ATOM      2  O   UNL     1       5.272   2.162  20.303  0.00  0.00    +0.000 OA
ATOM      3  N   UNL     1       5.253   3.199  18.356  0.00  0.00    +0.000 N 
ATOM      4  H   UNL     1       6.186   2.794  18.319  0.00  0.00    +0.000 HD
ENDROOT
BRANCH   1   8
ATOM      5  C   UNL     1       3.169   5.812  19.619  0.00  0.00    +0.000 C 
ATOM      6  O   UNL     1       4.310   5.983  19.185  0.00  0.00    +0.000 OA
ATOM      7  N   UNL     1       2.547   4.579  19.722  0.00  0.00    +0.000 N 
ATOM      8  C   UNL     1       3.131   3.189  19.753  0.00  0.00    +0.000 C 
ATOM      9  C   UNL     1       2.163   2.315  18.890  0.00  0.00    +0.000 C 
ATOM     10  C   UNL     1       0.896   3.103  18.777  0.00  0.00    +0.000 C 
ATOM     11  C   UNL     1       0.820   4.303  17.870  0.00  0.00    +0.000 C 
ATOM     12  C   UNL     1       1.167   4.466  19.319  0.00  0.00    +0.000 C 
BRANCH   5  13
ATOM     13  C   UNL     1       2.301   7.063  19.871  0.00  0.00    +0.000 C 
BRANCH  13  14
ATOM     14  O   UNL     1       1.306   6.484  20.723  0.00  0.00    +0.000 OA
ATOM     15  H   UNL     1       1.036   5.660  20.268  0.00  0.00    +0.000 HD
ENDBRANCH  13  14
BRANCH  13  16
ATOM     16  C   UNL     1       1.626   7.676  18.613  0.00  0.00    +0.000 C 
BRANCH  16  18
ATOM     17  C   UNL     1       1.136   9.631  20.166  0.00  0.00    +0.000 C 
ATOM     18  C   UNL     1       1.241   9.183  18.699  0.00  0.00    +0.000 C 
ATOM     19  C   UNL     1      -0.075   9.447  17.959  0.00  0.00    +0.000 C 
ATOM     20  C   UNL     1       2.335  10.039  18.022  0.00  0.00    +0.000 C 
ENDBRANCH  16  18
ENDBRANCH  13  16
ENDBRANCH   5  13
ENDBRANCH   1   8
BRANCH   3  21
ATOM     21  C   UNL     1       4.747   3.833  17.156  0.00  0.00    +0.000 C 
BRANCH  21  22
ATOM     22  C   UNL     1       5.763   4.008  16.046  0.00  0.00    +0.000 A 
ATOM     23  C   UNL     1       5.486   3.438  14.788  0.00  0.00    +0.000 A 
ATOM     24  C   UNL     1       6.184   3.805  13.633  0.00  0.00    +0.000 A 
ATOM     25 CL   UNL     1       5.711   3.223  12.087  0.00  0.00    +0.000 Cl
ATOM     26  C   UNL     1       7.237   4.695  13.720  0.00  0.00    +0.000 A 
ATOM     27  C   UNL     1       7.605   5.189  14.970  0.00  0.00    +0.000 A 
ATOM     28  C   UNL     1       6.901   4.829  16.142  0.00  0.00    +0.000 A 
BRANCH  28  29
ATOM     29  N   UNL     1       7.361   5.336  17.373  0.00  0.00    +0.000 N 
ATOM     30  C   UNL     1       7.425   6.631  17.824  0.00  0.00    +0.000 A 
ATOM     31  N   UNL     1       8.036   6.654  18.983  0.00  0.00    +0.000 NA
ATOM     32  N   UNL     1       8.278   5.348  19.311  0.00  0.00    +0.000 NA
ATOM     33  N   UNL     1       7.825   4.532  18.355  0.00  0.00    +0.000 NA
ENDBRANCH  28  29
ENDBRANCH  21  22
ENDBRANCH   3  21
TORSDOF 8
ENDMDL
MODEL 8
REMARK VINA RESULT:      -7.0      3.692      6.358
REMARK  Name = 
REMARK  11 active torsions:
REMARK  status: ('A' for Active; 'I' for Inactive)
REMARK    1  A    between atoms: C_1  and  C_2
REMARK    2  A    between atoms: C_2  and  C_3
REMARK    3  A    between atoms: C_2  and  C_4
REMARK    4  A    between atoms: C_2  and  C_5
REMARK    5  A    between atoms: C_5  and  C_6
REMARK    6  A    between atoms: C_6  and  O_7
REMARK    7  A    between atoms: C_6  and  C_8
REMARK    8  A    between atoms: C_11  and  C_12
REMARK    9  A    between atoms: N_14  and  C_15
REMARK   10  A    between atoms: C_15  and  C_16
REMARK   11  A    between atoms: C_22  and  N_23
REMARK                            x       y       z     vdW  Elec       q    Type
REMARK                         _______ _______ _______ _____ _____    ______ ____
ROOT
ATOM      1  C   UNL     1       1.486   8.180  20.790  0.00  0.00    +0.000 C 
ATOM      2  O   UNL     1       1.615   8.195  22.019  0.00  0.00    +0.000 OA
ATOM      3  N   UNL     1       2.296   7.310  20.117  0.00  0.00    +0.000 N 
ATOM      4  H   UNL     1       2.735   6.661  20.767  0.00  0.00    +0.000 HD
ENDROOT
BRANCH   1   8
ATOM      5  C   UNL     1      -0.258  10.846  21.921  0.00  0.00    +0.000 C 
ATOM      6  O   UNL     1       0.344  10.392  22.895  0.00  0.00    +0.000 OA
ATOM      7  N   UNL     1      -0.007  10.486  20.607  0.00  0.00    +0.000 N 
ATOM      8  C   UNL     1       0.678   9.267  20.041  0.00  0.00    +0.000 C 
ATOM      9  C   UNL     1       1.544   9.795  18.851  0.00  0.00    +0.000 C 
ATOM     10  C   UNL     1       1.002  11.150  18.524  0.00  0.00    +0.000 C 
ATOM     11  C   UNL     1       1.292  12.328  19.419  0.00  0.00    +0.000 C 
ATOM     12  C   UNL     1       0.042  11.522  19.604  0.00  0.00    +0.000 C 
BRANCH   5  13
ATOM     13  C   UNL     1      -1.208  12.041  22.155  0.00  0.00    +0.000 C 
BRANCH  13  14
ATOM     14  O   UNL     1      -0.239  13.047  22.472  0.00  0.00    +0.000 OA
ATOM     15  H   UNL     1      -0.764  13.800  22.815  0.00  0.00    +0.000 HD
ENDBRANCH  13  14
BRANCH  13  16
ATOM     16  C   UNL     1      -2.207  11.881  23.333  0.00  0.00    +0.000 C 
BRANCH  16  18
ATOM     17  C   UNL     1      -4.190  12.734  21.985  0.00  0.00    +0.000 C 
ATOM     18  C   UNL     1      -3.443  12.830  23.326  0.00  0.00    +0.000 C 
ATOM     19  C   UNL     1      -3.015  14.276  23.602  0.00  0.00    +0.000 C 
ATOM     20  C   UNL     1      -4.425  12.414  24.444  0.00  0.00    +0.000 C 
ENDBRANCH  16  18
ENDBRANCH  13  16
ENDBRANCH   5  13
ENDBRANCH   1   8
BRANCH   3  21
ATOM     21  C   UNL     1       2.340   6.980  18.707  0.00  0.00    +0.000 C 
BRANCH  21  22
ATOM     22  C   UNL     1       3.489   6.085  18.292  0.00  0.00    +0.000 A 
ATOM     23  C   UNL     1       4.620   6.678  17.699  0.00  0.00    +0.000 A 
ATOM     24  C   UNL     1       5.838   6.003  17.577  0.00  0.00    +0.000 A 
ATOM     25 CL   UNL     1       7.247   6.807  17.009  0.00  0.00    +0.000 Cl
ATOM     26  C   UNL     1       5.935   4.682  17.973  0.00  0.00    +0.000 A 
ATOM     27  C   UNL     1       4.801   4.036  18.460  0.00  0.00    +0.000 A 
ATOM     28  C   UNL     1       3.566   4.713  18.592  0.00  0.00    +0.000 A 
BRANCH  28  29
ATOM     29  N   UNL     1       2.455   3.979  19.050  0.00  0.00    +0.000 N 
ATOM     30  C   UNL     1       1.609   3.142  18.366  0.00  0.00    +0.000 A 
ATOM     31  N   UNL     1       0.638   2.766  19.160  0.00  0.00    +0.000 NA
ATOM     32  N   UNL     1       0.923   3.299  20.387  0.00  0.00    +0.000 NA
ATOM     33  N   UNL     1       2.058   4.002  20.341  0.00  0.00    +0.000 NA
ENDBRANCH  28  29
ENDBRANCH  21  22
ENDBRANCH   3  21
TORSDOF 8
ENDMDL
MODEL 9
REMARK VINA RESULT:      -7.0      3.219      5.478
REMARK  Name = 
REMARK  11 active torsions:
REMARK  status: ('A' for Active; 'I' for Inactive)
REMARK    1  A    between atoms: C_1  and  C_2
REMARK    2  A    between atoms: C_2  and  C_3
REMARK    3  A    between atoms: C_2  and  C_4
REMARK    4  A    between atoms: C_2  and  C_5
REMARK    5  A    between atoms: C_5  and  C_6
REMARK    6  A    between atoms: C_6  and  O_7
REMARK    7  A    between atoms: C_6  and  C_8
REMARK    8  A    between atoms: C_11  and  C_12
REMARK    9  A    between atoms: N_14  and  C_15
REMARK   10  A    between atoms: C_15  and  C_16
REMARK   11  A    between atoms: C_22  and  N_23
REMARK                            x       y       z     vdW  Elec       q    Type
REMARK                         _______ _______ _______ _____ _____    ______ ____
ROOT
ATOM      1  C   UNL     1       2.068   8.593  18.293  0.00  0.00    +0.000 C 
ATOM      2  O   UNL     1       1.795   9.063  17.182  0.00  0.00    +0.000 OA
ATOM      3  N   UNL     1       2.591   7.331  18.294  0.00  0.00    +0.000 N 
ATOM      4  H   UNL     1       2.864   7.062  17.352  0.00  0.00    +0.000 HD
ENDROOT
BRANCH   1   8
ATOM      5  C   UNL     1      -0.665  10.465  18.973  0.00  0.00    +0.000 C 
ATOM      6  O   UNL     1      -0.823  10.028  17.832  0.00  0.00    +0.000 OA
ATOM      7  N   UNL     1       0.302  10.015  19.857  0.00  0.00    +0.000 N 
ATOM      8  C   UNL     1       1.585   9.263  19.602  0.00  0.00    +0.000 C 
ATOM      9  C   UNL     1       1.686   8.216  20.759  0.00  0.00    +0.000 C 
ATOM     10  C   UNL     1       0.738   8.686  21.817  0.00  0.00    +0.000 C 
ATOM     11  C   UNL     1      -0.750   8.528  21.637  0.00  0.00    +0.000 C 
ATOM     12  C   UNL     1      -0.067   9.799  21.234  0.00  0.00    +0.000 C 
BRANCH   5  13
ATOM     13  C   UNL     1      -1.735  11.428  19.531  0.00  0.00    +0.000 C 
BRANCH  13  14
ATOM     14  O   UNL     1      -2.676  11.376  18.451  0.00  0.00    +0.000 OA
ATOM     15  H   UNL     1      -3.354  12.046  18.679  0.00  0.00    +0.000 HD
ENDBRANCH  13  14
BRANCH  13  16
ATOM     16  C   UNL     1      -1.268  12.892  19.754  0.00  0.00    +0.000 C 
BRANCH  16  18
ATOM     17  C   UNL     1      -2.434  12.591  21.996  0.00  0.00    +0.000 C 
ATOM     18  C   UNL     1      -1.467  13.471  21.186  0.00  0.00    +0.000 C 
ATOM     19  C   UNL     1      -1.979  14.914  21.120  0.00  0.00    +0.000 C 
ATOM     20  C   UNL     1      -0.113  13.493  21.931  0.00  0.00    +0.000 C 
ENDBRANCH  16  18
ENDBRANCH  13  16
ENDBRANCH   5  13
ENDBRANCH   1   8
BRANCH   3  21
ATOM     21  C   UNL     1       3.095   6.533  19.394  0.00  0.00    +0.000 C 
BRANCH  21  22
ATOM     22  C   UNL     1       3.188   5.047  19.118  0.00  0.00    +0.000 A 
ATOM     23  C   UNL     1       2.016   4.273  19.212  0.00  0.00    +0.000 A 
ATOM     24  C   UNL     1       1.928   2.984  18.677  0.00  0.00    +0.000 A 
ATOM     25 CL   UNL     1       0.437   2.130  18.653  0.00  0.00    +0.000 Cl
ATOM     26  C   UNL     1       3.042   2.401  18.102  0.00  0.00    +0.000 A 
ATOM     27  C   UNL     1       4.246   3.102  18.096  0.00  0.00    +0.000 A 
ATOM     28  C   UNL     1       4.342   4.408  18.630  0.00  0.00    +0.000 A 
BRANCH  28  29
ATOM     29  N   UNL     1       5.604   5.033  18.626  0.00  0.00    +0.000 N 
ATOM     30  C   UNL     1       6.231   5.747  17.635  0.00  0.00    +0.000 A 
ATOM     31  N   UNL     1       7.447   6.044  18.020  0.00  0.00    +0.000 NA
ATOM     32  N   UNL     1       7.558   5.593  19.306  0.00  0.00    +0.000 NA
ATOM     33  N   UNL     1       6.420   5.016  19.702  0.00  0.00    +0.000 NA
ENDBRANCH  28  29
ENDBRANCH  21  22
ENDBRANCH   3  21
TORSDOF 8
ENDMDL
