MODEL 1
REMARK VINA RESULT:      -8.0      0.000      0.000
REMARK  Name = 
REMARK  16 active torsions:
REMARK  status: ('A' for Active; 'I' for Inactive)
REMARK    1  A    between atoms: C_1  and  O_2
REMARK    2  A    between atoms: O_2  and  C_3
REMARK    3  A    between atoms: C_6  and  C_7
REMARK    4  A    between atoms: C_7  and  C_8
REMARK    5  A    between atoms: N_9  and  O_10
REMARK    6  A    between atoms: O_10  and  C_11
REMARK    7  A    between atoms: C_11  and  C_13
REMARK    8  A    between atoms: C_15  and  O_16
REMARK    9  A    between atoms: O_16  and  C_17
REMARK   10  A    between atoms: C_18  and  O_19
REMARK   11  A    between atoms: O_19  and  C_20
REMARK   12  A    between atoms: C_21  and  O_22
REMARK   13  A    between atoms: O_22  and  C_23
REMARK   14  A    between atoms: C_26  and  C_27
REMARK   15  A    between atoms: C_27  and  S_28
REMARK   16  A    between atoms: S_28  and  C_29
REMARK                            x       y       z     vdW  Elec       q    Type
REMARK                         _______ _______ _______ _____ _____    ______ ____
ROOT
ATOM      1  C   UNL     1       2.038   8.191  18.783  0.00  0.00    +0.000 C 
ATOM      2  C   UNL     1       2.734   8.584  17.498  0.00  0.00    +0.000 C 
ATOM      3  N   UNL     1       1.278   9.015  19.441  0.00  0.00    +0.000 NA
ENDROOT
BRANCH   1   7
ATOM      4  C   UNL     1       2.681   4.272  20.450  0.00  0.00    +0.000 A 
ATOM      5  C   UNL     1       1.907   5.229  21.123  0.00  0.00    +0.000 A 
ATOM      6  C   UNL     1       1.699   6.496  20.575  0.00  0.00    +0.000 A 
ATOM      7  C   UNL     1       2.230   6.813  19.325  0.00  0.00    +0.000 A 
ATOM      8  C   UNL     1       2.970   5.848  18.633  0.00  0.00    +0.000 A 
ATOM      9  C   UNL     1       3.229   4.574  19.184  0.00  0.00    +0.000 A 
BRANCH   4  11
ATOM     10  C   UNL     1       1.801   2.344  21.524  0.00  0.00    +0.000 C 
ATOM     11  O   UNL     1       2.923   3.019  20.955  0.00  0.00    +0.000 OA
ENDBRANCH   4  11
BRANCH   9  12
ATOM     12  C   UNL     1       4.007   3.529  18.387  0.00  0.00    +0.000 C 
BRANCH  12  13
ATOM     13  S   UNL     1       4.783   4.194  16.857  0.00  0.00    +0.000 S 
BRANCH  13  14
ATOM     14  C   UNL     1       6.064   5.242  17.525  0.00  0.00    +0.000 A 
ATOM     15  C   UNL     1       6.273   6.490  16.942  0.00  0.00    +0.000 A 
ATOM     16  C   UNL     1       7.262   7.322  17.462  0.00  0.00    +0.000 A 
ATOM     17  C   UNL     1       8.014   6.885  18.543  0.00  0.00    +0.000 A 
ATOM     18  C   UNL     1       7.743   5.628  19.057  0.00  0.00    +0.000 A 
ATOM     19  N   UNL     1       6.790   4.799  18.572  0.00  0.00    +0.000 NA
ENDBRANCH  13  14
ENDBRANCH  12  13
ENDBRANCH   9  12
ENDBRANCH   1   7
BRANCH   3  20
ATOM     20  O   UNL     1       1.222  10.284  18.833  0.00  0.00    +0.000 OA
BRANCH  20  21
ATOM     21  C   UNL     1       0.439  11.118  19.577  0.00  0.00    +0.000 C 
ATOM     22  O   UNL     1       0.772  11.778  20.553  0.00  0.00    +0.000 OA
BRANCH  21  23
ATOM     23  C   UNL     1      -0.951  11.145  19.039  0.00  0.00    +0.000 A 
ATOM     24  C   UNL     1      -1.890  11.894  19.753  0.00  0.00    +0.000 A 
ATOM     25  C   UNL     1      -3.220  11.960  19.332  0.00  0.00    +0.000 A 
ATOM     26  C   UNL     1      -3.636  11.239  18.193  0.00  0.00    +0.000 A 
ATOM     27  C   UNL     1      -2.696  10.474  17.470  0.00  0.00    +0.000 A 
ATOM     28  C   UNL     1      -1.354  10.451  17.893  0.00  0.00    +0.000 A 
BRANCH  25  29
ATOM     29  O   UNL     1      -4.178  12.688  20.001  0.00  0.00    +0.000 OA
ATOM     30  C   UNL     1      -3.957  12.887  21.395  0.00  0.00    +0.000 C 
ENDBRANCH  25  29
BRANCH  26  31
ATOM     31  O   UNL     1      -4.987  11.299  17.934  0.00  0.00    +0.000 OA
ATOM     32  C   UNL     1      -5.441  12.265  16.997  0.00  0.00    +0.000 C 
ENDBRANCH  26  31
BRANCH  27  33
ATOM     33  O   UNL     1      -3.151   9.753  16.397  0.00  0.00    +0.000 OA
ATOM     34  C   UNL     1      -2.936  10.259  15.088  0.00  0.00    +0.000 C 
ENDBRANCH  27  33
ENDBRANCH  21  23
ENDBRANCH  20  21
ENDBRANCH   3  20
TORSDOF 11
ENDMDL
MODEL 2
REMARK VINA RESULT:      -7.9      2.243      3.624
REMARK  Name = 
REMARK  16 active torsions:
REMARK  status: ('A' for Active; 'I' for Inactive)
REMARK    1  A    between atoms: C_1  and  O_2
REMARK    2  A    between atoms: O_2  and  C_3
REMARK    3  A    between atoms: C_6  and  C_7
REMARK    4  A    between atoms: C_7  and  C_8
REMARK    5  A    between atoms: N_9  and  O_10
REMARK    6  A    between atoms: O_10  and  C_11
REMARK    7  A    between atoms: C_11  and  C_13
REMARK    8  A    between atoms: C_15  and  O_16
REMARK    9  A    between atoms: O_16  and  C_17
REMARK   10  A    between atoms: C_18  and  O_19
REMARK   11  A    between atoms: O_19  and  C_20
REMARK   12  A    between atoms: C_21  and  O_22
REMARK   13  A    between atoms: O_22  and  C_23
REMARK   14  A    between atoms: C_26  and  C_27
REMARK   15  A    between atoms: C_27  and  S_28
REMARK   16  A    between atoms: S_28  and  C_29
REMARK                            x       y       z     vdW  Elec       q    Type
REMARK                         _______ _______ _______ _____ _____    ______ ____
ROOT
ATOM      1  C   UNL     1       2.068   7.645  19.482  0.00  0.00    +0.000 C 
ATOM      2  C   UNL     1       2.010   8.451  18.203  0.00  0.00    +0.000 C 
ATOM      3  N   UNL     1       1.687   8.130  20.627  0.00  0.00    +0.000 NA
ENDROOT
BRANCH   1   7
ATOM      4  C   UNL     1       3.588   3.615  19.502  0.00  0.00    +0.000 A 
ATOM      5  C   UNL     1       2.357   3.929  20.095  0.00  0.00    +0.000 A 
ATOM      6  C   UNL     1       1.867   5.236  20.081  0.00  0.00    +0.000 A 
ATOM      7  C   UNL     1       2.585   6.245  19.439  0.00  0.00    +0.000 A 
ATOM      8  C   UNL     1       3.796   5.928  18.812  0.00  0.00    +0.000 A 
ATOM      9  C   UNL     1       4.332   4.622  18.848  0.00  0.00    +0.000 A 
BRANCH   4  11
ATOM     10  C   UNL     1       3.568   1.441  18.544  0.00  0.00    +0.000 C 
ATOM     11  O   UNL     1       4.115   2.347  19.502  0.00  0.00    +0.000 OA
ENDBRANCH   4  11
BRANCH   9  12
ATOM     12  C   UNL     1       5.635   4.299  18.121  0.00  0.00    +0.000 C 
BRANCH  12  13
ATOM     13  S   UNL     1       6.368   5.741  17.244  0.00  0.00    +0.000 S 
BRANCH  13  14
ATOM     14  C   UNL     1       6.500   5.124  15.575  0.00  0.00    +0.000 A 
ATOM     15  C   UNL     1       5.495   4.286  15.095  0.00  0.00    +0.000 A 
ATOM     16  C   UNL     1       5.580   3.807  13.789  0.00  0.00    +0.000 A 
ATOM     17  C   UNL     1       6.664   4.174  13.004  0.00  0.00    +0.000 A 
ATOM     18  C   UNL     1       7.620   5.006  13.563  0.00  0.00    +0.000 A 
ATOM     19  N   UNL     1       7.562   5.485  14.827  0.00  0.00    +0.000 NA
ENDBRANCH  13  14
ENDBRANCH  12  13
ENDBRANCH   9  12
ENDBRANCH   1   7
BRANCH   3  20
ATOM     20  O   UNL     1       1.262   9.468  20.519  0.00  0.00    +0.000 OA
BRANCH  20  21
ATOM     21  C   UNL     1       0.733   9.881  21.708  0.00  0.00    +0.000 C 
ATOM     22  O   UNL     1       1.113   9.586  22.833  0.00  0.00    +0.000 OA
BRANCH  21  23
ATOM     23  C   UNL     1      -0.427  10.788  21.475  0.00  0.00    +0.000 A 
ATOM     24  C   UNL     1      -0.799  11.008  20.146  0.00  0.00    +0.000 A 
ATOM     25  C   UNL     1      -1.862  11.859  19.834  0.00  0.00    +0.000 A 
ATOM     26  C   UNL     1      -2.552  12.534  20.864  0.00  0.00    +0.000 A 
ATOM     27  C   UNL     1      -2.176  12.323  22.208  0.00  0.00    +0.000 A 
ATOM     28  C   UNL     1      -1.125  11.434  22.500  0.00  0.00    +0.000 A 
BRANCH  25  29
ATOM     29  O   UNL     1      -2.266  12.102  18.541  0.00  0.00    +0.000 OA
ATOM     30  C   UNL     1      -2.644  10.962  17.775  0.00  0.00    +0.000 C 
ENDBRANCH  25  29
BRANCH  26  31
ATOM     31  O   UNL     1      -3.510  13.421  20.431  0.00  0.00    +0.000 OA
ATOM     32  C   UNL     1      -4.866  12.997  20.456  0.00  0.00    +0.000 C 
ENDBRANCH  26  31
BRANCH  27  33
ATOM     33  O   UNL     1      -2.841  13.033  23.174  0.00  0.00    +0.000 OA
ATOM     34  C   UNL     1      -3.761  12.353  24.016  0.00  0.00    +0.000 C 
ENDBRANCH  27  33
ENDBRANCH  21  23
ENDBRANCH  20  21
ENDBRANCH   3  20
TORSDOF 11
ENDMDL
MODEL 3
REMARK VINA RESULT:      -7.7      1.822      3.277
REMARK  Name = 
REMARK  16 active torsions:
REMARK  status: ('A' for Active; 'I' for Inactive)
REMARK    1  A    between atoms: C_1  and  O_2
REMARK    2  A    between atoms: O_2  and  C_3
REMARK    3  A    between atoms: C_6  and  C_7
REMARK    4  A    between atoms: C_7  and  C_8
REMARK    5  A    between atoms: N_9  and  O_10
REMARK    6  A    between atoms: O_10  and  C_11
REMARK    7  A    between atoms: C_11  and  C_13
REMARK    8  A    between atoms: C_15  and  O_16
REMARK    9  A    between atoms: O_16  and  C_17
REMARK   10  A    between atoms: C_18  and  O_19
REMARK   11  A    between atoms: O_19  and  C_20
REMARK   12  A    between atoms: C_21  and  O_22
REMARK   13  A    between atoms: O_22  and  C_23
REMARK   14  A    between atoms: C_26  and  C_27
REMARK   15  A    between atoms: C_27  and  S_28
REMARK   16  A    between atoms: S_28  and  C_29
REMARK                            x       y       z     vdW  Elec       q    Type
REMARK                         _______ _______ _______ _____ _____    ______ ____
ROOT
ATOM      1  C   UNL     1       2.091   7.790  19.146  0.00  0.00    +0.000 C 
ATOM      2  C   UNL     1       2.240   8.700  17.947  0.00  0.00    +0.000 C 
ATOM      3  N   UNL     1       1.598   8.204  20.275  0.00  0.00    +0.000 NA
ENDROOT
BRANCH   1   7
ATOM      4  C   UNL     1       3.458   3.710  18.948  0.00  0.00    +0.000 A 
ATOM      5  C   UNL     1       2.711   4.173  20.041  0.00  0.00    +0.000 A 
ATOM      6  C   UNL     1       2.267   5.496  20.097  0.00  0.00    +0.000 A 
ATOM      7  C   UNL     1       2.531   6.367  19.041  0.00  0.00    +0.000 A 
ATOM      8  C   UNL     1       3.242   5.898  17.930  0.00  0.00    +0.000 A 
ATOM      9  C   UNL     1       3.736   4.577  17.868  0.00  0.00    +0.000 A 
BRANCH   4  11
ATOM     10  C   UNL     1       4.509   1.880  20.038  0.00  0.00    +0.000 C 
ATOM     11  O   UNL     1       3.925   2.423  18.854  0.00  0.00    +0.000 OA
ENDBRANCH   4  11
BRANCH   9  12
ATOM     12  C   UNL     1       4.474   4.083  16.626  0.00  0.00    +0.000 C 
BRANCH  12  13
ATOM     13  S   UNL     1       5.283   5.428  15.665  0.00  0.00    +0.000 S 
BRANCH  13  14
ATOM     14  C   UNL     1       6.436   6.085  16.858  0.00  0.00    +0.000 A 
ATOM     15  C   UNL     1       6.897   5.244  17.869  0.00  0.00    +0.000 A 
ATOM     16  C   UNL     1       7.807   5.741  18.800  0.00  0.00    +0.000 A 
ATOM     17  C   UNL     1       8.227   7.060  18.697  0.00  0.00    +0.000 A 
ATOM     18  C   UNL     1       7.714   7.827  17.664  0.00  0.00    +0.000 A 
ATOM     19  N   UNL     1       6.830   7.370  16.747  0.00  0.00    +0.000 NA
ENDBRANCH  13  14
ENDBRANCH  12  13
ENDBRANCH   9  12
ENDBRANCH   1   7
BRANCH   3  20
ATOM     20  O   UNL     1       1.265   9.572  20.238  0.00  0.00    +0.000 OA
BRANCH  20  21
ATOM     21  C   UNL     1       0.923   9.998  21.488  0.00  0.00    +0.000 C 
ATOM     22  O   UNL     1       1.480   9.728  22.545  0.00  0.00    +0.000 OA
BRANCH  21  23
ATOM     23  C   UNL     1      -0.274  10.885  21.428  0.00  0.00    +0.000 A 
ATOM     24  C   UNL     1      -0.895  11.022  20.184  0.00  0.00    +0.000 A 
ATOM     25  C   UNL     1      -2.011  11.848  20.031  0.00  0.00    +0.000 A 
ATOM     26  C   UNL     1      -2.503  12.581  21.131  0.00  0.00    +0.000 A 
ATOM     27  C   UNL     1      -1.877  12.453  22.390  0.00  0.00    +0.000 A 
ATOM     28  C   UNL     1      -0.775  11.587  22.528  0.00  0.00    +0.000 A 
BRANCH  25  29
ATOM     29  O   UNL     1      -2.656  12.012  18.826  0.00  0.00    +0.000 OA
ATOM     30  C   UNL     1      -1.893  11.724  17.658  0.00  0.00    +0.000 C 
ENDBRANCH  25  29
BRANCH  26  31
ATOM     31  O   UNL     1      -3.540  13.436  20.837  0.00  0.00    +0.000 OA
ATOM     32  C   UNL     1      -4.858  13.018  21.164  0.00  0.00    +0.000 C 
ENDBRANCH  26  31
BRANCH  27  33
ATOM     33  O   UNL     1      -2.358  13.217  23.421  0.00  0.00    +0.000 OA
ATOM     34  C   UNL     1      -1.593  14.327  23.869  0.00  0.00    +0.000 C 
ENDBRANCH  27  33
ENDBRANCH  21  23
ENDBRANCH  20  21
ENDBRANCH   3  20
TORSDOF 11
ENDMDL
MODEL 4
REMARK VINA RESULT:      -7.6      2.235      3.359
REMARK  Name = 
REMARK  16 active torsions:
REMARK  status: ('A' for Active; 'I' for Inactive)
REMARK    1  A    between atoms: C_1  and  O_2
REMARK    2  A    between atoms: O_2  and  C_3
REMARK    3  A    between atoms: C_6  and  C_7
REMARK    4  A    between atoms: C_7  and  C_8
REMARK    5  A    between atoms: N_9  and  O_10
REMARK    6  A    between atoms: O_10  and  C_11
REMARK    7  A    between atoms: C_11  and  C_13
REMARK    8  A    between atoms: C_15  and  O_16
REMARK    9  A    between atoms: O_16  and  C_17
REMARK   10  A    between atoms: C_18  and  O_19
REMARK   11  A    between atoms: O_19  and  C_20
REMARK   12  A    between atoms: C_21  and  O_22
REMARK   13  A    between atoms: O_22  and  C_23
REMARK   14  A    between atoms: C_26  and  C_27
REMARK   15  A    between atoms: C_27  and  S_28
REMARK   16  A    between atoms: S_28  and  C_29
REMARK                            x       y       z     vdW  Elec       q    Type
REMARK                         _______ _______ _______ _____ _____    ______ ____
ROOT
ATOM      1  C   UNL     1       2.037   8.232  18.807  0.00  0.00    +0.000 C 
ATOM      2  C   UNL     1       1.851   8.934  17.480  0.00  0.00    +0.000 C 
ATOM      3  N   UNL     1       1.760   8.805  19.941  0.00  0.00    +0.000 NA
ENDROOT
BRANCH   1   7
ATOM      4  C   UNL     1       3.652   4.243  18.962  0.00  0.00    +0.000 A 
ATOM      5  C   UNL     1       2.891   4.759  20.021  0.00  0.00    +0.000 A 
ATOM      6  C   UNL     1       2.366   6.051  19.963  0.00  0.00    +0.000 A 
ATOM      7  C   UNL     1       2.563   6.835  18.826  0.00  0.00    +0.000 A 
ATOM      8  C   UNL     1       3.288   6.309  17.751  0.00  0.00    +0.000 A 
ATOM      9  C   UNL     1       3.863   5.020  17.803  0.00  0.00    +0.000 A 
BRANCH   4  11
ATOM     10  C   UNL     1       4.312   2.367  20.262  0.00  0.00    +0.000 C 
ATOM     11  O   UNL     1       4.197   2.983  18.980  0.00  0.00    +0.000 OA
ENDBRANCH   4  11
BRANCH   9  12
ATOM     12  C   UNL     1       4.616   4.459  16.598  0.00  0.00    +0.000 C 
BRANCH  12  13
ATOM     13  S   UNL     1       6.367   5.014  16.498  0.00  0.00    +0.000 S 
BRANCH  13  14
ATOM     14  C   UNL     1       6.729   4.766  14.769  0.00  0.00    +0.000 A 
ATOM     15  C   UNL     1       5.952   3.860  14.050  0.00  0.00    +0.000 A 
ATOM     16  C   UNL     1       6.216   3.666  12.696  0.00  0.00    +0.000 A 
ATOM     17  C   UNL     1       7.249   4.377  12.100  0.00  0.00    +0.000 A 
ATOM     18  C   UNL     1       7.975   5.253  12.890  0.00  0.00    +0.000 A 
ATOM     19  N   UNL     1       7.740   5.460  14.207  0.00  0.00    +0.000 NA
ENDBRANCH  13  14
ENDBRANCH  12  13
ENDBRANCH   9  12
ENDBRANCH   1   7
BRANCH   3  20
ATOM     20  O   UNL     1       1.312  10.129  19.769  0.00  0.00    +0.000 OA
BRANCH  20  21
ATOM     21  C   UNL     1       0.457  10.461  20.780  0.00  0.00    +0.000 C 
ATOM     22  O   UNL     1       0.662  10.386  21.984  0.00  0.00    +0.000 OA
BRANCH  21  23
ATOM     23  C   UNL     1      -0.834  10.962  20.226  0.00  0.00    +0.000 A 
ATOM     24  C   UNL     1      -1.344  10.293  19.110  0.00  0.00    +0.000 A 
ATOM     25  C   UNL     1      -2.538  10.706  18.515  0.00  0.00    +0.000 A 
ATOM     26  C   UNL     1      -3.226  11.830  19.019  0.00  0.00    +0.000 A 
ATOM     27  C   UNL     1      -2.714  12.516  20.141  0.00  0.00    +0.000 A 
ATOM     28  C   UNL     1      -1.527  12.059  20.746  0.00  0.00    +0.000 A 
BRANCH  25  29
ATOM     29  O   UNL     1      -3.079  10.076  17.417  0.00  0.00    +0.000 OA
ATOM     30  C   UNL     1      -2.232   9.959  16.277  0.00  0.00    +0.000 C 
ENDBRANCH  25  29
BRANCH  26  31
ATOM     31  O   UNL     1      -4.332  12.203  18.290  0.00  0.00    +0.000 OA
ATOM     32  C   UNL     1      -5.606  11.772  18.751  0.00  0.00    +0.000 C 
ENDBRANCH  26  31
BRANCH  27  33
ATOM     33  O   UNL     1      -3.388  13.629  20.570  0.00  0.00    +0.000 OA
ATOM     34  C   UNL     1      -2.645  14.749  21.027  0.00  0.00    +0.000 C 
ENDBRANCH  27  33
ENDBRANCH  21  23
ENDBRANCH  20  21
ENDBRANCH   3  20
TORSDOF 11
ENDMDL
MODEL 5
REMARK VINA RESULT:      -7.6      1.638      2.187
REMARK  Name = 
REMARK  16 active torsions:
REMARK  status: ('A' for Active; 'I' for Inactive)
REMARK    1  A    between atoms: C_1  and  O_2
REMARK    2  A    between atoms: O_2  and  C_3
REMARK    3  A    between atoms: C_6  and  C_7
REMARK    4  A    between atoms: C_7  and  C_8
REMARK    5  A    between atoms: N_9  and  O_10
REMARK    6  A    between atoms: O_10  and  C_11
REMARK    7  A    between atoms: C_11  and  C_13
REMARK    8  A    between atoms: C_15  and  O_16
REMARK    9  A    between atoms: O_16  and  C_17
REMARK   10  A    between atoms: C_18  and  O_19
REMARK   11  A    between atoms: O_19  and  C_20
REMARK   12  A    between atoms: C_21  and  O_22
REMARK   13  A    between atoms: O_22  and  C_23
REMARK   14  A    between atoms: C_26  and  C_27
REMARK   15  A    between atoms: C_27  and  S_28
REMARK   16  A    between atoms: S_28  and  C_29
REMARK                            x       y       z     vdW  Elec       q    Type
REMARK                         _______ _______ _______ _____ _____    ______ ____
ROOT
ATOM      1  C   UNL     1       1.646   8.005  20.501  0.00  0.00    +0.000 C 
ATOM      2  C   UNL     1       1.359   8.389  21.936  0.00  0.00    +0.000 C 
ATOM      3  N   UNL     1       1.474   8.832  19.513  0.00  0.00    +0.000 NA
ENDROOT
BRANCH   1   7
ATOM      4  C   UNL     1       3.081   4.011  19.771  0.00  0.00    +0.000 A 
ATOM      5  C   UNL     1       1.812   4.236  20.323  0.00  0.00    +0.000 A 
ATOM      6  C   UNL     1       1.351   5.533  20.553  0.00  0.00    +0.000 A 
ATOM      7  C   UNL     1       2.138   6.628  20.198  0.00  0.00    +0.000 A 
ATOM      8  C   UNL     1       3.389   6.408  19.611  0.00  0.00    +0.000 A 
ATOM      9  C   UNL     1       3.895   5.105  19.406  0.00  0.00    +0.000 A 
BRANCH   4  11
ATOM     10  C   UNL     1       2.712   1.848  18.859  0.00  0.00    +0.000 C 
ATOM     11  O   UNL     1       3.581   2.753  19.538  0.00  0.00    +0.000 OA
ENDBRANCH   4  11
BRANCH   9  12
ATOM     12  C   UNL     1       5.246   4.897  18.726  0.00  0.00    +0.000 C 
BRANCH  12  13
ATOM     13  S   UNL     1       5.758   6.302  17.655  0.00  0.00    +0.000 S 
BRANCH  13  14
ATOM     14  C   UNL     1       6.073   5.481  16.103  0.00  0.00    +0.000 A 
ATOM     15  C   UNL     1       5.089   4.643  15.582  0.00  0.00    +0.000 A 
ATOM     16  C   UNL     1       5.317   4.005  14.365  0.00  0.00    +0.000 A 
ATOM     17  C   UNL     1       6.520   4.217  13.706  0.00  0.00    +0.000 A 
ATOM     18  C   UNL     1       7.446   5.061  14.298  0.00  0.00    +0.000 A 
ATOM     19  N   UNL     1       7.250   5.693  15.478  0.00  0.00    +0.000 NA
ENDBRANCH  13  14
ENDBRANCH  12  13
ENDBRANCH   9  12
ENDBRANCH   1   7
BRANCH   3  20
ATOM     20  O   UNL     1       0.971  10.075  19.945  0.00  0.00    +0.000 OA
BRANCH  20  21
ATOM     21  C   UNL     1       0.775  10.892  18.869  0.00  0.00    +0.000 C 
ATOM     22  O   UNL     1       1.623  11.510  18.240  0.00  0.00    +0.000 OA
BRANCH  21  23
ATOM     23  C   UNL     1      -0.673  10.951  18.517  0.00  0.00    +0.000 A 
ATOM     24  C   UNL     1      -1.496  11.708  19.355  0.00  0.00    +0.000 A 
ATOM     25  C   UNL     1      -2.868  11.803  19.111  0.00  0.00    +0.000 A 
ATOM     26  C   UNL     1      -3.443  11.105  18.029  0.00  0.00    +0.000 A 
ATOM     27  C   UNL     1      -2.619  10.331  17.182  0.00  0.00    +0.000 A 
ATOM     28  C   UNL     1      -1.234  10.279  17.427  0.00  0.00    +0.000 A 
BRANCH  25  29
ATOM     29  O   UNL     1      -3.715  12.539  19.907  0.00  0.00    +0.000 OA
ATOM     30  C   UNL     1      -3.104  13.520  20.741  0.00  0.00    +0.000 C 
ENDBRANCH  25  29
BRANCH  26  31
ATOM     31  O   UNL     1      -4.813  11.192  17.949  0.00  0.00    +0.000 OA
ATOM     32  C   UNL     1      -5.367  12.114  17.021  0.00  0.00    +0.000 C 
ENDBRANCH  26  31
BRANCH  27  33
ATOM     33  O   UNL     1      -3.224   9.632  16.171  0.00  0.00    +0.000 OA
ATOM     34  C   UNL     1      -3.083  10.095  14.835  0.00  0.00    +0.000 C 
ENDBRANCH  27  33
ENDBRANCH  21  23
ENDBRANCH  20  21
ENDBRANCH   3  20
TORSDOF 11
ENDMDL
MODEL 6
REMARK VINA RESULT:      -7.5      1.838      2.625
REMARK  Name = 
REMARK  16 active torsions:
REMARK  status: ('A' for Active; 'I' for Inactive)
REMARK    1  A    between atoms: C_1  and  O_2
REMARK    2  A    between atoms: O_2  and  C_3
REMARK    3  A    between atoms: C_6  and  C_7
REMARK    4  A    between atoms: C_7  and  C_8
REMARK    5  A    between atoms: N_9  and  O_10
REMARK    6  A    between atoms: O_10  and  C_11
REMARK    7  A    between atoms: C_11  and  C_13
REMARK    8  A    between atoms: C_15  and  O_16
REMARK    9  A    between atoms: O_16  and  C_17
REMARK   10  A    between atoms: C_18  and  O_19
REMARK   11  A    between atoms: O_19  and  C_20
REMARK   12  A    between atoms: C_21  and  O_22
REMARK   13  A    between atoms: O_22  and  C_23
REMARK   14  A    between atoms: C_26  and  C_27
REMARK   15  A    between atoms: C_27  and  S_28
REMARK   16  A    between atoms: S_28  and  C_29
REMARK                            x       y       z     vdW  Elec       q    Type
REMARK                         _______ _______ _______ _____ _____    ______ ____
ROOT
ATOM      1  C   UNL     1       2.163   7.997  19.003  0.00  0.00    +0.000 C 
ATOM      2  C   UNL     1       2.065   8.931  17.817  0.00  0.00    +0.000 C 
ATOM      3  N   UNL     1       1.819   8.360  20.204  0.00  0.00    +0.000 NA
ENDROOT
BRANCH   1   7
ATOM      4  C   UNL     1       3.759   4.027  18.511  0.00  0.00    +0.000 A 
ATOM      5  C   UNL     1       3.116   4.409  19.697  0.00  0.00    +0.000 A 
ATOM      6  C   UNL     1       2.597   5.696  19.849  0.00  0.00    +0.000 A 
ATOM      7  C   UNL     1       2.679   6.611  18.800  0.00  0.00    +0.000 A 
ATOM      8  C   UNL     1       3.285   6.221  17.600  0.00  0.00    +0.000 A 
ATOM      9  C   UNL     1       3.854   4.939  17.437  0.00  0.00    +0.000 A 
BRANCH   4  11
ATOM     10  C   UNL     1       3.404   1.678  18.503  0.00  0.00    +0.000 C 
ATOM     11  O   UNL     1       4.295   2.778  18.321  0.00  0.00    +0.000 OA
ENDBRANCH   4  11
BRANCH   9  12
ATOM     12  C   UNL     1       4.474   4.531  16.102  0.00  0.00    +0.000 C 
BRANCH  12  13
ATOM     13  S   UNL     1       6.230   3.999  16.236  0.00  0.00    +0.000 S 
BRANCH  13  14
ATOM     14  C   UNL     1       6.958   5.366  17.123  0.00  0.00    +0.000 A 
ATOM     15  C   UNL     1       7.501   5.126  18.384  0.00  0.00    +0.000 A 
ATOM     16  C   UNL     1       8.083   6.182  19.082  0.00  0.00    +0.000 A 
ATOM     17  C   UNL     1       8.102   7.444  18.506  0.00  0.00    +0.000 A 
ATOM     18  C   UNL     1       7.534   7.595  17.251  0.00  0.00    +0.000 A 
ATOM     19  N   UNL     1       6.963   6.587  16.551  0.00  0.00    +0.000 NA
ENDBRANCH  13  14
ENDBRANCH  12  13
ENDBRANCH   9  12
ENDBRANCH   1   7
BRANCH   3  20
ATOM     20  O   UNL     1       1.390   9.701  20.248  0.00  0.00    +0.000 OA
BRANCH  20  21
ATOM     21  C   UNL     1       0.820   9.962  21.461  0.00  0.00    +0.000 C 
ATOM     22  O   UNL     1       1.158   9.523  22.552  0.00  0.00    +0.000 OA
BRANCH  21  23
ATOM     23  C   UNL     1      -0.328  10.901  21.305  0.00  0.00    +0.000 A 
ATOM     24  C   UNL     1      -0.742  11.586  22.450  0.00  0.00    +0.000 A 
ATOM     25  C   UNL     1      -1.822  12.471  22.400  0.00  0.00    +0.000 A 
ATOM     26  C   UNL     1      -2.527  12.657  21.193  0.00  0.00    +0.000 A 
ATOM     27  C   UNL     1      -2.119  11.962  20.033  0.00  0.00    +0.000 A 
ATOM     28  C   UNL     1      -1.007  11.103  20.099  0.00  0.00    +0.000 A 
BRANCH  25  29
ATOM     29  O   UNL     1      -2.263  13.169  23.501  0.00  0.00    +0.000 OA
ATOM     30  C   UNL     1      -1.480  14.295  23.888  0.00  0.00    +0.000 C 
ENDBRANCH  25  29
BRANCH  26  31
ATOM     31  O   UNL     1      -3.632  13.472  21.290  0.00  0.00    +0.000 OA
ATOM     32  C   UNL     1      -4.900  12.853  21.460  0.00  0.00    +0.000 C 
ENDBRANCH  26  31
BRANCH  27  33
ATOM     33  O   UNL     1      -2.860  12.136  18.893  0.00  0.00    +0.000 OA
ATOM     34  C   UNL     1      -3.176  11.002  18.099  0.00  0.00    +0.000 C 
ENDBRANCH  27  33
ENDBRANCH  21  23
ENDBRANCH  20  21
ENDBRANCH   3  20
TORSDOF 11
ENDMDL
MODEL 7
REMARK VINA RESULT:      -7.4      3.392      5.107
REMARK  Name = 
REMARK  16 active torsions:
REMARK  status: ('A' for Active; 'I' for Inactive)
REMARK    1  A    between atoms: C_1  and  O_2
REMARK    2  A    between atoms: O_2  and  C_3
REMARK    3  A    between atoms: C_6  and  C_7
REMARK    4  A    between atoms: C_7  and  C_8
REMARK    5  A    between atoms: N_9  and  O_10
REMARK    6  A    between atoms: O_10  and  C_11
REMARK    7  A    between atoms: C_11  and  C_13
REMARK    8  A    between atoms: C_15  and  O_16
REMARK    9  A    between atoms: O_16  and  C_17
REMARK   10  A    between atoms: C_18  and  O_19
REMARK   11  A    between atoms: O_19  and  C_20
REMARK   12  A    between atoms: C_21  and  O_22
REMARK   13  A    between atoms: O_22  and  C_23
REMARK   14  A    between atoms: C_26  and  C_27
REMARK   15  A    between atoms: C_27  and  S_28
REMARK   16  A    between atoms: S_28  and  C_29
REMARK                            x       y       z     vdW  Elec       q    Type
REMARK                         _______ _______ _______ _____ _____    ______ ____
ROOT
ATOM      1  C   UNL     1       2.656   7.731  18.390  0.00  0.00    +0.000 C 
ATOM      2  C   UNL     1       2.142   7.346  19.760  0.00  0.00    +0.000 C 
ATOM      3  N   UNL     1       2.259   8.806  17.775  0.00  0.00    +0.000 NA
ENDROOT
BRANCH   1   7
ATOM      4  C   UNL     1       5.432   5.177  16.311  0.00  0.00    +0.000 A 
ATOM      5  C   UNL     1       5.229   6.506  15.911  0.00  0.00    +0.000 A 
ATOM      6  C   UNL     1       4.331   7.330  16.592  0.00  0.00    +0.000 A 
ATOM      7  C   UNL     1       3.650   6.849  17.709  0.00  0.00    +0.000 A 
ATOM      8  C   UNL     1       3.880   5.535  18.136  0.00  0.00    +0.000 A 
ATOM      9  C   UNL     1       4.752   4.670  17.440  0.00  0.00    +0.000 A 
BRANCH   4  11
ATOM     10  C   UNL     1       6.264   4.364  14.240  0.00  0.00    +0.000 C 
ATOM     11  O   UNL     1       6.296   4.327  15.666  0.00  0.00    +0.000 OA
ENDBRANCH   4  11
BRANCH   9  12
ATOM     12  C   UNL     1       5.012   3.255  17.953  0.00  0.00    +0.000 C 
BRANCH  12  13
ATOM     13  S   UNL     1       3.555   2.141  17.814  0.00  0.00    +0.000 S 
BRANCH  13  14
ATOM     14  C   UNL     1       2.665   2.517  19.314  0.00  0.00    +0.000 A 
ATOM     15  C   UNL     1       1.333   2.916  19.215  0.00  0.00    +0.000 A 
ATOM     16  C   UNL     1       0.623   3.201  20.380  0.00  0.00    +0.000 A 
ATOM     17  C   UNL     1       1.262   3.084  21.606  0.00  0.00    +0.000 A 
ATOM     18  C   UNL     1       2.589   2.687  21.613  0.00  0.00    +0.000 A 
ATOM     19  N   UNL     1       3.302   2.404  20.498  0.00  0.00    +0.000 NA
ENDBRANCH  13  14
ENDBRANCH  12  13
ENDBRANCH   9  12
ENDBRANCH   1   7
BRANCH   3  20
ATOM     20  O   UNL     1       1.296   9.515  18.519  0.00  0.00    +0.000 OA
BRANCH  20  21
ATOM     21  C   UNL     1       1.660  10.827  18.611  0.00  0.00    +0.000 C 
ATOM     22  O   UNL     1       2.425  11.440  17.879  0.00  0.00    +0.000 OA
BRANCH  21  23
ATOM     23  C   UNL     1       0.979  11.476  19.768  0.00  0.00    +0.000 A 
ATOM     24  C   UNL     1       0.828  12.864  19.714  0.00  0.00    +0.000 A 
ATOM     25  C   UNL     1       0.220  13.558  20.762  0.00  0.00    +0.000 A 
ATOM     26  C   UNL     1      -0.221  12.861  21.907  0.00  0.00    +0.000 A 
ATOM     27  C   UNL     1      -0.065  11.460  21.973  0.00  0.00    +0.000 A 
ATOM     28  C   UNL     1       0.519  10.778  20.889  0.00  0.00    +0.000 A 
BRANCH  25  29
ATOM     29  O   UNL     1       0.047  14.923  20.750  0.00  0.00    +0.000 OA
ATOM     30  C   UNL     1      -0.875  15.433  19.791  0.00  0.00    +0.000 C 
ENDBRANCH  25  29
BRANCH  26  31
ATOM     31  O   UNL     1      -0.710  13.660  22.915  0.00  0.00    +0.000 OA
ATOM     32  C   UNL     1      -2.120  13.742  23.071  0.00  0.00    +0.000 C 
ENDBRANCH  26  31
BRANCH  27  33
ATOM     33  O   UNL     1      -0.465  10.828  23.122  0.00  0.00    +0.000 OA
ATOM     34  C   UNL     1      -0.061   9.485  23.344  0.00  0.00    +0.000 C 
ENDBRANCH  27  33
ENDBRANCH  21  23
ENDBRANCH  20  21
ENDBRANCH   3  20
TORSDOF 11
ENDMDL
MODEL 8
REMARK VINA RESULT:      -7.4      2.132      4.435
REMARK  Name = 
REMARK  16 active torsions:
REMARK  status: ('A' for Active; 'I' for Inactive)
REMARK    1  A    between atoms: C_1  and  O_2
REMARK    2  A    between atoms: O_2  and  C_3
REMARK    3  A    between atoms: C_6  and  C_7
REMARK    4  A    between atoms: C_7  and  C_8
REMARK    5  A    between atoms: N_9  and  O_10
REMARK    6  A    between atoms: O_10  and  C_11
REMARK    7  A    between atoms: C_11  and  C_13
REMARK    8  A    between atoms: C_15  and  O_16
REMARK    9  A    between atoms: O_16  and  C_17
REMARK   10  A    between atoms: C_18  and  O_19
REMARK   11  A    between atoms: O_19  and  C_20
REMARK   12  A    between atoms: C_21  and  O_22
REMARK   13  A    between atoms: O_22  and  C_23
REMARK   14  A    between atoms: C_26  and  C_27
REMARK   15  A    between atoms: C_27  and  S_28
REMARK   16  A    between atoms: S_28  and  C_29
REMARK                            x       y       z     vdW  Elec       q    Type
REMARK                         _______ _______ _______ _____ _____    ______ ____
ROOT
ATOM      1  C   UNL     1       2.441   7.578  18.788  0.00  0.00    +0.000 C 
ATOM      2  C   UNL     1       1.965   7.006  20.105  0.00  0.00    +0.000 C 
ATOM      3  N   UNL     1       2.010   8.716  18.328  0.00  0.00    +0.000 NA
ENDROOT
BRANCH   1   7
ATOM      4  C   UNL     1       5.218   5.386  16.332  0.00  0.00    +0.000 A 
ATOM      5  C   UNL     1       5.031   6.766  16.161  0.00  0.00    +0.000 A 
ATOM      6  C   UNL     1       4.132   7.471  16.964  0.00  0.00    +0.000 A 
ATOM      7  C   UNL     1       3.435   6.814  17.976  0.00  0.00    +0.000 A 
ATOM      8  C   UNL     1       3.649   5.445  18.176  0.00  0.00    +0.000 A 
ATOM      9  C   UNL     1       4.521   4.702  17.351  0.00  0.00    +0.000 A 
BRANCH   4  11
ATOM     10  C   UNL     1       5.597   4.257  14.276  0.00  0.00    +0.000 C 
ATOM     11  O   UNL     1       6.082   4.649  15.560  0.00  0.00    +0.000 OA
ENDBRANCH   4  11
BRANCH   9  12
ATOM     12  C   UNL     1       4.763   3.218  17.619  0.00  0.00    +0.000 C 
BRANCH  12  13
ATOM     13  S   UNL     1       3.236   2.195  17.541  0.00  0.00    +0.000 S 
BRANCH  13  14
ATOM     14  C   UNL     1       2.473   2.560  19.113  0.00  0.00    +0.000 A 
ATOM     15  C   UNL     1       3.249   2.466  20.267  0.00  0.00    +0.000 A 
ATOM     16  C   UNL     1       2.668   2.760  21.498  0.00  0.00    +0.000 A 
ATOM     17  C   UNL     1       1.333   3.135  21.544  0.00  0.00    +0.000 A 
ATOM     18  C   UNL     1       0.634   3.198  20.350  0.00  0.00    +0.000 A 
ATOM     19  N   UNL     1       1.173   2.918  19.140  0.00  0.00    +0.000 NA
ENDBRANCH  13  14
ENDBRANCH  12  13
ENDBRANCH   9  12
ENDBRANCH   1   7
BRANCH   3  20
ATOM     20  O   UNL     1       1.052   9.301  19.179  0.00  0.00    +0.000 OA
BRANCH  20  21
ATOM     21  C   UNL     1       0.731  10.547  18.723  0.00  0.00    +0.000 C 
ATOM     22  O   UNL     1       1.500  11.456  18.440  0.00  0.00    +0.000 OA
BRANCH  21  23
ATOM     23  C   UNL     1      -0.747  10.691  18.595  0.00  0.00    +0.000 A 
ATOM     24  C   UNL     1      -1.340  10.126  17.463  0.00  0.00    +0.000 A 
ATOM     25  C   UNL     1      -2.717  10.229  17.253  0.00  0.00    +0.000 A 
ATOM     26  C   UNL     1      -3.521  10.938  18.171  0.00  0.00    +0.000 A 
ATOM     27  C   UNL     1      -2.928  11.518  19.313  0.00  0.00    +0.000 A 
ATOM     28  C   UNL     1      -1.544  11.370  19.522  0.00  0.00    +0.000 A 
BRANCH  25  29
ATOM     29  O   UNL     1      -3.345   9.686  16.155  0.00  0.00    +0.000 OA
ATOM     30  C   UNL     1      -2.895  10.142  14.882  0.00  0.00    +0.000 C 
ENDBRANCH  25  29
BRANCH  26  31
ATOM     31  O   UNL     1      -4.842  11.059  17.806  0.00  0.00    +0.000 OA
ATOM     32  C   UNL     1      -5.215  12.191  17.033  0.00  0.00    +0.000 C 
ENDBRANCH  26  31
BRANCH  27  33
ATOM     33  O   UNL     1      -3.736  12.236  20.155  0.00  0.00    +0.000 OA
ATOM     34  C   UNL     1      -3.535  13.637  20.271  0.00  0.00    +0.000 C 
ENDBRANCH  27  33
ENDBRANCH  21  23
ENDBRANCH  20  21
ENDBRANCH   3  20
TORSDOF 11
ENDMDL
MODEL 9
REMARK VINA RESULT:      -7.4      2.129      2.713
REMARK  Name = 
REMARK  16 active torsions:
REMARK  status: ('A' for Active; 'I' for Inactive)
REMARK    1  A    between atoms: C_1  and  O_2
REMARK    2  A    between atoms: O_2  and  C_3
REMARK    3  A    between atoms: C_6  and  C_7
REMARK    4  A    between atoms: C_7  and  C_8
REMARK    5  A    between atoms: N_9  and  O_10
REMARK    6  A    between atoms: O_10  and  C_11
REMARK    7  A    between atoms: C_11  and  C_13
REMARK    8  A    between atoms: C_15  and  O_16
REMARK    9  A    between atoms: O_16  and  C_17
REMARK   10  A    between atoms: C_18  and  O_19
REMARK   11  A    between atoms: O_19  and  C_20
REMARK   12  A    between atoms: C_21  and  O_22
REMARK   13  A    between atoms: O_22  and  C_23
REMARK   14  A    between atoms: C_26  and  C_27
REMARK   15  A    between atoms: C_27  and  S_28
REMARK   16  A    between atoms: S_28  and  C_29
REMARK                            x       y       z     vdW  Elec       q    Type
REMARK                         _______ _______ _______ _____ _____    ______ ____
ROOT
ATOM      1  C   UNL     1       1.502   8.250  20.480  0.00  0.00    +0.000 C 
ATOM      2  C   UNL     1       1.306   9.289  19.399  0.00  0.00    +0.000 C 
ATOM      3  N   UNL     1       1.461   8.547  21.746  0.00  0.00    +0.000 NA
ENDROOT
BRANCH   1   7
ATOM      4  C   UNL     1       2.337   4.147  19.472  0.00  0.00    +0.000 A 
ATOM      5  C   UNL     1       1.550   4.475  20.586  0.00  0.00    +0.000 A 
ATOM      6  C   UNL     1       1.279   5.806  20.904  0.00  0.00    +0.000 A 
ATOM      7  C   UNL     1       1.761   6.832  20.091  0.00  0.00    +0.000 A 
ATOM      8  C   UNL     1       2.514   6.507  18.957  0.00  0.00    +0.000 A 
ATOM      9  C   UNL     1       2.836   5.170  18.636  0.00  0.00    +0.000 A 
BRANCH   4  11
ATOM     10  C   UNL     1       1.587   2.103  18.522  0.00  0.00    +0.000 C 
ATOM     11  O   UNL     1       2.639   2.853  19.127  0.00  0.00    +0.000 OA
ENDBRANCH   4  11
BRANCH   9  12
ATOM     12  C   UNL     1       3.626   4.845  17.371  0.00  0.00    +0.000 C 
BRANCH  12  13
ATOM     13  S   UNL     1       5.193   3.937  17.692  0.00  0.00    +0.000 S 
BRANCH  13  14
ATOM     14  C   UNL     1       6.340   5.276  17.966  0.00  0.00    +0.000 A 
ATOM     15  C   UNL     1       6.232   6.418  17.174  0.00  0.00    +0.000 A 
ATOM     16  C   UNL     1       7.114   7.475  17.387  0.00  0.00    +0.000 A 
ATOM     17  C   UNL     1       8.079   7.362  18.377  0.00  0.00    +0.000 A 
ATOM     18  C   UNL     1       8.119   6.190  19.114  0.00  0.00    +0.000 A 
ATOM     19  N   UNL     1       7.276   5.148  18.929  0.00  0.00    +0.000 NA
ENDBRANCH  13  14
ENDBRANCH  12  13
ENDBRANCH   9  12
ENDBRANCH   1   7
BRANCH   3  20
ATOM     20  O   UNL     1       1.249   9.923  21.959  0.00  0.00    +0.000 OA
BRANCH  20  21
ATOM     21  C   UNL     1       0.242  10.099  22.863  0.00  0.00    +0.000 C 
ATOM     22  O   UNL     1       0.150   9.608  23.980  0.00  0.00    +0.000 OA
BRANCH  21  23
ATOM     23  C   UNL     1      -0.798  11.015  22.313  0.00  0.00    +0.000 A 
ATOM     24  C   UNL     1      -1.738  11.518  23.216  0.00  0.00    +0.000 A 
ATOM     25  C   UNL     1      -2.759  12.368  22.784  0.00  0.00    +0.000 A 
ATOM     26  C   UNL     1      -2.869  12.702  21.418  0.00  0.00    +0.000 A 
ATOM     27  C   UNL     1      -1.928  12.191  20.498  0.00  0.00    +0.000 A 
ATOM     28  C   UNL     1      -0.887  11.365  20.962  0.00  0.00    +0.000 A 
BRANCH  25  29
ATOM     29  O   UNL     1      -3.704  12.890  23.638  0.00  0.00    +0.000 OA
ATOM     30  C   UNL     1      -3.276  13.965  24.470  0.00  0.00    +0.000 C 
ENDBRANCH  25  29
BRANCH  26  31
ATOM     31  O   UNL     1      -3.971  13.461  21.097  0.00  0.00    +0.000 OA
ATOM     32  C   UNL     1      -3.786  14.860  20.928  0.00  0.00    +0.000 C 
ENDBRANCH  26  31
BRANCH  27  33
ATOM     33  O   UNL     1      -2.098  12.502  19.174  0.00  0.00    +0.000 OA
ATOM     34  C   UNL     1      -0.951  12.665  18.353  0.00  0.00    +0.000 C 
ENDBRANCH  27  33
ENDBRANCH  21  23
ENDBRANCH  20  21
ENDBRANCH   3  20
TORSDOF 11
ENDMDL
