MODEL 1
REMARK VINA RESULT:      -8.4      0.000      0.000
REMARK  Name = 
REMARK  5 active torsions:
REMARK  status: ('A' for Active; 'I' for Inactive)
REMARK    1  A    between atoms: C_1  and  C_2
REMARK    2  A    between atoms: C_5  and  N_6
REMARK    3  A    between atoms: C_12  and  N_13
REMARK    4  A    between atoms: C_14  and  C_16
REMARK    5  A    between atoms: C_21  and  C_22
REMARK                            x       y       z     vdW  Elec       q    Type
REMARK                         _______ _______ _______ _____ _____    ______ ____
ROOT
ATOM      1  N   UNL     1       2.639   6.997  18.850  0.00  0.00    +0.000 N 
ATOM      2  C   UNL     1       2.120   8.244  18.591  0.00  0.00    +0.000 C 
ATOM      3  O   UNL     1       2.321   8.856  17.541  0.00  0.00    +0.000 OA
ATOM      4  N   UNL     1       1.295   8.811  19.552  0.00  0.00    +0.000 N 
ATOM      5  C   UNL     1       0.503   9.962  19.132  0.00  0.00    +0.000 C 
ATOM      6  C   UNL     1       0.876  11.178  19.961  0.00  0.00    +0.000 C 
ATOM      7  C   UNL     1       0.549  10.959  21.438  0.00  0.00    +0.000 C 
ATOM      8  C   UNL     1       1.178   9.625  21.921  0.00  0.00    +0.000 C 
ATOM      9  C   UNL     1       1.092   8.417  20.952  0.00  0.00    +0.000 C 
ATOM     10  H   UNL     1       2.191   6.456  19.574  0.00  0.00    +0.000 HD
ENDROOT
BRANCH   1  15
ATOM     11  C   UNL     1       6.087   3.942  15.376  0.00  0.00    +0.000 C 
ATOM     12  C   UNL     1       5.139   4.759  16.202  0.00  0.00    +0.000 A 
ATOM     13  C   UNL     1       4.030   4.156  16.792  0.00  0.00    +0.000 A 
ATOM     14  C   UNL     1       3.175   4.900  17.614  0.00  0.00    +0.000 A 
ATOM     15  C   UNL     1       3.415   6.253  17.895  0.00  0.00    +0.000 A 
ATOM     16  C   UNL     1       4.487   6.869  17.247  0.00  0.00    +0.000 A 
ATOM     17  C   UNL     1       5.344   6.127  16.411  0.00  0.00    +0.000 A 
ENDBRANCH   1  15
BRANCH   7  18
ATOM     18  N   UNL     1      -0.862  11.254  21.810  0.00  0.00    +0.000 N 
ATOM     19  C   UNL     1      -1.305  12.276  22.632  0.00  0.00    +0.000 C 
ATOM     20  O   UNL     1      -0.512  13.052  23.153  0.00  0.00    +0.000 OA
ATOM     21  H   UNL     1      -1.551  10.602  21.459  0.00  0.00    +0.000 HD
BRANCH  19  22
ATOM     22  C   UNL     1      -2.798  12.464  22.873  0.00  0.00    +0.000 A 
ATOM     23  C   UNL     1      -3.390  12.305  24.140  0.00  0.00    +0.000 A 
ATOM     24  C   UNL     1      -4.764  12.554  24.336  0.00  0.00    +0.000 A 
ATOM     25  C   UNL     1      -5.567  12.971  23.278  0.00  0.00    +0.000 A 
ATOM     26  C   UNL     1      -5.006  13.128  22.019  0.00  0.00    +0.000 A 
ATOM     27  C   UNL     1      -3.637  12.869  21.799  0.00  0.00    +0.000 A 
ATOM     28  C   UNL     1      -3.128  13.046  20.392  0.00  0.00    +0.000 C 
ENDBRANCH  19  22
ENDBRANCH   7  18
TORSDOF 3
ENDMDL
MODEL 2
REMARK VINA RESULT:      -8.2      0.394      1.012
REMARK  Name = 
REMARK  5 active torsions:
REMARK  status: ('A' for Active; 'I' for Inactive)
REMARK    1  A    between atoms: C_1  and  C_2
REMARK    2  A    between atoms: C_5  and  N_6
REMARK    3  A    between atoms: C_12  and  N_13
REMARK    4  A    between atoms: C_14  and  C_16
REMARK    5  A    between atoms: C_21  and  C_22
REMARK                            x       y       z     vdW  Elec       q    Type
REMARK                         _______ _______ _______ _____ _____    ______ ____
ROOT
ATOM      1  N   UNL     1       2.681   6.687  19.232  0.00  0.00    +0.000 N 
ATOM      2  C   UNL     1       2.244   7.965  18.975  0.00  0.00    +0.000 C 
ATOM      3  O   UNL     1       2.560   8.599  17.967  0.00  0.00    +0.000 OA
ATOM      4  N   UNL     1       1.371   8.543  19.886  0.00  0.00    +0.000 N 
ATOM      5  C   UNL     1       0.672   9.745  19.444  0.00  0.00    +0.000 C 
ATOM      6  C   UNL     1       1.033  10.914  20.342  0.00  0.00    +0.000 C 
ATOM      7  C   UNL     1       0.576  10.667  21.780  0.00  0.00    +0.000 C 
ATOM      8  C   UNL     1       1.099   9.289  22.265  0.00  0.00    +0.000 C 
ATOM      9  C   UNL     1       1.035   8.117  21.251  0.00  0.00    +0.000 C 
ATOM     10  H   UNL     1       2.149   6.147  19.898  0.00  0.00    +0.000 HD
ENDROOT
BRANCH   1  15
ATOM     11  C   UNL     1       5.650   3.823  15.198  0.00  0.00    +0.000 C 
ATOM     12  C   UNL     1       4.930   4.522  16.313  0.00  0.00    +0.000 A 
ATOM     13  C   UNL     1       5.391   5.751  16.779  0.00  0.00    +0.000 A 
ATOM     14  C   UNL     1       4.689   6.437  17.776  0.00  0.00    +0.000 A 
ATOM     15  C   UNL     1       3.496   5.935  18.317  0.00  0.00    +0.000 A 
ATOM     16  C   UNL     1       3.076   4.672  17.896  0.00  0.00    +0.000 A 
ATOM     17  C   UNL     1       3.785   3.974  16.899  0.00  0.00    +0.000 A 
ENDBRANCH   1  15
BRANCH   7  18
ATOM     18  N   UNL     1      -0.846  11.021  22.047  0.00  0.00    +0.000 N 
ATOM     19  C   UNL     1      -1.308  12.145  22.710  0.00  0.00    +0.000 C 
ATOM     20  O   UNL     1      -0.527  12.973  23.163  0.00  0.00    +0.000 OA
ATOM     21  H   UNL     1      -1.529  10.336  21.752  0.00  0.00    +0.000 HD
BRANCH  19  22
ATOM     22  C   UNL     1      -2.807  12.376  22.857  0.00  0.00    +0.000 A 
ATOM     23  C   UNL     1      -3.472  12.291  24.095  0.00  0.00    +0.000 A 
ATOM     24  C   UNL     1      -4.848  12.579  24.201  0.00  0.00    +0.000 A 
ATOM     25  C   UNL     1      -5.582  12.962  23.081  0.00  0.00    +0.000 A 
ATOM     26  C   UNL     1      -4.948  13.045  21.850  0.00  0.00    +0.000 A 
ATOM     27  C   UNL     1      -3.575  12.747  21.719  0.00  0.00    +0.000 A 
ATOM     28  C   UNL     1      -2.985  12.844  20.337  0.00  0.00    +0.000 C 
ENDBRANCH  19  22
ENDBRANCH   7  18
TORSDOF 3
ENDMDL
MODEL 3
REMARK VINA RESULT:      -8.0      0.954      1.866
REMARK  Name = 
REMARK  5 active torsions:
REMARK  status: ('A' for Active; 'I' for Inactive)
REMARK    1  A    between atoms: C_1  and  C_2
REMARK    2  A    between atoms: C_5  and  N_6
REMARK    3  A    between atoms: C_12  and  N_13
REMARK    4  A    between atoms: C_14  and  C_16
REMARK    5  A    between atoms: C_21  and  C_22
REMARK                            x       y       z     vdW  Elec       q    Type
REMARK                         _______ _______ _______ _____ _____    ______ ____
ROOT
ATOM      1  N   UNL     1       2.742   7.241  18.756  0.00  0.00    +0.000 N 
ATOM      2  C   UNL     1       2.133   8.381  18.285  0.00  0.00    +0.000 C 
ATOM      3  O   UNL     1       2.328   8.835  17.156  0.00  0.00    +0.000 OA
ATOM      4  N   UNL     1       1.226   9.019  19.118  0.00  0.00    +0.000 N 
ATOM      5  C   UNL     1       0.361  10.016  18.496  0.00  0.00    +0.000 C 
ATOM      6  C   UNL     1       0.599  11.375  19.128  0.00  0.00    +0.000 C 
ATOM      7  C   UNL     1       0.229  11.365  20.612  0.00  0.00    +0.000 C 
ATOM      8  C   UNL     1       0.944  10.184  21.321  0.00  0.00    +0.000 C 
ATOM      9  C   UNL     1       0.997   8.835  20.558  0.00  0.00    +0.000 C 
ATOM     10  H   UNL     1       2.309   6.785  19.544  0.00  0.00    +0.000 HD
ENDROOT
BRANCH   1  15
ATOM     11  C   UNL     1       5.922   4.028  15.171  0.00  0.00    +0.000 C 
ATOM     12  C   UNL     1       5.152   4.835  16.174  0.00  0.00    +0.000 A 
ATOM     13  C   UNL     1       5.491   6.167  16.405  0.00  0.00    +0.000 A 
ATOM     14  C   UNL     1       4.739   6.942  17.294  0.00  0.00    +0.000 A 
ATOM     15  C   UNL     1       3.615   6.426  17.955  0.00  0.00    +0.000 A 
ATOM     16  C   UNL     1       3.321   5.073  17.773  0.00  0.00    +0.000 A 
ATOM     17  C   UNL     1       4.082   4.286  16.887  0.00  0.00    +0.000 A 
ENDBRANCH   1  15
BRANCH   7  18
ATOM     18  N   UNL     1      -1.216  11.591  20.892  0.00  0.00    +0.000 N 
ATOM     19  C   UNL     1      -1.878  12.807  20.893  0.00  0.00    +0.000 C 
ATOM     20  O   UNL     1      -1.278  13.849  20.661  0.00  0.00    +0.000 OA
ATOM     21  H   UNL     1      -1.743  10.769  21.154  0.00  0.00    +0.000 HD
BRANCH  19  22
ATOM     22  C   UNL     1      -3.378  12.853  21.156  0.00  0.00    +0.000 A 
ATOM     23  C   UNL     1      -4.335  12.692  20.136  0.00  0.00    +0.000 A 
ATOM     24  C   UNL     1      -5.714  12.673  20.431  0.00  0.00    +0.000 A 
ATOM     25  C   UNL     1      -6.161  12.806  21.743  0.00  0.00    +0.000 A 
ATOM     26  C   UNL     1      -5.236  12.973  22.762  0.00  0.00    +0.000 A 
ATOM     27  C   UNL     1      -3.853  13.010  22.488  0.00  0.00    +0.000 A 
ATOM     28  C   UNL     1      -2.930  13.219  23.659  0.00  0.00    +0.000 C 
ENDBRANCH  19  22
ENDBRANCH   7  18
TORSDOF 3
ENDMDL
MODEL 4
REMARK VINA RESULT:      -7.8      1.113      1.648
REMARK  Name = 
REMARK  5 active torsions:
REMARK  status: ('A' for Active; 'I' for Inactive)
REMARK    1  A    between atoms: C_1  and  C_2
REMARK    2  A    between atoms: C_5  and  N_6
REMARK    3  A    between atoms: C_12  and  N_13
REMARK    4  A    between atoms: C_14  and  C_16
REMARK    5  A    between atoms: C_21  and  C_22
REMARK                            x       y       z     vdW  Elec       q    Type
REMARK                         _______ _______ _______ _____ _____    ______ ____
ROOT
ATOM      1  N   UNL     1       2.706   7.274  18.818  0.00  0.00    +0.000 N 
ATOM      2  C   UNL     1       2.089   8.411  18.350  0.00  0.00    +0.000 C 
ATOM      3  O   UNL     1       2.272   8.864  17.220  0.00  0.00    +0.000 OA
ATOM      4  N   UNL     1       1.187   9.047  19.191  0.00  0.00    +0.000 N 
ATOM      5  C   UNL     1       0.312  10.039  18.575  0.00  0.00    +0.000 C 
ATOM      6  C   UNL     1       0.550  11.400  19.203  0.00  0.00    +0.000 C 
ATOM      7  C   UNL     1       0.194  11.392  20.690  0.00  0.00    +0.000 C 
ATOM      8  C   UNL     1       0.920  10.215  21.395  0.00  0.00    +0.000 C 
ATOM      9  C   UNL     1       0.972   8.865  20.633  0.00  0.00    +0.000 C 
ATOM     10  H   UNL     1       2.282   6.818  19.611  0.00  0.00    +0.000 HD
ENDROOT
BRANCH   1  15
ATOM     11  C   UNL     1       5.867   4.066  15.211  0.00  0.00    +0.000 C 
ATOM     12  C   UNL     1       5.103   4.873  16.219  0.00  0.00    +0.000 A 
ATOM     13  C   UNL     1       5.435   6.208  16.441  0.00  0.00    +0.000 A 
ATOM     14  C   UNL     1       4.689   6.982  17.335  0.00  0.00    +0.000 A 
ATOM     15  C   UNL     1       3.575   6.461  18.011  0.00  0.00    +0.000 A 
ATOM     16  C   UNL     1       3.289   5.106  17.838  0.00  0.00    +0.000 A 
ATOM     17  C   UNL     1       4.044   4.320  16.946  0.00  0.00    +0.000 A 
ENDBRANCH   1  15
BRANCH   7  18
ATOM     18  N   UNL     1      -1.250  11.612  20.982  0.00  0.00    +0.000 N 
ATOM     19  C   UNL     1      -1.975  12.766  20.741  0.00  0.00    +0.000 C 
ATOM     20  O   UNL     1      -1.441  13.754  20.251  0.00  0.00    +0.000 OA
ATOM     21  H   UNL     1      -1.722  10.849  21.449  0.00  0.00    +0.000 HD
BRANCH  19  22
ATOM     22  C   UNL     1      -3.464  12.806  21.060  0.00  0.00    +0.000 A 
ATOM     23  C   UNL     1      -3.966  13.258  22.296  0.00  0.00    +0.000 A 
ATOM     24  C   UNL     1      -5.354  13.344  22.528  0.00  0.00    +0.000 A 
ATOM     25  C   UNL     1      -6.263  12.990  21.535  0.00  0.00    +0.000 A 
ATOM     26  C   UNL     1      -5.791  12.537  20.312  0.00  0.00    +0.000 A 
ATOM     27  C   UNL     1      -4.407  12.428  20.064  0.00  0.00    +0.000 A 
ATOM     28  C   UNL     1      -3.995  11.903  18.714  0.00  0.00    +0.000 C 
ENDBRANCH  19  22
ENDBRANCH   7  18
TORSDOF 3
ENDMDL
MODEL 5
REMARK VINA RESULT:      -7.6      2.414     10.078
REMARK  Name = 
REMARK  5 active torsions:
REMARK  status: ('A' for Active; 'I' for Inactive)
REMARK    1  A    between atoms: C_1  and  C_2
REMARK    2  A    between atoms: C_5  and  N_6
REMARK    3  A    between atoms: C_12  and  N_13
REMARK    4  A    between atoms: C_14  and  C_16
REMARK    5  A    between atoms: C_21  and  C_22
REMARK                            x       y       z     vdW  Elec       q    Type
REMARK                         _______ _______ _______ _____ _____    ______ ____
ROOT
ATOM      1  N   UNL     1      -2.067  12.264  21.478  0.00  0.00    +0.000 N 
ATOM      2  C   UNL     1      -1.275  11.487  22.290  0.00  0.00    +0.000 C 
ATOM      3  O   UNL     1      -1.074  11.736  23.479  0.00  0.00    +0.000 OA
ATOM      4  N   UNL     1      -0.713  10.344  21.739  0.00  0.00    +0.000 N 
ATOM      5  C   UNL     1      -0.157   9.375  22.677  0.00  0.00    +0.000 C 
ATOM      6  C   UNL     1       1.328   9.198  22.421  0.00  0.00    +0.000 C 
ATOM      7  C   UNL     1       1.584   8.626  21.026  0.00  0.00    +0.000 C 
ATOM      8  C   UNL     1       0.838   9.480  19.967  0.00  0.00    +0.000 C 
ATOM      9  C   UNL     1      -0.594   9.954  20.327  0.00  0.00    +0.000 C 
ATOM     10  H   UNL     1      -2.415  11.836  20.633  0.00  0.00    +0.000 HD
ENDROOT
BRANCH   1  15
ATOM     11  C   UNL     1      -5.329  16.763  23.029  0.00  0.00    +0.000 C 
ATOM     12  C   UNL     1      -4.413  15.627  22.684  0.00  0.00    +0.000 A 
ATOM     13  C   UNL     1      -4.476  14.437  23.405  0.00  0.00    +0.000 A 
ATOM     14  C   UNL     1      -3.667  13.352  23.049  0.00  0.00    +0.000 A 
ATOM     15  C   UNL     1      -2.796  13.409  21.952  0.00  0.00    +0.000 A 
ATOM     16  C   UNL     1      -2.687  14.625  21.275  0.00  0.00    +0.000 A 
ATOM     17  C   UNL     1      -3.492  15.723  21.636  0.00  0.00    +0.000 A 
ENDBRANCH   1  15
BRANCH   7  18
ATOM     18  N   UNL     1       1.486   7.143  20.939  0.00  0.00    +0.000 N 
ATOM     19  C   UNL     1       2.202   6.316  20.090  0.00  0.00    +0.000 C 
ATOM     20  O   UNL     1       3.009   6.779  19.293  0.00  0.00    +0.000 OA
ATOM     21  H   UNL     1       0.785   6.716  21.529  0.00  0.00    +0.000 HD
BRANCH  19  22
ATOM     22  C   UNL     1       2.011   4.806  20.163  0.00  0.00    +0.000 A 
ATOM     23  C   UNL     1       2.152   4.078  21.360  0.00  0.00    +0.000 A 
ATOM     24  C   UNL     1       1.900   2.691  21.400  0.00  0.00    +0.000 A 
ATOM     25  C   UNL     1       1.497   2.009  20.254  0.00  0.00    +0.000 A 
ATOM     26  C   UNL     1       1.358   2.706  19.063  0.00  0.00    +0.000 A 
ATOM     27  C   UNL     1       1.620   4.090  18.998  0.00  0.00    +0.000 A 
ATOM     28  C   UNL     1       1.464   4.751  17.653  0.00  0.00    +0.000 C 
ENDBRANCH  19  22
ENDBRANCH   7  18
TORSDOF 3
ENDMDL
MODEL 6
REMARK VINA RESULT:      -7.4      1.683      2.680
REMARK  Name = 
REMARK  5 active torsions:
REMARK  status: ('A' for Active; 'I' for Inactive)
REMARK    1  A    between atoms: C_1  and  C_2
REMARK    2  A    between atoms: C_5  and  N_6
REMARK    3  A    between atoms: C_12  and  N_13
REMARK    4  A    between atoms: C_14  and  C_16
REMARK    5  A    between atoms: C_21  and  C_22
REMARK                            x       y       z     vdW  Elec       q    Type
REMARK                         _______ _______ _______ _____ _____    ______ ____
ROOT
ATOM      1  N   UNL     1       2.847   7.653  18.086  0.00  0.00    +0.000 N 
ATOM      2  C   UNL     1       2.298   7.579  19.345  0.00  0.00    +0.000 C 
ATOM      3  O   UNL     1       2.455   6.616  20.096  0.00  0.00    +0.000 OA
ATOM      4  N   UNL     1       1.568   8.670  19.795  0.00  0.00    +0.000 N 
ATOM      5  C   UNL     1       1.277   8.713  21.224  0.00  0.00    +0.000 C 
ATOM      6  C   UNL     1      -0.224   8.695  21.448  0.00  0.00    +0.000 C 
ATOM      7  C   UNL     1      -0.886   9.936  20.847  0.00  0.00    +0.000 C 
ATOM      8  C   UNL     1      -0.452  10.094  19.366  0.00  0.00    +0.000 C 
ATOM      9  C   UNL     1       1.037   9.810  19.036  0.00  0.00    +0.000 C 
ATOM     10  H   UNL     1       2.924   8.571  17.674  0.00  0.00    +0.000 HD
ENDROOT
BRANCH   1  15
ATOM     11  C   UNL     1       6.043   3.599  15.509  0.00  0.00    +0.000 C 
ATOM     12  C   UNL     1       5.261   4.637  16.259  0.00  0.00    +0.000 A 
ATOM     13  C   UNL     1       5.680   5.965  16.253  0.00  0.00    +0.000 A 
ATOM     14  C   UNL     1       4.923   6.948  16.900  0.00  0.00    +0.000 A 
ATOM     15  C   UNL     1       3.715   6.643  17.544  0.00  0.00    +0.000 A 
ATOM     16  C   UNL     1       3.335   5.302  17.606  0.00  0.00    +0.000 A 
ATOM     17  C   UNL     1       4.100   4.308  16.965  0.00  0.00    +0.000 A 
ENDBRANCH   1  15
BRANCH   7  18
ATOM     18  N   UNL     1      -0.862  11.138  21.726  0.00  0.00    +0.000 N 
ATOM     19  C   UNL     1      -1.646  12.271  21.598  0.00  0.00    +0.000 C 
ATOM     20  O   UNL     1      -2.459  12.374  20.687  0.00  0.00    +0.000 OA
ATOM     21  H   UNL     1      -0.161  11.131  22.455  0.00  0.00    +0.000 HD
BRANCH  19  22
ATOM     22  C   UNL     1      -1.524  13.397  22.618  0.00  0.00    +0.000 A 
ATOM     23  C   UNL     1      -0.522  14.383  22.547  0.00  0.00    +0.000 A 
ATOM     24  C   UNL     1      -0.484  15.447  23.471  0.00  0.00    +0.000 A 
ATOM     25  C   UNL     1      -1.444  15.552  24.473  0.00  0.00    +0.000 A 
ATOM     26  C   UNL     1      -2.437  14.588  24.566  0.00  0.00    +0.000 A 
ATOM     27  C   UNL     1      -2.485  13.507  23.661  0.00  0.00    +0.000 A 
ATOM     28  C   UNL     1      -3.587  12.500  23.859  0.00  0.00    +0.000 C 
ENDBRANCH  19  22
ENDBRANCH   7  18
TORSDOF 3
ENDMDL
MODEL 7
REMARK VINA RESULT:      -7.4      2.196     10.197
REMARK  Name = 
REMARK  5 active torsions:
REMARK  status: ('A' for Active; 'I' for Inactive)
REMARK    1  A    between atoms: C_1  and  C_2
REMARK    2  A    between atoms: C_5  and  N_6
REMARK    3  A    between atoms: C_12  and  N_13
REMARK    4  A    between atoms: C_14  and  C_16
REMARK    5  A    between atoms: C_21  and  C_22
REMARK                            x       y       z     vdW  Elec       q    Type
REMARK                         _______ _______ _______ _____ _____    ______ ____
ROOT
ATOM      1  N   UNL     1      -2.214  12.137  21.592  0.00  0.00    +0.000 N 
ATOM      2  C   UNL     1      -1.337  11.431  22.382  0.00  0.00    +0.000 C 
ATOM      3  O   UNL     1      -1.131  11.694  23.567  0.00  0.00    +0.000 OA
ATOM      4  N   UNL     1      -0.689  10.343  21.813  0.00  0.00    +0.000 N 
ATOM      5  C   UNL     1      -0.028   9.425  22.734  0.00  0.00    +0.000 C 
ATOM      6  C   UNL     1       1.461   9.381  22.443  0.00  0.00    +0.000 C 
ATOM      7  C   UNL     1       1.733   8.837  21.040  0.00  0.00    +0.000 C 
ATOM      8  C   UNL     1       0.890   9.624  20.002  0.00  0.00    +0.000 C 
ATOM      9  C   UNL     1      -0.569   9.969  20.397  0.00  0.00    +0.000 C 
ATOM     10  H   UNL     1      -2.542  11.682  20.753  0.00  0.00    +0.000 HD
ENDROOT
BRANCH   1  15
ATOM     11  C   UNL     1      -5.608  16.549  23.110  0.00  0.00    +0.000 C 
ATOM     12  C   UNL     1      -4.694  15.398  22.806  0.00  0.00    +0.000 A 
ATOM     13  C   UNL     1      -5.164  14.090  22.902  0.00  0.00    +0.000 A 
ATOM     14  C   UNL     1      -4.335  13.016  22.561  0.00  0.00    +0.000 A 
ATOM     15  C   UNL     1      -3.030  13.212  22.088  0.00  0.00    +0.000 A 
ATOM     16  C   UNL     1      -2.542  14.519  22.058  0.00  0.00    +0.000 A 
ATOM     17  C   UNL     1      -3.369  15.603  22.410  0.00  0.00    +0.000 A 
ENDBRANCH   1  15
BRANCH   7  18
ATOM     18  N   UNL     1       1.765   7.351  20.948  0.00  0.00    +0.000 N 
ATOM     19  C   UNL     1       2.174   6.599  19.860  0.00  0.00    +0.000 C 
ATOM     20  O   UNL     1       2.551   7.140  18.827  0.00  0.00    +0.000 OA
ATOM     21  H   UNL     1       1.400   6.856  21.750  0.00  0.00    +0.000 HD
BRANCH  19  22
ATOM     22  C   UNL     1       2.186   5.078  19.951  0.00  0.00    +0.000 A 
ATOM     23  C   UNL     1       1.036   4.325  20.254  0.00  0.00    +0.000 A 
ATOM     24  C   UNL     1       1.072   2.915  20.262  0.00  0.00    +0.000 A 
ATOM     25  C   UNL     1       2.249   2.234  19.962  0.00  0.00    +0.000 A 
ATOM     26  C   UNL     1       3.396   2.956  19.666  0.00  0.00    +0.000 A 
ATOM     27  C   UNL     1       3.385   4.367  19.668  0.00  0.00    +0.000 A 
ATOM     28  C   UNL     1       4.686   5.059  19.358  0.00  0.00    +0.000 C 
ENDBRANCH  19  22
ENDBRANCH   7  18
TORSDOF 3
ENDMDL
MODEL 8
REMARK VINA RESULT:      -7.4      2.114     10.208
REMARK  Name = 
REMARK  5 active torsions:
REMARK  status: ('A' for Active; 'I' for Inactive)
REMARK    1  A    between atoms: C_1  and  C_2
REMARK    2  A    between atoms: C_5  and  N_6
REMARK    3  A    between atoms: C_12  and  N_13
REMARK    4  A    between atoms: C_14  and  C_16
REMARK    5  A    between atoms: C_21  and  C_22
REMARK                            x       y       z     vdW  Elec       q    Type
REMARK                         _______ _______ _______ _____ _____    ______ ____
ROOT
ATOM      1  N   UNL     1      -2.035  12.190  21.480  0.00  0.00    +0.000 N 
ATOM      2  C   UNL     1      -1.258  11.367  22.262  0.00  0.00    +0.000 C 
ATOM      3  O   UNL     1      -1.113  11.526  23.475  0.00  0.00    +0.000 OA
ATOM      4  N   UNL     1      -0.647  10.283  21.649  0.00  0.00    +0.000 N 
ATOM      5  C   UNL     1      -0.107   9.255  22.532  0.00  0.00    +0.000 C 
ATOM      6  C   UNL     1       1.391   9.130  22.327  0.00  0.00    +0.000 C 
ATOM      7  C   UNL     1       1.717   8.674  20.904  0.00  0.00    +0.000 C 
ATOM      8  C   UNL     1       0.996   9.594  19.883  0.00  0.00    +0.000 C 
ATOM      9  C   UNL     1      -0.461  10.008  20.217  0.00  0.00    +0.000 C 
ATOM     10  H   UNL     1      -2.337  11.823  20.590  0.00  0.00    +0.000 HD
ENDROOT
BRANCH   1  15
ATOM     11  C   UNL     1      -5.027  16.395  24.059  0.00  0.00    +0.000 C 
ATOM     12  C   UNL     1      -4.288  15.329  23.306  0.00  0.00    +0.000 A 
ATOM     13  C   UNL     1      -3.013  15.584  22.806  0.00  0.00    +0.000 A 
ATOM     14  C   UNL     1      -2.295  14.575  22.155  0.00  0.00    +0.000 A 
ATOM     15  C   UNL     1      -2.810  13.279  22.010  0.00  0.00    +0.000 A 
ATOM     16  C   UNL     1      -4.114  13.047  22.452  0.00  0.00    +0.000 A 
ATOM     17  C   UNL     1      -4.844  14.063  23.098  0.00  0.00    +0.000 A 
ENDBRANCH   1  15
BRANCH   7  18
ATOM     18  N   UNL     1       1.659   7.201  20.697  0.00  0.00    +0.000 N 
ATOM     19  C   UNL     1       2.190   6.494  19.631  0.00  0.00    +0.000 C 
ATOM     20  O   UNL     1       2.772   7.072  18.721  0.00  0.00    +0.000 OA
ATOM     21  H   UNL     1       1.131   6.684  21.387  0.00  0.00    +0.000 HD
BRANCH  19  22
ATOM     22  C   UNL     1       2.079   4.975  19.598  0.00  0.00    +0.000 A 
ATOM     23  C   UNL     1       1.151   4.263  20.381  0.00  0.00    +0.000 A 
ATOM     24  C   UNL     1       1.032   2.862  20.272  0.00  0.00    +0.000 A 
ATOM     25  C   UNL     1       1.828   2.150  19.378  0.00  0.00    +0.000 A 
ATOM     26  C   UNL     1       2.754   2.831  18.601  0.00  0.00    +0.000 A 
ATOM     27  C   UNL     1       2.899   4.230  18.707  0.00  0.00    +0.000 A 
ATOM     28  C   UNL     1       3.948   4.874  17.838  0.00  0.00    +0.000 C 
ENDBRANCH  19  22
ENDBRANCH   7  18
TORSDOF 3
ENDMDL
MODEL 9
REMARK VINA RESULT:      -7.3      1.158      2.043
REMARK  Name = 
REMARK  5 active torsions:
REMARK  status: ('A' for Active; 'I' for Inactive)
REMARK    1  A    between atoms: C_1  and  C_2
REMARK    2  A    between atoms: C_5  and  N_6
REMARK    3  A    between atoms: C_12  and  N_13
REMARK    4  A    between atoms: C_14  and  C_16
REMARK    5  A    between atoms: C_21  and  C_22
REMARK                            x       y       z     vdW  Elec       q    Type
REMARK                         _______ _______ _______ _____ _____    ______ ____
ROOT
ATOM      1  N   UNL     1       2.092   7.675  19.416  0.00  0.00    +0.000 N 
ATOM      2  C   UNL     1       1.396   8.775  18.972  0.00  0.00    +0.000 C 
ATOM      3  O   UNL     1       1.510   9.234  17.835  0.00  0.00    +0.000 OA
ATOM      4  N   UNL     1       0.493   9.363  19.846  0.00  0.00    +0.000 N 
ATOM      5  C   UNL     1      -0.458  10.304  19.264  0.00  0.00    +0.000 C 
ATOM      6  C   UNL     1      -0.270  11.678  19.880  0.00  0.00    +0.000 C 
ATOM      7  C   UNL     1      -0.568  11.654  21.380  0.00  0.00    +0.000 C 
ATOM      8  C   UNL     1       0.247  10.521  22.057  0.00  0.00    +0.000 C 
ATOM      9  C   UNL     1       0.344   9.173  21.295  0.00  0.00    +0.000 C 
ATOM     10  H   UNL     1       1.724   7.198  20.226  0.00  0.00    +0.000 HD
ENDROOT
BRANCH   1  15
ATOM     11  C   UNL     1       5.267   4.601  15.707  0.00  0.00    +0.000 C 
ATOM     12  C   UNL     1       4.507   5.382  16.738  0.00  0.00    +0.000 A 
ATOM     13  C   UNL     1       4.720   6.753  16.871  0.00  0.00    +0.000 A 
ATOM     14  C   UNL     1       3.971   7.498  17.789  0.00  0.00    +0.000 A 
ATOM     15  C   UNL     1       2.972   6.908  18.577  0.00  0.00    +0.000 A 
ATOM     16  C   UNL     1       2.811   5.525  18.489  0.00  0.00    +0.000 A 
ATOM     17  C   UNL     1       3.569   4.769  17.574  0.00  0.00    +0.000 A 
ENDBRANCH   1  15
BRANCH   7  18
ATOM     18  N   UNL     1      -2.010  11.796  21.727  0.00  0.00    +0.000 N 
ATOM     19  C   UNL     1      -2.756  12.961  21.697  0.00  0.00    +0.000 C 
ATOM     20  O   UNL     1      -2.246  14.027  21.373  0.00  0.00    +0.000 OA
ATOM     21  H   UNL     1      -2.462  10.957  22.065  0.00  0.00    +0.000 HD
BRANCH  19  22
ATOM     22  C   UNL     1      -4.240  12.920  22.041  0.00  0.00    +0.000 A 
ATOM     23  C   UNL     1      -5.233  12.612  21.092  0.00  0.00    +0.000 A 
ATOM     24  C   UNL     1      -6.590  12.517  21.465  0.00  0.00    +0.000 A 
ATOM     25  C   UNL     1      -6.978  12.719  22.787  0.00  0.00    +0.000 A 
ATOM     26  C   UNL     1      -6.017  13.030  23.737  0.00  0.00    +0.000 A 
ATOM     27  C   UNL     1      -4.657  13.145  23.382  0.00  0.00    +0.000 A 
ATOM     28  C   UNL     1      -3.693  13.510  24.481  0.00  0.00    +0.000 C 
ENDBRANCH  19  22
ENDBRANCH   7  18
TORSDOF 3
ENDMDL
