MODEL 1
REMARK VINA RESULT:      -8.3      0.000      0.000
REMARK  Name = 
REMARK  8 active torsions:
REMARK  status: ('A' for Active; 'I' for Inactive)
REMARK    1  A    between atoms: C_2  and  C_3
REMARK    2  A    between atoms: N_14  and  C_15
REMARK    3  A    between atoms: C_15  and  C_16
REMARK    4  A    between atoms: C_16  and  N_17
REMARK    5  A    between atoms: N_17  and  C_18
REMARK    6  A    between atoms: C_18  and  C_19
REMARK    7  A    between atoms: C_19  and  C_20
REMARK    8  A    between atoms: C_20  and  C_21
REMARK                            x       y       z     vdW  Elec       q    Type
REMARK                         _______ _______ _______ _____ _____    ______ ____
ROOT
ATOM      1  C   UNL     1       3.018   3.528  20.190  0.00  0.00    +0.000 C 
ENDROOT
BRANCH   1   7
ATOM      2  O   UNL     1       1.931   8.513  17.569  0.00  0.00    +0.000 OA
ATOM      3  C   UNL     1       1.773   8.148  18.732  0.00  0.00    +0.000 C 
ATOM      4  N   UNL     1       1.956   6.827  19.146  0.00  0.00    +0.000 N 
ATOM      5  C   UNL     1       1.692   6.296  20.492  0.00  0.00    +0.000 C 
ATOM      6  C   UNL     1       1.005   4.927  20.462  0.00  0.00    +0.000 C 
ATOM      7  N   UNL     1       1.703   3.924  19.642  0.00  0.00    +0.000 NA
ATOM      8  C   UNL     1       1.838   4.481  18.274  0.00  0.00    +0.000 C 
ATOM      9  C   UNL     1       2.531   5.861  18.197  0.00  0.00    +0.000 C 
BRANCH   3  10
ATOM     10  C   UNL     1       1.313   9.174  19.710  0.00  0.00    +0.000 A 
ATOM     11  C   UNL     1       0.996  10.454  19.241  0.00  0.00    +0.000 A 
ATOM     12  C   UNL     1       0.440  11.398  20.109  0.00  0.00    +0.000 A 
ATOM     13  C   UNL     1       0.172  11.058  21.439  0.00  0.00    +0.000 A 
ATOM     14 CL   UNL     1      -0.612  12.231  22.434  0.00  0.00    +0.000 Cl
ATOM     15  C   UNL     1       0.534   9.796  21.918  0.00  0.00    +0.000 A 
ATOM     16 CL   UNL     1       0.164   9.261  23.518  0.00  0.00    +0.000 Cl
ATOM     17  C   UNL     1       1.167   8.884  21.069  0.00  0.00    +0.000 A 
ENDBRANCH   3  10
ENDBRANCH   1   7
BRANCH   1  18
ATOM     18  C   UNL     1       3.862   2.664  19.228  0.00  0.00    +0.000 C 
BRANCH  18  19
ATOM     19  N   UNL     1       5.284   3.028  19.282  0.00  0.00    +0.000 NA
ATOM     20  H   UNL     1       5.727   2.809  18.389  0.00  0.00    +0.000 HD
BRANCH  19  21
ATOM     21  C   UNL     1       5.424   4.459  19.551  0.00  0.00    +0.000 C 
BRANCH  21  22
ATOM     22  C   UNL     1       5.498   5.227  18.235  0.00  0.00    +0.000 C 
BRANCH  22  23
ATOM     23  C   UNL     1       6.919   5.179  17.679  0.00  0.00    +0.000 C 
BRANCH  23  24
ATOM     24  C   UNL     1       6.914   4.925  16.214  0.00  0.00    +0.000 A 
ATOM     25  N   UNL     1       7.664   5.535  15.313  0.00  0.00    +0.000 NA
ATOM     26  C   UNL     1       7.318   4.963  14.112  0.00  0.00    +0.000 A 
ATOM     27  C   UNL     1       7.810   5.228  12.827  0.00  0.00    +0.000 A 
ATOM     28  C   UNL     1       7.295   4.498  11.747  0.00  0.00    +0.000 A 
ATOM     29  C   UNL     1       6.312   3.526  11.947  0.00  0.00    +0.000 A 
ATOM     30  C   UNL     1       5.805   3.252  13.224  0.00  0.00    +0.000 A 
ATOM     31  C   UNL     1       6.338   3.991  14.280  0.00  0.00    +0.000 A 
ATOM     32  N   UNL     1       6.095   3.993  15.625  0.00  0.00    +0.000 N 
ATOM     33  H   UNL     1       5.426   3.409  16.103  0.00  0.00    +0.000 HD
ENDBRANCH  23  24
ENDBRANCH  22  23
ENDBRANCH  21  22
ENDBRANCH  19  21
ENDBRANCH  18  19
ENDBRANCH   1  18
TORSDOF 8
ENDMDL
MODEL 2
REMARK VINA RESULT:      -8.1      4.724      9.856
REMARK  Name = 
REMARK  8 active torsions:
REMARK  status: ('A' for Active; 'I' for Inactive)
REMARK    1  A    between atoms: C_2  and  C_3
REMARK    2  A    between atoms: N_14  and  C_15
REMARK    3  A    between atoms: C_15  and  C_16
REMARK    4  A    between atoms: C_16  and  N_17
REMARK    5  A    between atoms: N_17  and  C_18
REMARK    6  A    between atoms: C_18  and  C_19
REMARK    7  A    between atoms: C_19  and  C_20
REMARK    8  A    between atoms: C_20  and  C_21
REMARK                            x       y       z     vdW  Elec       q    Type
REMARK                         _______ _______ _______ _____ _____    ______ ____
ROOT
ATOM      1  C   UNL     1      -0.625  10.465  22.116  0.00  0.00    +0.000 C 
ENDROOT
BRANCH   1   7
ATOM      2  O   UNL     1       2.270   8.975  17.393  0.00  0.00    +0.000 OA
ATOM      3  C   UNL     1       2.015   8.359  18.426  0.00  0.00    +0.000 C 
ATOM      4  N   UNL     1       1.423   8.956  19.541  0.00  0.00    +0.000 N 
ATOM      5  C   UNL     1       1.180   8.314  20.841  0.00  0.00    +0.000 C 
ATOM      6  C   UNL     1       1.509   9.230  22.024  0.00  0.00    +0.000 C 
ATOM      7  N   UNL     1       0.844  10.542  21.967  0.00  0.00    +0.000 NA
ATOM      8  C   UNL     1       1.220  11.179  20.680  0.00  0.00    +0.000 C 
ATOM      9  C   UNL     1       0.917  10.332  19.422  0.00  0.00    +0.000 C 
BRANCH   3  10
ATOM     10  C   UNL     1       2.420   6.926  18.480  0.00  0.00    +0.000 A 
ATOM     11  C   UNL     1       1.540   5.960  17.978  0.00  0.00    +0.000 A 
ATOM     12  C   UNL     1       1.942   4.624  17.896  0.00  0.00    +0.000 A 
ATOM     13  C   UNL     1       3.233   4.254  18.286  0.00  0.00    +0.000 A 
ATOM     14 CL   UNL     1       3.708   2.609  18.063  0.00  0.00    +0.000 Cl
ATOM     15  C   UNL     1       4.093   5.211  18.832  0.00  0.00    +0.000 A 
ATOM     16 CL   UNL     1       5.730   4.861  19.260  0.00  0.00    +0.000 Cl
ATOM     17  C   UNL     1       3.658   6.529  18.991  0.00  0.00    +0.000 A 
ENDBRANCH   3  10
ENDBRANCH   1   7
BRANCH   1  18
ATOM     18  C   UNL     1      -1.235  11.630  22.926  0.00  0.00    +0.000 C 
BRANCH  18  19
ATOM     19  N   UNL     1      -2.560  11.284  23.455  0.00  0.00    +0.000 NA
ATOM     20  H   UNL     1      -2.501  11.151  24.466  0.00  0.00    +0.000 HD
BRANCH  19  21
ATOM     21  C   UNL     1      -3.510  12.357  23.166  0.00  0.00    +0.000 C 
BRANCH  21  22
ATOM     22  C   UNL     1      -2.772  13.555  22.577  0.00  0.00    +0.000 C 
BRANCH  22  23
ATOM     23  C   UNL     1      -3.528  14.092  21.363  0.00  0.00    +0.000 C 
BRANCH  23  24
ATOM     24  C   UNL     1      -3.455  13.142  20.222  0.00  0.00    +0.000 A 
ATOM     25  N   UNL     1      -4.459  12.443  19.723  0.00  0.00    +0.000 NA
ATOM     26  C   UNL     1      -3.915  11.724  18.685  0.00  0.00    +0.000 A 
ATOM     27  C   UNL     1      -4.533  10.824  17.807  0.00  0.00    +0.000 A 
ATOM     28  C   UNL     1      -3.755  10.214  16.813  0.00  0.00    +0.000 A 
ATOM     29  C   UNL     1      -2.392  10.497  16.700  0.00  0.00    +0.000 A 
ATOM     30  C   UNL     1      -1.757  11.390  17.573  0.00  0.00    +0.000 A 
ATOM     31  C   UNL     1      -2.556  11.985  18.550  0.00  0.00    +0.000 A 
ATOM     32  N   UNL     1      -2.289  12.884  19.544  0.00  0.00    +0.000 N 
ATOM     33  H   UNL     1      -1.388  13.288  19.746  0.00  0.00    +0.000 HD
ENDBRANCH  23  24
ENDBRANCH  22  23
ENDBRANCH  21  22
ENDBRANCH  19  21
ENDBRANCH  18  19
ENDBRANCH   1  18
TORSDOF 8
ENDMDL
MODEL 3
REMARK VINA RESULT:      -7.8      3.117      5.907
REMARK  Name = 
REMARK  8 active torsions:
REMARK  status: ('A' for Active; 'I' for Inactive)
REMARK    1  A    between atoms: C_2  and  C_3
REMARK    2  A    between atoms: N_14  and  C_15
REMARK    3  A    between atoms: C_15  and  C_16
REMARK    4  A    between atoms: C_16  and  N_17
REMARK    5  A    between atoms: N_17  and  C_18
REMARK    6  A    between atoms: C_18  and  C_19
REMARK    7  A    between atoms: C_19  and  C_20
REMARK    8  A    between atoms: C_20  and  C_21
REMARK                            x       y       z     vdW  Elec       q    Type
REMARK                         _______ _______ _______ _____ _____    ______ ____
ROOT
ATOM      1  C   UNL     1       1.755   8.696  19.048  0.00  0.00    +0.000 C 
ENDROOT
BRANCH   1   7
ATOM      2  O   UNL     1       0.161  13.979  20.614  0.00  0.00    +0.000 OA
ATOM      3  C   UNL     1      -0.473  12.931  20.504  0.00  0.00    +0.000 C 
ATOM      4  N   UNL     1       0.069  11.769  19.951  0.00  0.00    +0.000 N 
ATOM      5  C   UNL     1      -0.651  10.513  19.695  0.00  0.00    +0.000 C 
ATOM      6  C   UNL     1      -0.287   9.888  18.345  0.00  0.00    +0.000 C 
ATOM      7  N   UNL     1       1.158   9.701  18.142  0.00  0.00    +0.000 NA
ATOM      8  C   UNL     1       1.808  11.025  18.307  0.00  0.00    +0.000 C 
ATOM      9  C   UNL     1       1.508  11.735  19.648  0.00  0.00    +0.000 C 
BRANCH   3  10
ATOM     10  C   UNL     1      -1.898  12.950  20.939  0.00  0.00    +0.000 A 
ATOM     11  C   UNL     1      -2.897  13.031  19.962  0.00  0.00    +0.000 A 
ATOM     12  C   UNL     1      -4.242  12.921  20.327  0.00  0.00    +0.000 A 
ATOM     13  C   UNL     1      -4.591  12.701  21.663  0.00  0.00    +0.000 A 
ATOM     14 CL   UNL     1      -6.261  12.467  22.037  0.00  0.00    +0.000 Cl
ATOM     15  C   UNL     1      -3.596  12.669  22.643  0.00  0.00    +0.000 A 
ATOM     16 CL   UNL     1      -3.927  12.317  24.302  0.00  0.00    +0.000 Cl
ATOM     17  C   UNL     1      -2.259  12.863  22.286  0.00  0.00    +0.000 A 
ENDBRANCH   3  10
ENDBRANCH   1   7
BRANCH   1  18
ATOM     18  C   UNL     1       2.386   7.490  18.317  0.00  0.00    +0.000 C 
BRANCH  18  19
ATOM     19  N   UNL     1       3.428   7.916  17.374  0.00  0.00    +0.000 NA
ATOM     20  H   UNL     1       3.638   8.904  17.521  0.00  0.00    +0.000 HD
BRANCH  19  21
ATOM     21  C   UNL     1       4.642   7.129  17.583  0.00  0.00    +0.000 C 
BRANCH  21  22
ATOM     22  C   UNL     1       4.912   6.259  16.359  0.00  0.00    +0.000 C 
BRANCH  22  23
ATOM     23  C   UNL     1       5.288   4.844  16.794  0.00  0.00    +0.000 C 
BRANCH  23  24
ATOM     24  C   UNL     1       4.282   4.286  17.735  0.00  0.00    +0.000 A 
ATOM     25  N   UNL     1       4.481   3.994  19.008  0.00  0.00    +0.000 NA
ATOM     26  C   UNL     1       3.273   3.522  19.461  0.00  0.00    +0.000 A 
ATOM     27  C   UNL     1       2.916   3.077  20.741  0.00  0.00    +0.000 A 
ATOM     28  C   UNL     1       1.600   2.643  20.959  0.00  0.00    +0.000 A 
ATOM     29  C   UNL     1       0.665   2.654  19.921  0.00  0.00    +0.000 A 
ATOM     30  C   UNL     1       1.006   3.091  18.635  0.00  0.00    +0.000 A 
ATOM     31  C   UNL     1       2.320   3.520  18.448  0.00  0.00    +0.000 A 
ATOM     32  N   UNL     1       2.992   4.004  17.360  0.00  0.00    +0.000 N 
ATOM     33  H   UNL     1       2.604   4.130  16.438  0.00  0.00    +0.000 HD
ENDBRANCH  23  24
ENDBRANCH  22  23
ENDBRANCH  21  22
ENDBRANCH  19  21
ENDBRANCH  18  19
ENDBRANCH   1  18
TORSDOF 8
ENDMDL
MODEL 4
REMARK VINA RESULT:      -7.8      3.445      6.116
REMARK  Name = 
REMARK  8 active torsions:
REMARK  status: ('A' for Active; 'I' for Inactive)
REMARK    1  A    between atoms: C_2  and  C_3
REMARK    2  A    between atoms: N_14  and  C_15
REMARK    3  A    between atoms: C_15  and  C_16
REMARK    4  A    between atoms: C_16  and  N_17
REMARK    5  A    between atoms: N_17  and  C_18
REMARK    6  A    between atoms: C_18  and  C_19
REMARK    7  A    between atoms: C_19  and  C_20
REMARK    8  A    between atoms: C_20  and  C_21
REMARK                            x       y       z     vdW  Elec       q    Type
REMARK                         _______ _______ _______ _____ _____    ______ ____
ROOT
ATOM      1  C   UNL     1       2.071   8.679  18.912  0.00  0.00    +0.000 C 
ENDROOT
BRANCH   1   7
ATOM      2  O   UNL     1      -0.521  13.714  19.826  0.00  0.00    +0.000 OA
ATOM      3  C   UNL     1      -0.968  12.581  19.659  0.00  0.00    +0.000 C 
ATOM      4  N   UNL     1      -0.171  11.496  19.290  0.00  0.00    +0.000 N 
ATOM      5  C   UNL     1      -0.644  10.140  18.975  0.00  0.00    +0.000 C 
ATOM      6  C   UNL     1       0.064   9.534  17.760  0.00  0.00    +0.000 C 
ATOM      7  N   UNL     1       1.533   9.556  17.850  0.00  0.00    +0.000 NA
ATOM      8  C   UNL     1       1.947  10.966  18.059  0.00  0.00    +0.000 C 
ATOM      9  C   UNL     1       1.290  11.665  19.272  0.00  0.00    +0.000 C 
BRANCH   3  10
ATOM     10  C   UNL     1      -2.440  12.402  19.809  0.00  0.00    +0.000 A 
ATOM     11  C   UNL     1      -3.040  12.759  21.022  0.00  0.00    +0.000 A 
ATOM     12  C   UNL     1      -4.432  12.725  21.150  0.00  0.00    +0.000 A 
ATOM     13  C   UNL     1      -5.228  12.364  20.059  0.00  0.00    +0.000 A 
ATOM     14 CL   UNL     1      -6.943  12.443  20.246  0.00  0.00    +0.000 Cl
ATOM     15  C   UNL     1      -4.626  11.961  18.864  0.00  0.00    +0.000 A 
ATOM     16 CL   UNL     1      -5.531  11.582  17.442  0.00  0.00    +0.000 Cl
ATOM     17  C   UNL     1      -3.234  11.916  18.766  0.00  0.00    +0.000 A 
ENDBRANCH   3  10
ENDBRANCH   1   7
BRANCH   1  18
ATOM     18  C   UNL     1       2.583   7.316  18.398  0.00  0.00    +0.000 C 
BRANCH  18  19
ATOM     19  N   UNL     1       3.415   7.469  17.198  0.00  0.00    +0.000 NA
ATOM     20  H   UNL     1       3.492   8.459  16.960  0.00  0.00    +0.000 HD
BRANCH  19  21
ATOM     21  C   UNL     1       4.751   6.927  17.442  0.00  0.00    +0.000 C 
BRANCH  21  22
ATOM     22  C   UNL     1       5.169   6.037  16.276  0.00  0.00    +0.000 C 
BRANCH  22  23
ATOM     23  C   UNL     1       5.415   4.612  16.765  0.00  0.00    +0.000 C 
BRANCH  23  24
ATOM     24  C   UNL     1       4.317   4.153  17.656  0.00  0.00    +0.000 A 
ATOM     25  N   UNL     1       3.047   4.007  17.320  0.00  0.00    +0.000 NA
ATOM     26  C   UNL     1       2.424   3.557  18.459  0.00  0.00    +0.000 A 
ATOM     27  C   UNL     1       1.077   3.231  18.666  0.00  0.00    +0.000 A 
ATOM     28  C   UNL     1       0.681   2.782  19.934  0.00  0.00    +0.000 A 
ATOM     29  C   UNL     1       1.610   2.663  20.970  0.00  0.00    +0.000 A 
ATOM     30  C   UNL     1       2.959   2.989  20.783  0.00  0.00    +0.000 A 
ATOM     31  C   UNL     1       3.326   3.429  19.511  0.00  0.00    +0.000 A 
ATOM     32  N   UNL     1       4.520   3.822  18.973  0.00  0.00    +0.000 N 
ATOM     33  H   UNL     1       5.400   3.862  19.464  0.00  0.00    +0.000 HD
ENDBRANCH  23  24
ENDBRANCH  22  23
ENDBRANCH  21  22
ENDBRANCH  19  21
ENDBRANCH  18  19
ENDBRANCH   1  18
TORSDOF 8
ENDMDL
MODEL 5
REMARK VINA RESULT:      -7.8      3.349      6.046
REMARK  Name = 
REMARK  8 active torsions:
REMARK  status: ('A' for Active; 'I' for Inactive)
REMARK    1  A    between atoms: C_2  and  C_3
REMARK    2  A    between atoms: N_14  and  C_15
REMARK    3  A    between atoms: C_15  and  C_16
REMARK    4  A    between atoms: C_16  and  N_17
REMARK    5  A    between atoms: N_17  and  C_18
REMARK    6  A    between atoms: C_18  and  C_19
REMARK    7  A    between atoms: C_19  and  C_20
REMARK    8  A    between atoms: C_20  and  C_21
REMARK                            x       y       z     vdW  Elec       q    Type
REMARK                         _______ _______ _______ _____ _____    ______ ____
ROOT
ATOM      1  C   UNL     1       2.002   8.295  18.986  0.00  0.00    +0.000 C 
ENDROOT
BRANCH   1   7
ATOM      2  O   UNL     1      -0.616  13.396  19.177  0.00  0.00    +0.000 OA
ATOM      3  C   UNL     1      -1.040  12.265  18.947  0.00  0.00    +0.000 C 
ATOM      4  N   UNL     1      -0.206  11.157  18.790  0.00  0.00    +0.000 N 
ATOM      5  C   UNL     1      -0.629   9.799  18.417  0.00  0.00    +0.000 C 
ATOM      6  C   UNL     1       0.313   9.144  17.402  0.00  0.00    +0.000 C 
ATOM      7  N   UNL     1       1.727   9.147  17.809  0.00  0.00    +0.000 NA
ATOM      8  C   UNL     1       2.116  10.556  18.064  0.00  0.00    +0.000 C 
ATOM      9  C   UNL     1       1.227  11.303  19.086  0.00  0.00    +0.000 C 
BRANCH   3  10
ATOM     10  C   UNL     1      -2.513  12.114  18.777  0.00  0.00    +0.000 A 
ATOM     11  C   UNL     1      -3.001  11.584  17.577  0.00  0.00    +0.000 A 
ATOM     12  C   UNL     1      -4.364  11.310  17.437  0.00  0.00    +0.000 A 
ATOM     13  C   UNL     1      -5.239  11.536  18.504  0.00  0.00    +0.000 A 
ATOM     14 CL   UNL     1      -6.893  11.079  18.308  0.00  0.00    +0.000 Cl
ATOM     15  C   UNL     1      -4.759  12.110  19.684  0.00  0.00    +0.000 A 
ATOM     16 CL   UNL     1      -5.749  12.345  21.081  0.00  0.00    +0.000 Cl
ATOM     17  C   UNL     1      -3.411  12.461  19.790  0.00  0.00    +0.000 A 
ENDBRANCH   3  10
ENDBRANCH   1   7
BRANCH   1  18
ATOM     18  C   UNL     1       3.102   7.237  18.750  0.00  0.00    +0.000 C 
BRANCH  18  19
ATOM     19  N   UNL     1       3.683   7.353  17.406  0.00  0.00    +0.000 NA
ATOM     20  H   UNL     1       3.847   8.337  17.189  0.00  0.00    +0.000 HD
BRANCH  19  21
ATOM     21  C   UNL     1       4.952   6.629  17.345  0.00  0.00    +0.000 C 
BRANCH  21  22
ATOM     22  C   UNL     1       4.993   5.762  16.091  0.00  0.00    +0.000 C 
BRANCH  22  23
ATOM     23  C   UNL     1       5.138   4.291  16.474  0.00  0.00    +0.000 C 
BRANCH  23  24
ATOM     24  C   UNL     1       4.202   3.926  17.569  0.00  0.00    +0.000 A 
ATOM     25  N   UNL     1       2.885   4.033  17.539  0.00  0.00    +0.000 NA
ATOM     26  C   UNL     1       2.460   3.569  18.760  0.00  0.00    +0.000 A 
ATOM     27  C   UNL     1       1.156   3.453  19.262  0.00  0.00    +0.000 A 
ATOM     28  C   UNL     1       0.977   2.937  20.553  0.00  0.00    +0.000 A 
ATOM     29  C   UNL     1       2.075   2.548  21.324  0.00  0.00    +0.000 A 
ATOM     30  C   UNL     1       3.384   2.662  20.841  0.00  0.00    +0.000 A 
ATOM     31  C   UNL     1       3.533   3.175  19.552  0.00  0.00    +0.000 A 
ATOM     32  N   UNL     1       4.628   3.419  18.772  0.00  0.00    +0.000 N 
ATOM     33  H   UNL     1       5.587   3.256  19.037  0.00  0.00    +0.000 HD
ENDBRANCH  23  24
ENDBRANCH  22  23
ENDBRANCH  21  22
ENDBRANCH  19  21
ENDBRANCH  18  19
ENDBRANCH   1  18
TORSDOF 8
ENDMDL
MODEL 6
REMARK VINA RESULT:      -7.8      2.594      3.900
REMARK  Name = 
REMARK  8 active torsions:
REMARK  status: ('A' for Active; 'I' for Inactive)
REMARK    1  A    between atoms: C_2  and  C_3
REMARK    2  A    between atoms: N_14  and  C_15
REMARK    3  A    between atoms: C_15  and  C_16
REMARK    4  A    between atoms: C_16  and  N_17
REMARK    5  A    between atoms: N_17  and  C_18
REMARK    6  A    between atoms: C_18  and  C_19
REMARK    7  A    between atoms: C_19  and  C_20
REMARK    8  A    between atoms: C_20  and  C_21
REMARK                            x       y       z     vdW  Elec       q    Type
REMARK                         _______ _______ _______ _____ _____    ______ ____
ROOT
ATOM      1  C   UNL     1       2.013   5.540  17.855  0.00  0.00    +0.000 C 
ENDROOT
BRANCH   1   7
ATOM      2  O   UNL     1       0.925   9.031  22.275  0.00  0.00    +0.000 OA
ATOM      3  C   UNL     1       0.933   9.225  21.061  0.00  0.00    +0.000 C 
ATOM      4  N   UNL     1       1.382   8.274  20.142  0.00  0.00    +0.000 N 
ATOM      5  C   UNL     1       1.515   8.467  18.690  0.00  0.00    +0.000 C 
ATOM      6  C   UNL     1       2.805   7.860  18.130  0.00  0.00    +0.000 C 
ATOM      7  N   UNL     1       3.002   6.444  18.480  0.00  0.00    +0.000 NA
ATOM      8  C   UNL     1       2.965   6.340  19.959  0.00  0.00    +0.000 C 
ATOM      9  C   UNL     1       1.693   6.919  20.621  0.00  0.00    +0.000 C 
BRANCH   3  10
ATOM     10  C   UNL     1       0.491  10.566  20.584  0.00  0.00    +0.000 A 
ATOM     11  C   UNL     1       1.312  11.672  20.831  0.00  0.00    +0.000 A 
ATOM     12  C   UNL     1       0.989  12.918  20.286  0.00  0.00    +0.000 A 
ATOM     13  C   UNL     1      -0.137  13.056  19.469  0.00  0.00    +0.000 A 
ATOM     14 CL   UNL     1      -0.425  14.594  18.739  0.00  0.00    +0.000 Cl
ATOM     15  C   UNL     1      -0.982  11.962  19.263  0.00  0.00    +0.000 A 
ATOM     16 CL   UNL     1      -2.344  12.020  18.201  0.00  0.00    +0.000 Cl
ATOM     17  C   UNL     1      -0.702  10.740  19.877  0.00  0.00    +0.000 A 
ENDBRANCH   3  10
ENDBRANCH   1   7
BRANCH   1  18
ATOM     18  C   UNL     1       1.435   4.482  18.821  0.00  0.00    +0.000 C 
BRANCH  18  19
ATOM     19  N   UNL     1       1.223   3.195  18.147  0.00  0.00    +0.000 NA
ATOM     20  H   UNL     1       1.851   3.122  17.345  0.00  0.00    +0.000 HD
BRANCH  19  21
ATOM     21  C   UNL     1       1.494   2.096  19.073  0.00  0.00    +0.000 C 
BRANCH  21  22
ATOM     22  C   UNL     1       2.824   1.437  18.719  0.00  0.00    +0.000 C 
BRANCH  22  23
ATOM     23  C   UNL     1       3.952   2.061  19.538  0.00  0.00    +0.000 C 
BRANCH  23  24
ATOM     24  C   UNL     1       4.688   3.081  18.746  0.00  0.00    +0.000 A 
ATOM     25  N   UNL     1       4.507   3.358  17.467  0.00  0.00    +0.000 NA
ATOM     26  C   UNL     1       5.399   4.366  17.189  0.00  0.00    +0.000 A 
ATOM     27  C   UNL     1       5.626   5.043  15.983  0.00  0.00    +0.000 A 
ATOM     28  C   UNL     1       6.600   6.052  15.952  0.00  0.00    +0.000 A 
ATOM     29  C   UNL     1       7.328   6.375  17.100  0.00  0.00    +0.000 A 
ATOM     30  C   UNL     1       7.118   5.705  18.311  0.00  0.00    +0.000 A 
ATOM     31  C   UNL     1       6.141   4.709  18.314  0.00  0.00    +0.000 A 
ATOM     32  N   UNL     1       5.673   3.871  19.288  0.00  0.00    +0.000 N 
ATOM     33  H   UNL     1       5.999   3.838  20.241  0.00  0.00    +0.000 HD
ENDBRANCH  23  24
ENDBRANCH  22  23
ENDBRANCH  21  22
ENDBRANCH  19  21
ENDBRANCH  18  19
ENDBRANCH   1  18
TORSDOF 8
ENDMDL
MODEL 7
REMARK VINA RESULT:      -7.7      2.777      4.309
REMARK  Name = 
REMARK  8 active torsions:
REMARK  status: ('A' for Active; 'I' for Inactive)
REMARK    1  A    between atoms: C_2  and  C_3
REMARK    2  A    between atoms: N_14  and  C_15
REMARK    3  A    between atoms: C_15  and  C_16
REMARK    4  A    between atoms: C_16  and  N_17
REMARK    5  A    between atoms: N_17  and  C_18
REMARK    6  A    between atoms: C_18  and  C_19
REMARK    7  A    between atoms: C_19  and  C_20
REMARK    8  A    between atoms: C_20  and  C_21
REMARK                            x       y       z     vdW  Elec       q    Type
REMARK                         _______ _______ _______ _____ _____    ______ ____
ROOT
ATOM      1  C   UNL     1       1.518   6.233  17.850  0.00  0.00    +0.000 C 
ENDROOT
BRANCH   1   7
ATOM      2  O   UNL     1       0.850  10.289  21.851  0.00  0.00    +0.000 OA
ATOM      3  C   UNL     1       0.917  10.351  20.625  0.00  0.00    +0.000 C 
ATOM      4  N   UNL     1       1.243   9.254  19.825  0.00  0.00    +0.000 N 
ATOM      5  C   UNL     1       1.440   9.272  18.368  0.00  0.00    +0.000 C 
ATOM      6  C   UNL     1       2.640   8.429  17.924  0.00  0.00    +0.000 C 
ATOM      7  N   UNL     1       2.615   7.044  18.421  0.00  0.00    +0.000 NA
ATOM      8  C   UNL     1       2.524   7.102  19.901  0.00  0.00    +0.000 C 
ATOM      9  C   UNL     1       1.336   7.925  20.449  0.00  0.00    +0.000 C 
BRANCH   3  10
ATOM     10  C   UNL     1       0.692  11.684  19.999  0.00  0.00    +0.000 A 
ATOM     11  C   UNL     1      -0.596  12.009  19.556  0.00  0.00    +0.000 A 
ATOM     12  C   UNL     1      -0.868  13.296  19.083  0.00  0.00    +0.000 A 
ATOM     13  C   UNL     1       0.135  14.269  19.079  0.00  0.00    +0.000 A 
ATOM     14 CL   UNL     1      -0.288  15.868  18.584  0.00  0.00    +0.000 Cl
ATOM     15  C   UNL     1       1.432  13.930  19.476  0.00  0.00    +0.000 A 
ATOM     16 CL   UNL     1       2.710  15.088  19.585  0.00  0.00    +0.000 Cl
ATOM     17  C   UNL     1       1.720  12.621  19.868  0.00  0.00    +0.000 A 
ENDBRANCH   3  10
ENDBRANCH   1   7
BRANCH   1  18
ATOM     18  C   UNL     1       1.768   4.710  17.910  0.00  0.00    +0.000 C 
BRANCH  18  19
ATOM     19  N   UNL     1       1.089   4.096  19.058  0.00  0.00    +0.000 NA
ATOM     20  H   UNL     1       0.228   3.646  18.745  0.00  0.00    +0.000 HD
BRANCH  19  21
ATOM     21  C   UNL     1       1.958   3.095  19.676  0.00  0.00    +0.000 C 
BRANCH  21  22
ATOM     22  C   UNL     1       2.297   2.008  18.661  0.00  0.00    +0.000 C 
BRANCH  22  23
ATOM     23  C   UNL     1       3.778   1.648  18.754  0.00  0.00    +0.000 C 
BRANCH  23  24
ATOM     24  C   UNL     1       4.637   2.831  18.483  0.00  0.00    +0.000 A 
ATOM     25  N   UNL     1       5.238   3.583  19.387  0.00  0.00    +0.000 NA
ATOM     26  C   UNL     1       5.917   4.536  18.666  0.00  0.00    +0.000 A 
ATOM     27  C   UNL     1       6.728   5.584  19.121  0.00  0.00    +0.000 A 
ATOM     28  C   UNL     1       7.324   6.432  18.177  0.00  0.00    +0.000 A 
ATOM     29  C   UNL     1       7.113   6.236  16.810  0.00  0.00    +0.000 A 
ATOM     30  C   UNL     1       6.302   5.197  16.337  0.00  0.00    +0.000 A 
ATOM     31  C   UNL     1       5.725   4.367  17.299  0.00  0.00    +0.000 A 
ATOM     32  N   UNL     1       4.901   3.280  17.212  0.00  0.00    +0.000 N 
ATOM     33  H   UNL     1       4.547   2.878  16.358  0.00  0.00    +0.000 HD
ENDBRANCH  23  24
ENDBRANCH  22  23
ENDBRANCH  21  22
ENDBRANCH  19  21
ENDBRANCH  18  19
ENDBRANCH   1  18
TORSDOF 8
ENDMDL
MODEL 8
REMARK VINA RESULT:      -7.7      4.082      8.930
REMARK  Name = 
REMARK  8 active torsions:
REMARK  status: ('A' for Active; 'I' for Inactive)
REMARK    1  A    between atoms: C_2  and  C_3
REMARK    2  A    between atoms: N_14  and  C_15
REMARK    3  A    between atoms: C_15  and  C_16
REMARK    4  A    between atoms: C_16  and  N_17
REMARK    5  A    between atoms: N_17  and  C_18
REMARK    6  A    between atoms: C_18  and  C_19
REMARK    7  A    between atoms: C_19  and  C_20
REMARK    8  A    between atoms: C_20  and  C_21
REMARK                            x       y       z     vdW  Elec       q    Type
REMARK                         _______ _______ _______ _____ _____    ______ ____
ROOT
ATOM      1  C   UNL     1       1.340   3.880  19.326  0.00  0.00    +0.000 C 
ENDROOT
BRANCH   1   7
ATOM      2  O   UNL     1       6.975   4.213  18.306  0.00  0.00    +0.000 OA
ATOM      3  C   UNL     1       6.003   4.228  17.552  0.00  0.00    +0.000 C 
ATOM      4  N   UNL     1       4.700   3.975  17.985  0.00  0.00    +0.000 N 
ATOM      5  C   UNL     1       3.507   3.877  17.132  0.00  0.00    +0.000 C 
ATOM      6  C   UNL     1       2.584   2.723  17.537  0.00  0.00    +0.000 C 
ATOM      7  N   UNL     1       2.200   2.734  18.958  0.00  0.00    +0.000 NA
ATOM      8  C   UNL     1       3.449   2.723  19.759  0.00  0.00    +0.000 C 
ATOM      9  C   UNL     1       4.445   3.859  19.429  0.00  0.00    +0.000 C 
BRANCH   3  10
ATOM     10  C   UNL     1       6.269   4.477  16.107  0.00  0.00    +0.000 A 
ATOM     11  C   UNL     1       7.329   5.320  15.754  0.00  0.00    +0.000 A 
ATOM     12  C   UNL     1       7.684   5.471  14.410  0.00  0.00    +0.000 A 
ATOM     13  C   UNL     1       7.001   4.759  13.419  0.00  0.00    +0.000 A 
ATOM     14 CL   UNL     1       7.553   4.905  11.790  0.00  0.00    +0.000 Cl
ATOM     15  C   UNL     1       5.912   3.956  13.769  0.00  0.00    +0.000 A 
ATOM     16 CL   UNL     1       5.067   2.976  12.624  0.00  0.00    +0.000 Cl
ATOM     17  C   UNL     1       5.507   3.873  15.103  0.00  0.00    +0.000 A 
ENDBRANCH   3  10
ENDBRANCH   1   7
BRANCH   1  18
ATOM     18  C   UNL     1       1.861   4.691  20.533  0.00  0.00    +0.000 C 
BRANCH  18  19
ATOM     19  N   UNL     1       1.631   6.130  20.355  0.00  0.00    +0.000 NA
ATOM     20  H   UNL     1       1.639   6.593  21.266  0.00  0.00    +0.000 HD
BRANCH  19  21
ATOM     21  C   UNL     1       2.680   6.704  19.514  0.00  0.00    +0.000 C 
BRANCH  21  22
ATOM     22  C   UNL     1       2.095   7.118  18.167  0.00  0.00    +0.000 C 
BRANCH  22  23
ATOM     23  C   UNL     1       2.363   8.600  17.912  0.00  0.00    +0.000 C 
BRANCH  23  24
ATOM     24  C   UNL     1       1.315   9.450  18.536  0.00  0.00    +0.000 A 
ATOM     25  N   UNL     1       1.108   9.609  19.831  0.00  0.00    +0.000 NA
ATOM     26  C   UNL     1       0.052  10.484  19.921  0.00  0.00    +0.000 A 
ATOM     27  C   UNL     1      -0.577  11.004  21.060  0.00  0.00    +0.000 A 
ATOM     28  C   UNL     1      -1.644  11.898  20.889  0.00  0.00    +0.000 A 
ATOM     29  C   UNL     1      -2.072  12.261  19.610  0.00  0.00    +0.000 A 
ATOM     30  C   UNL     1      -1.458  11.747  18.461  0.00  0.00    +0.000 A 
ATOM     31  C   UNL     1      -0.397  10.863  18.661  0.00  0.00    +0.000 A 
ATOM     32  N   UNL     1       0.420  10.185  17.799  0.00  0.00    +0.000 N 
ATOM     33  H   UNL     1       0.370  10.219  16.793  0.00  0.00    +0.000 HD
ENDBRANCH  23  24
ENDBRANCH  22  23
ENDBRANCH  21  22
ENDBRANCH  19  21
ENDBRANCH  18  19
ENDBRANCH   1  18
TORSDOF 8
ENDMDL
MODEL 9
REMARK VINA RESULT:      -7.7      2.777      4.197
REMARK  Name = 
REMARK  8 active torsions:
REMARK  status: ('A' for Active; 'I' for Inactive)
REMARK    1  A    between atoms: C_2  and  C_3
REMARK    2  A    between atoms: N_14  and  C_15
REMARK    3  A    between atoms: C_15  and  C_16
REMARK    4  A    between atoms: C_16  and  N_17
REMARK    5  A    between atoms: N_17  and  C_18
REMARK    6  A    between atoms: C_18  and  C_19
REMARK    7  A    between atoms: C_19  and  C_20
REMARK    8  A    between atoms: C_20  and  C_21
REMARK                            x       y       z     vdW  Elec       q    Type
REMARK                         _______ _______ _______ _____ _____    ______ ____
ROOT
ATOM      1  C   UNL     1       1.474   5.977  17.885  0.00  0.00    +0.000 C 
ENDROOT
BRANCH   1   7
ATOM      2  O   UNL     1       1.056  10.146  21.804  0.00  0.00    +0.000 OA
ATOM      3  C   UNL     1       1.028  10.171  20.575  0.00  0.00    +0.000 C 
ATOM      4  N   UNL     1       1.307   9.054  19.785  0.00  0.00    +0.000 N 
ATOM      5  C   UNL     1       1.391   9.029  18.317  0.00  0.00    +0.000 C 
ATOM      6  C   UNL     1       2.565   8.189  17.806  0.00  0.00    +0.000 C 
ATOM      7  N   UNL     1       2.600   6.819  18.345  0.00  0.00    +0.000 NA
ATOM      8  C   UNL     1       2.623   6.922  19.825  0.00  0.00    +0.000 C 
ATOM      9  C   UNL     1       1.468   7.747  20.439  0.00  0.00    +0.000 C 
BRANCH   3  10
ATOM     10  C   UNL     1       0.734  11.481  19.928  0.00  0.00    +0.000 A 
ATOM     11  C   UNL     1      -0.602  11.872  19.778  0.00  0.00    +0.000 A 
ATOM     12  C   UNL     1      -0.907  13.147  19.295  0.00  0.00    +0.000 A 
ATOM     13  C   UNL     1       0.119  14.046  18.989  0.00  0.00    +0.000 A 
ATOM     14 CL   UNL     1      -0.320  15.642  18.498  0.00  0.00    +0.000 Cl
ATOM     15  C   UNL     1       1.452  13.638  19.093  0.00  0.00    +0.000 A 
ATOM     16 CL   UNL     1       2.782  14.707  18.820  0.00  0.00    +0.000 Cl
ATOM     17  C   UNL     1       1.752  12.335  19.496  0.00  0.00    +0.000 A 
ENDBRANCH   3  10
ENDBRANCH   1   7
BRANCH   1  18
ATOM     18  C   UNL     1       1.725   4.461  18.036  0.00  0.00    +0.000 C 
BRANCH  18  19
ATOM     19  N   UNL     1       1.053   3.919  19.224  0.00  0.00    +0.000 NA
ATOM     20  H   UNL     1       0.068   3.749  19.012  0.00  0.00    +0.000 HD
BRANCH  19  21
ATOM     21  C   UNL     1       1.683   2.661  19.625  0.00  0.00    +0.000 C 
BRANCH  21  22
ATOM     22  C   UNL     1       2.809   2.940  20.616  0.00  0.00    +0.000 C 
BRANCH  22  23
ATOM     23  C   UNL     1       4.121   2.355  20.099  0.00  0.00    +0.000 C 
BRANCH  23  24
ATOM     24  C   UNL     1       4.803   3.299  19.176  0.00  0.00    +0.000 A 
ATOM     25  N   UNL     1       4.647   3.361  17.865  0.00  0.00    +0.000 NA
ATOM     26  C   UNL     1       5.467   4.385  17.455  0.00  0.00    +0.000 A 
ATOM     27  C   UNL     1       5.684   4.886  16.164  0.00  0.00    +0.000 A 
ATOM     28  C   UNL     1       6.576   5.955  16.000  0.00  0.00    +0.000 A 
ATOM     29  C   UNL     1       7.235   6.509  17.100  0.00  0.00    +0.000 A 
ATOM     30  C   UNL     1       7.034   6.018  18.396  0.00  0.00    +0.000 A 
ATOM     31  C   UNL     1       6.138   4.956  18.530  0.00  0.00    +0.000 A 
ATOM     32  N   UNL     1       5.702   4.242  19.611  0.00  0.00    +0.000 N 
ATOM     33  H   UNL     1       5.995   4.383  20.565  0.00  0.00    +0.000 HD
ENDBRANCH  23  24
ENDBRANCH  22  23
ENDBRANCH  21  22
ENDBRANCH  19  21
ENDBRANCH  18  19
ENDBRANCH   1  18
TORSDOF 8
ENDMDL
