MODEL 1
REMARK VINA RESULT:      -7.3      0.000      0.000
REMARK  Name = 
REMARK  6 active torsions:
REMARK  status: ('A' for Active; 'I' for Inactive)
REMARK    1  A    between atoms: C_1  and  C_2
REMARK    2  A    between atoms: C_2  and  N_3
REMARK    3  A    between atoms: C_10  and  C_11
REMARK    4  A    between atoms: C_16  and  C_17
REMARK    5  A    between atoms: C_17  and  O_19
REMARK    6  A    between atoms: O_19  and  C_20
REMARK                            x       y       z     vdW  Elec       q    Type
REMARK                         _______ _______ _______ _____ _____    ______ ____
ROOT
ATOM      1  N   UNL     1      -1.450  13.869  21.922  0.00  0.00    +0.000 N 
ATOM      2  C   UNL     1      -0.594  12.875  21.524  0.00  0.00    +0.000 C 
ATOM      3  O   UNL     1       0.594  12.844  21.867  0.00  0.00    +0.000 OA
ATOM      4  N   UNL     1      -1.182  11.935  20.700  0.00  0.00    +0.000 N 
ATOM      5  C   UNL     1      -0.393  10.922  20.126  0.00  0.00    +0.000 A 
ATOM      6  C   UNL     1       0.298  10.018  20.927  0.00  0.00    +0.000 A 
ATOM      7  C   UNL     1       1.116   9.045  20.333  0.00  0.00    +0.000 A 
ATOM      8  C   UNL     1       1.249   9.018  18.947  0.00  0.00    +0.000 A 
ATOM      9  C   UNL     1       0.493   9.940  18.226  0.00  0.00    +0.000 A 
ATOM     10  N   UNL     1      -0.363  10.853  18.777  0.00  0.00    +0.000 NA
ATOM     11  H   UNL     1      -2.446  13.740  21.798  0.00  0.00    +0.000 HD
ATOM     12  H   UNL     1      -1.850  12.327  20.047  0.00  0.00    +0.000 HD
ENDROOT
BRANCH   8  13
ATOM     13  C   UNL     1       2.217   8.131  18.231  0.00  0.00    +0.000 C 
ATOM     14  O   UNL     1       2.684   8.522  17.164  0.00  0.00    +0.000 OA
ATOM     15  N   UNL     1       2.490   6.895  18.807  0.00  0.00    +0.000 N 
ATOM     16  C   UNL     1       3.273   5.936  18.132  0.00  0.00    +0.000 A 
ATOM     17  C   UNL     1       4.610   6.190  17.856  0.00  0.00    +0.000 A 
ATOM     18  C   UNL     1       5.361   5.196  17.217  0.00  0.00    +0.000 A 
ATOM     19  C   UNL     1       4.737   4.006  16.837  0.00  0.00    +0.000 A 
ATOM     20  C   UNL     1       3.410   3.837  17.177  0.00  0.00    +0.000 A 
ATOM     21  N   UNL     1       2.682   4.754  17.863  0.00  0.00    +0.000 NA
ATOM     22  H   UNL     1       1.760   6.484  19.371  0.00  0.00    +0.000 HD
BRANCH  18  23
ATOM     23  C   UNL     1       6.811   5.343  16.921  0.00  0.00    +0.000 C 
ATOM     24  O   UNL     1       7.246   5.876  15.913  0.00  0.00    +0.000 OA
BRANCH  23  25
ATOM     25  O   UNL     1       7.558   4.778  17.904  0.00  0.00    +0.000 OA
ATOM     26  C   UNL     1       7.895   5.661  18.973  0.00  0.00    +0.000 C 
ENDBRANCH  23  25
ENDBRANCH  18  23
ENDBRANCH   8  13
BRANCH   1  28
ATOM     27  C   UNL     1      -1.848  16.201  22.669  0.00  0.00    +0.000 C 
ATOM     28  C   UNL     1      -0.980  14.956  22.766  0.00  0.00    +0.000 C 
ENDBRANCH   1  28
TORSDOF 4
ENDMDL
MODEL 2
REMARK VINA RESULT:      -7.3      1.923      2.264
REMARK  Name = 
REMARK  6 active torsions:
REMARK  status: ('A' for Active; 'I' for Inactive)
REMARK    1  A    between atoms: C_1  and  C_2
REMARK    2  A    between atoms: C_2  and  N_3
REMARK    3  A    between atoms: C_10  and  C_11
REMARK    4  A    between atoms: C_16  and  C_17
REMARK    5  A    between atoms: C_17  and  O_19
REMARK    6  A    between atoms: O_19  and  C_20
REMARK                            x       y       z     vdW  Elec       q    Type
REMARK                         _______ _______ _______ _____ _____    ______ ____
ROOT
ATOM      1  N   UNL     1      -3.279  13.141  21.885  0.00  0.00    +0.000 N 
ATOM      2  C   UNL     1      -2.473  12.473  20.999  0.00  0.00    +0.000 C 
ATOM      3  O   UNL     1      -2.811  12.255  19.829  0.00  0.00    +0.000 OA
ATOM      4  N   UNL     1      -1.271  12.063  21.543  0.00  0.00    +0.000 N 
ATOM      5  C   UNL     1      -0.397  11.269  20.778  0.00  0.00    +0.000 A 
ATOM      6  C   UNL     1       0.127  11.740  19.578  0.00  0.00    +0.000 A 
ATOM      7  C   UNL     1       0.960  10.913  18.810  0.00  0.00    +0.000 A 
ATOM      8  C   UNL     1       1.227   9.618  19.246  0.00  0.00    +0.000 A 
ATOM      9  C   UNL     1       0.686   9.246  20.476  0.00  0.00    +0.000 A 
ATOM     10  N   UNL     1      -0.072  10.056  21.275  0.00  0.00    +0.000 NA
ATOM     11  H   UNL     1      -2.881  13.481  22.751  0.00  0.00    +0.000 HD
ATOM     12  H   UNL     1      -1.346  11.749  22.503  0.00  0.00    +0.000 HD
ENDROOT
BRANCH   8  13
ATOM     13  C   UNL     1       1.964   8.610  18.425  0.00  0.00    +0.000 C 
ATOM     14  O   UNL     1       2.146   8.850  17.234  0.00  0.00    +0.000 OA
ATOM     15  N   UNL     1       2.360   7.439  19.063  0.00  0.00    +0.000 N 
ATOM     16  C   UNL     1       2.928   6.372  18.337  0.00  0.00    +0.000 A 
ATOM     17  C   UNL     1       4.152   6.530  17.701  0.00  0.00    +0.000 A 
ATOM     18  C   UNL     1       4.698   5.435  17.021  0.00  0.00    +0.000 A 
ATOM     19  C   UNL     1       3.982   4.238  16.964  0.00  0.00    +0.000 A 
ATOM     20  C   UNL     1       2.784   4.171  17.649  0.00  0.00    +0.000 A 
ATOM     21  N   UNL     1       2.271   5.195  18.377  0.00  0.00    +0.000 NA
ATOM     22  H   UNL     1       1.794   7.130  19.841  0.00  0.00    +0.000 HD
BRANCH  18  23
ATOM     23  C   UNL     1       6.025   5.479  16.350  0.00  0.00    +0.000 C 
ATOM     24  O   UNL     1       6.733   6.472  16.314  0.00  0.00    +0.000 OA
BRANCH  23  25
ATOM     25  O   UNL     1       6.306   4.283  15.771  0.00  0.00    +0.000 OA
ATOM     26  C   UNL     1       6.706   4.366  14.405  0.00  0.00    +0.000 C 
ENDBRANCH  23  25
ENDBRANCH  18  23
ENDBRANCH   8  13
BRANCH   1  28
ATOM     27  C   UNL     1      -5.728  12.875  22.179  0.00  0.00    +0.000 C 
ATOM     28  C   UNL     1      -4.594  13.611  21.481  0.00  0.00    +0.000 C 
ENDBRANCH   1  28
TORSDOF 4
ENDMDL
MODEL 3
REMARK VINA RESULT:      -7.3      6.807     10.090
REMARK  Name = 
REMARK  6 active torsions:
REMARK  status: ('A' for Active; 'I' for Inactive)
REMARK    1  A    between atoms: C_1  and  C_2
REMARK    2  A    between atoms: C_2  and  N_3
REMARK    3  A    between atoms: C_10  and  C_11
REMARK    4  A    between atoms: C_16  and  C_17
REMARK    5  A    between atoms: C_17  and  O_19
REMARK    6  A    between atoms: O_19  and  C_20
REMARK                            x       y       z     vdW  Elec       q    Type
REMARK                         _______ _______ _______ _____ _____    ______ ____
ROOT
ATOM      1  N   UNL     1       4.726   2.831  18.192  0.00  0.00    +0.000 N 
ATOM      2  C   UNL     1       5.368   3.990  18.546  0.00  0.00    +0.000 C 
ATOM      3  O   UNL     1       5.116   4.595  19.594  0.00  0.00    +0.000 OA
ATOM      4  N   UNL     1       6.300   4.412  17.617  0.00  0.00    +0.000 N 
ATOM      5  C   UNL     1       6.952   5.646  17.798  0.00  0.00    +0.000 A 
ATOM      6  C   UNL     1       7.736   5.878  18.924  0.00  0.00    +0.000 A 
ATOM      7  C   UNL     1       8.339   7.132  19.107  0.00  0.00    +0.000 A 
ATOM      8  C   UNL     1       8.118   8.139  18.169  0.00  0.00    +0.000 A 
ATOM      9  C   UNL     1       7.347   7.803  17.058  0.00  0.00    +0.000 A 
ATOM     10  N   UNL     1       6.805   6.569  16.823  0.00  0.00    +0.000 NA
ATOM     11  H   UNL     1       5.110   2.264  17.447  0.00  0.00    +0.000 HD
ATOM     12  H   UNL     1       6.017   4.257  16.657  0.00  0.00    +0.000 HD
ENDROOT
BRANCH   8  13
ATOM     13  C   UNL     1       8.578   9.548  18.354  0.00  0.00    +0.000 C 
ATOM     14  O   UNL     1       8.211  10.392  17.539  0.00  0.00    +0.000 OA
ATOM     15  N   UNL     1       9.434   9.802  19.420  0.00  0.00    +0.000 N 
ATOM     16  C   UNL     1      10.035  11.067  19.585  0.00  0.00    +0.000 A 
ATOM     17  C   UNL     1       9.255  12.186  19.845  0.00  0.00    +0.000 A 
ATOM     18  C   UNL     1       9.895  13.416  20.039  0.00  0.00    +0.000 A 
ATOM     19  C   UNL     1      11.283  13.491  19.921  0.00  0.00    +0.000 A 
ATOM     20  C   UNL     1      11.974  12.319  19.684  0.00  0.00    +0.000 A 
ATOM     21  N   UNL     1      11.383  11.103  19.568  0.00  0.00    +0.000 NA
ATOM     22  H   UNL     1      10.027   9.040  19.720  0.00  0.00    +0.000 HD
BRANCH  18  23
ATOM     23  C   UNL     1       9.160  14.666  20.373  0.00  0.00    +0.000 C 
ATOM     24  O   UNL     1       9.291  15.267  21.427  0.00  0.00    +0.000 OA
BRANCH  23  25
ATOM     25  O   UNL     1       8.320  15.009  19.364  0.00  0.00    +0.000 OA
ATOM     26  C   UNL     1       8.951  15.661  18.263  0.00  0.00    +0.000 C 
ENDBRANCH  23  25
ENDBRANCH  18  23
ENDBRANCH   8  13
BRANCH   1  28
ATOM     27  C   UNL     1       2.297   2.403  18.452  0.00  0.00    +0.000 C 
ATOM     28  C   UNL     1       3.691   2.269  19.044  0.00  0.00    +0.000 C 
ENDBRANCH   1  28
TORSDOF 4
ENDMDL
MODEL 4
REMARK VINA RESULT:      -7.2      3.126      4.033
REMARK  Name = 
REMARK  6 active torsions:
REMARK  status: ('A' for Active; 'I' for Inactive)
REMARK    1  A    between atoms: C_1  and  C_2
REMARK    2  A    between atoms: C_2  and  N_3
REMARK    3  A    between atoms: C_10  and  C_11
REMARK    4  A    between atoms: C_16  and  C_17
REMARK    5  A    between atoms: C_17  and  O_19
REMARK    6  A    between atoms: O_19  and  C_20
REMARK                            x       y       z     vdW  Elec       q    Type
REMARK                         _______ _______ _______ _____ _____    ______ ____
ROOT
ATOM      1  N   UNL     1      -4.415  12.264  18.328  0.00  0.00    +0.000 N 
ATOM      2  C   UNL     1      -3.391  11.356  18.232  0.00  0.00    +0.000 C 
ATOM      3  O   UNL     1      -3.507  10.288  17.618  0.00  0.00    +0.000 OA
ATOM      4  N   UNL     1      -2.242  11.744  18.893  0.00  0.00    +0.000 N 
ATOM      5  C   UNL     1      -1.152  10.858  18.972  0.00  0.00    +0.000 A 
ATOM      6  C   UNL     1      -0.522  10.400  17.818  0.00  0.00    +0.000 A 
ATOM      7  C   UNL     1       0.533   9.481  17.919  0.00  0.00    +0.000 A 
ATOM      8  C   UNL     1       0.915   9.015  19.175  0.00  0.00    +0.000 A 
ATOM      9  C   UNL     1       0.250   9.555  20.274  0.00  0.00    +0.000 A 
ATOM     10  N   UNL     1      -0.735  10.502  20.206  0.00  0.00    +0.000 NA
ATOM     11  H   UNL     1      -4.212  13.202  18.648  0.00  0.00    +0.000 HD
ATOM     12  H   UNL     1      -2.419  12.224  19.767  0.00  0.00    +0.000 HD
ENDROOT
BRANCH   8  13
ATOM     13  C   UNL     1       1.912   7.920  19.377  0.00  0.00    +0.000 C 
ATOM     14  O   UNL     1       2.252   7.647  20.525  0.00  0.00    +0.000 OA
ATOM     15  N   UNL     1       2.423   7.309  18.237  0.00  0.00    +0.000 N 
ATOM     16  C   UNL     1       3.473   6.372  18.322  0.00  0.00    +0.000 A 
ATOM     17  C   UNL     1       3.282   5.163  18.978  0.00  0.00    +0.000 A 
ATOM     18  C   UNL     1       4.339   4.245  19.008  0.00  0.00    +0.000 A 
ATOM     19  C   UNL     1       5.559   4.588  18.423  0.00  0.00    +0.000 A 
ATOM     20  C   UNL     1       5.644   5.803  17.774  0.00  0.00    +0.000 A 
ATOM     21  N   UNL     1       4.611   6.676  17.665  0.00  0.00    +0.000 NA
ATOM     22  H   UNL     1       2.462   7.871  17.397  0.00  0.00    +0.000 HD
BRANCH  18  23
ATOM     23  C   UNL     1       4.226   2.902  19.637  0.00  0.00    +0.000 C 
ATOM     24  O   UNL     1       5.103   2.398  20.319  0.00  0.00    +0.000 OA
BRANCH  23  25
ATOM     25  O   UNL     1       3.039   2.325  19.319  0.00  0.00    +0.000 OA
ATOM     26  C   UNL     1       2.926   1.915  17.957  0.00  0.00    +0.000 C 
ENDBRANCH  23  25
ENDBRANCH  18  23
ENDBRANCH   8  13
BRANCH   1  28
ATOM     27  C   UNL     1      -6.598  11.113  18.578  0.00  0.00    +0.000 C 
ATOM     28  C   UNL     1      -5.705  11.992  17.715  0.00  0.00    +0.000 C 
ENDBRANCH   1  28
TORSDOF 4
ENDMDL
MODEL 5
REMARK VINA RESULT:      -7.1      2.761      3.342
REMARK  Name = 
REMARK  6 active torsions:
REMARK  status: ('A' for Active; 'I' for Inactive)
REMARK    1  A    between atoms: C_1  and  C_2
REMARK    2  A    between atoms: C_2  and  N_3
REMARK    3  A    between atoms: C_10  and  C_11
REMARK    4  A    between atoms: C_16  and  C_17
REMARK    5  A    between atoms: C_17  and  O_19
REMARK    6  A    between atoms: O_19  and  C_20
REMARK                            x       y       z     vdW  Elec       q    Type
REMARK                         _______ _______ _______ _____ _____    ______ ____
ROOT
ATOM      1  N   UNL     1      -1.041  16.116  18.908  0.00  0.00    +0.000 N 
ATOM      2  C   UNL     1      -0.333  14.961  19.123  0.00  0.00    +0.000 C 
ATOM      3  O   UNL     1       0.902  14.941  19.185  0.00  0.00    +0.000 OA
ATOM      4  N   UNL     1      -1.129  13.839  19.246  0.00  0.00    +0.000 N 
ATOM      5  C   UNL     1      -0.530  12.571  19.358  0.00  0.00    +0.000 A 
ATOM      6  C   UNL     1       0.322  12.276  20.418  0.00  0.00    +0.000 A 
ATOM      7  C   UNL     1       0.945  11.020  20.483  0.00  0.00    +0.000 A 
ATOM      8  C   UNL     1       0.724  10.095  19.466  0.00  0.00    +0.000 A 
ATOM      9  C   UNL     1      -0.171  10.466  18.464  0.00  0.00    +0.000 A 
ATOM     10  N   UNL     1      -0.842  11.656  18.413  0.00  0.00    +0.000 NA
ATOM     11  H   UNL     1      -2.038  16.121  19.078  0.00  0.00    +0.000 HD
ATOM     12  H   UNL     1      -1.931  13.839  18.628  0.00  0.00    +0.000 HD
ENDROOT
BRANCH   8  13
ATOM     13  C   UNL     1       1.462   8.800  19.359  0.00  0.00    +0.000 C 
ATOM     14  O   UNL     1       1.662   8.158  20.387  0.00  0.00    +0.000 OA
ATOM     15  N   UNL     1       1.914   8.429  18.098  0.00  0.00    +0.000 N 
ATOM     16  C   UNL     1       2.744   7.302  17.925  0.00  0.00    +0.000 A 
ATOM     17  C   UNL     1       2.268   6.030  18.212  0.00  0.00    +0.000 A 
ATOM     18  C   UNL     1       3.112   4.935  17.992  0.00  0.00    +0.000 A 
ATOM     19  C   UNL     1       4.413   5.155  17.536  0.00  0.00    +0.000 A 
ATOM     20  C   UNL     1       4.785   6.455  17.255  0.00  0.00    +0.000 A 
ATOM     21  N   UNL     1       3.961   7.524  17.388  0.00  0.00    +0.000 NA
ATOM     22  H   UNL     1       2.122   9.176  17.450  0.00  0.00    +0.000 HD
BRANCH  18  23
ATOM     23  C   UNL     1       2.687   3.527  18.218  0.00  0.00    +0.000 C 
ATOM     24  O   UNL     1       1.522   3.177  18.303  0.00  0.00    +0.000 OA
BRANCH  23  25
ATOM     25  O   UNL     1       3.770   2.717  18.343  0.00  0.00    +0.000 OA
ATOM     26  C   UNL     1       3.993   2.226  19.663  0.00  0.00    +0.000 C 
ENDBRANCH  23  25
ENDBRANCH  18  23
ENDBRANCH   8  13
BRANCH   1  28
ATOM     27  C   UNL     1      -0.457  17.914  17.301  0.00  0.00    +0.000 C 
ATOM     28  C   UNL     1      -0.351  17.383  18.722  0.00  0.00    +0.000 C 
ENDBRANCH   1  28
TORSDOF 4
ENDMDL
MODEL 6
REMARK VINA RESULT:      -7.1      1.982      2.288
REMARK  Name = 
REMARK  6 active torsions:
REMARK  status: ('A' for Active; 'I' for Inactive)
REMARK    1  A    between atoms: C_1  and  C_2
REMARK    2  A    between atoms: C_2  and  N_3
REMARK    3  A    between atoms: C_10  and  C_11
REMARK    4  A    between atoms: C_16  and  C_17
REMARK    5  A    between atoms: C_17  and  O_19
REMARK    6  A    between atoms: O_19  and  C_20
REMARK                            x       y       z     vdW  Elec       q    Type
REMARK                         _______ _______ _______ _____ _____    ______ ____
ROOT
ATOM      1  N   UNL     1      -3.115  13.062  23.388  0.00  0.00    +0.000 N 
ATOM      2  C   UNL     1      -2.366  12.472  22.402  0.00  0.00    +0.000 C 
ATOM      3  O   UNL     1      -2.672  12.540  21.205  0.00  0.00    +0.000 OA
ATOM      4  N   UNL     1      -1.261  11.792  22.877  0.00  0.00    +0.000 N 
ATOM      5  C   UNL     1      -0.468  11.046  21.987  0.00  0.00    +0.000 A 
ATOM      6  C   UNL     1       0.176  11.663  20.919  0.00  0.00    +0.000 A 
ATOM      7  C   UNL     1       0.924  10.892  20.016  0.00  0.00    +0.000 A 
ATOM      8  C   UNL     1       0.987   9.510  20.187  0.00  0.00    +0.000 A 
ATOM      9  C   UNL     1       0.339   8.986  21.304  0.00  0.00    +0.000 A 
ATOM     10  N   UNL     1      -0.339   9.724  22.235  0.00  0.00    +0.000 NA
ATOM     11  H   UNL     1      -2.718  13.163  24.313  0.00  0.00    +0.000 HD
ATOM     12  H   UNL     1      -1.427  11.309  23.752  0.00  0.00    +0.000 HD
ENDROOT
BRANCH   8  13
ATOM     13  C   UNL     1       1.619   8.588  19.195  0.00  0.00    +0.000 C 
ATOM     14  O   UNL     1       1.545   8.877  18.003  0.00  0.00    +0.000 OA
ATOM     15  N   UNL     1       2.213   7.433  19.691  0.00  0.00    +0.000 N 
ATOM     16  C   UNL     1       2.702   6.436  18.823  0.00  0.00    +0.000 A 
ATOM     17  C   UNL     1       3.763   6.708  17.970  0.00  0.00    +0.000 A 
ATOM     18  C   UNL     1       4.242   5.679  17.149  0.00  0.00    +0.000 A 
ATOM     19  C   UNL     1       3.614   4.433  17.180  0.00  0.00    +0.000 A 
ATOM     20  C   UNL     1       2.583   4.252  18.080  0.00  0.00    +0.000 A 
ATOM     21  N   UNL     1       2.151   5.210  18.938  0.00  0.00    +0.000 NA
ATOM     22  H   UNL     1       1.835   7.059  20.551  0.00  0.00    +0.000 HD
BRANCH  18  23
ATOM     23  C   UNL     1       5.404   5.846  16.237  0.00  0.00    +0.000 C 
ATOM     24  O   UNL     1       5.696   5.051  15.359  0.00  0.00    +0.000 OA
BRANCH  23  25
ATOM     25  O   UNL     1       6.091   6.977  16.542  0.00  0.00    +0.000 OA
ATOM     26  C   UNL     1       7.294   6.759  17.278  0.00  0.00    +0.000 C 
ENDBRANCH  23  25
ENDBRANCH  18  23
ENDBRANCH   8  13
BRANCH   1  28
ATOM     27  C   UNL     1      -5.595  12.998  23.358  0.00  0.00    +0.000 C 
ATOM     28  C   UNL     1      -4.331  13.789  23.058  0.00  0.00    +0.000 C 
ENDBRANCH   1  28
TORSDOF 4
ENDMDL
MODEL 7
REMARK VINA RESULT:      -7.0      2.943      9.925
REMARK  Name = 
REMARK  6 active torsions:
REMARK  status: ('A' for Active; 'I' for Inactive)
REMARK    1  A    between atoms: C_1  and  C_2
REMARK    2  A    between atoms: C_2  and  N_3
REMARK    3  A    between atoms: C_10  and  C_11
REMARK    4  A    between atoms: C_16  and  C_17
REMARK    5  A    between atoms: C_17  and  O_19
REMARK    6  A    between atoms: O_19  and  C_20
REMARK                            x       y       z     vdW  Elec       q    Type
REMARK                         _______ _______ _______ _____ _____    ______ ____
ROOT
ATOM      1  N   UNL     1       7.049   3.570  12.955  0.00  0.00    +0.000 N 
ATOM      2  C   UNL     1       6.058   4.017  13.791  0.00  0.00    +0.000 C 
ATOM      3  O   UNL     1       4.861   3.980  13.481  0.00  0.00    +0.000 OA
ATOM      4  N   UNL     1       6.528   4.518  14.990  0.00  0.00    +0.000 N 
ATOM      5  C   UNL     1       5.630   5.112  15.895  0.00  0.00    +0.000 A 
ATOM      6  C   UNL     1       4.574   4.383  16.433  0.00  0.00    +0.000 A 
ATOM      7  C   UNL     1       3.663   5.010  17.297  0.00  0.00    +0.000 A 
ATOM      8  C   UNL     1       3.814   6.365  17.581  0.00  0.00    +0.000 A 
ATOM      9  C   UNL     1       4.919   7.004  17.023  0.00  0.00    +0.000 A 
ATOM     10  N   UNL     1       5.858   6.400  16.234  0.00  0.00    +0.000 NA
ATOM     11  H   UNL     1       7.978   3.421  13.328  0.00  0.00    +0.000 HD
ATOM     12  H   UNL     1       7.394   5.034  14.903  0.00  0.00    +0.000 HD
ENDROOT
BRANCH   8  13
ATOM     13  C   UNL     1       2.811   7.158  18.355  0.00  0.00    +0.000 C 
ATOM     14  O   UNL     1       2.330   6.657  19.368  0.00  0.00    +0.000 OA
ATOM     15  N   UNL     1       2.455   8.402  17.845  0.00  0.00    +0.000 N 
ATOM     16  C   UNL     1       1.413   9.155  18.424  0.00  0.00    +0.000 A 
ATOM     17  C   UNL     1       1.531   9.635  19.721  0.00  0.00    +0.000 A 
ATOM     18  C   UNL     1       0.489  10.408  20.245  0.00  0.00    +0.000 A 
ATOM     19  C   UNL     1      -0.651  10.635  19.471  0.00  0.00    +0.000 A 
ATOM     20  C   UNL     1      -0.664  10.137  18.184  0.00  0.00    +0.000 A 
ATOM     21  N   UNL     1       0.365   9.450  17.628  0.00  0.00    +0.000 NA
ATOM     22  H   UNL     1       2.518   8.519  16.843  0.00  0.00    +0.000 HD
BRANCH  18  23
ATOM     23  C   UNL     1       0.534  11.014  21.603  0.00  0.00    +0.000 C 
ATOM     24  O   UNL     1       0.466  12.214  21.812  0.00  0.00    +0.000 OA
BRANCH  23  25
ATOM     25  O   UNL     1       0.691  10.052  22.549  0.00  0.00    +0.000 OA
ATOM     26  C   UNL     1      -0.498   9.328  22.861  0.00  0.00    +0.000 C 
ENDBRANCH  23  25
ENDBRANCH  18  23
ENDBRANCH   8  13
BRANCH   1  28
ATOM     27  C   UNL     1       6.109   1.654  11.691  0.00  0.00    +0.000 C 
ATOM     28  C   UNL     1       6.726   3.044  11.639  0.00  0.00    +0.000 C 
ENDBRANCH   1  28
TORSDOF 4
ENDMDL
MODEL 8
REMARK VINA RESULT:      -7.0      2.920      3.525
REMARK  Name = 
REMARK  6 active torsions:
REMARK  status: ('A' for Active; 'I' for Inactive)
REMARK    1  A    between atoms: C_1  and  C_2
REMARK    2  A    between atoms: C_2  and  N_3
REMARK    3  A    between atoms: C_10  and  C_11
REMARK    4  A    between atoms: C_16  and  C_17
REMARK    5  A    between atoms: C_17  and  O_19
REMARK    6  A    between atoms: O_19  and  C_20
REMARK                            x       y       z     vdW  Elec       q    Type
REMARK                         _______ _______ _______ _____ _____    ______ ____
ROOT
ATOM      1  N   UNL     1      -4.257  12.944  19.552  0.00  0.00    +0.000 N 
ATOM      2  C   UNL     1      -3.309  12.013  19.212  0.00  0.00    +0.000 C 
ATOM      3  O   UNL     1      -3.541  11.085  18.428  0.00  0.00    +0.000 OA
ATOM      4  N   UNL     1      -2.093  12.206  19.838  0.00  0.00    +0.000 N 
ATOM      5  C   UNL     1      -1.065  11.261  19.668  0.00  0.00    +0.000 A 
ATOM      6  C   UNL     1      -0.550  10.989  18.404  0.00  0.00    +0.000 A 
ATOM      7  C   UNL     1       0.443  10.009  18.252  0.00  0.00    +0.000 A 
ATOM      8  C   UNL     1       0.877   9.299  19.369  0.00  0.00    +0.000 A 
ATOM      9  C   UNL     1       0.328   9.663  20.597  0.00  0.00    +0.000 A 
ATOM     10  N   UNL     1      -0.589  10.661  20.781  0.00  0.00    +0.000 NA
ATOM     11  H   UNL     1      -3.967  13.794  20.018  0.00  0.00    +0.000 HD
ATOM     12  H   UNL     1      -2.174  12.527  20.795  0.00  0.00    +0.000 HD
ENDROOT
BRANCH   8  13
ATOM     13  C   UNL     1       1.806   8.130  19.290  0.00  0.00    +0.000 C 
ATOM     14  O   UNL     1       2.133   7.575  20.336  0.00  0.00    +0.000 OA
ATOM     15  N   UNL     1       2.274   7.776  18.029  0.00  0.00    +0.000 N 
ATOM     16  C   UNL     1       3.264   6.785  17.873  0.00  0.00    +0.000 A 
ATOM     17  C   UNL     1       3.003   5.469  18.230  0.00  0.00    +0.000 A 
ATOM     18  C   UNL     1       4.001   4.510  18.025  0.00  0.00    +0.000 A 
ATOM     19  C   UNL     1       5.238   4.908  17.514  0.00  0.00    +0.000 A 
ATOM     20  C   UNL     1       5.394   6.235  17.166  0.00  0.00    +0.000 A 
ATOM     21  N   UNL     1       4.416   7.168  17.285  0.00  0.00    +0.000 NA
ATOM     22  H   UNL     1       2.343   8.516  17.344  0.00  0.00    +0.000 HD
BRANCH  18  23
ATOM     23  C   UNL     1       3.809   3.065  18.324  0.00  0.00    +0.000 C 
ATOM     24  O   UNL     1       3.178   2.304  17.609  0.00  0.00    +0.000 OA
BRANCH  23  25
ATOM     25  O   UNL     1       4.403   2.739  19.501  0.00  0.00    +0.000 OA
ATOM     26  C   UNL     1       3.500   2.566  20.591  0.00  0.00    +0.000 C 
ENDBRANCH  23  25
ENDBRANCH  18  23
ENDBRANCH   8  13
BRANCH   1  28
ATOM     27  C   UNL     1      -6.566  12.111  19.912  0.00  0.00    +0.000 C 
ATOM     28  C   UNL     1      -5.603  12.863  19.007  0.00  0.00    +0.000 C 
ENDBRANCH   1  28
TORSDOF 4
ENDMDL
MODEL 9
REMARK VINA RESULT:      -7.0      6.185      7.358
REMARK  Name = 
REMARK  6 active torsions:
REMARK  status: ('A' for Active; 'I' for Inactive)
REMARK    1  A    between atoms: C_1  and  C_2
REMARK    2  A    between atoms: C_2  and  N_3
REMARK    3  A    between atoms: C_10  and  C_11
REMARK    4  A    between atoms: C_16  and  C_17
REMARK    5  A    between atoms: C_17  and  O_19
REMARK    6  A    between atoms: O_19  and  C_20
REMARK                            x       y       z     vdW  Elec       q    Type
REMARK                         _______ _______ _______ _____ _____    ______ ____
ROOT
ATOM      1  N   UNL     1       9.361  15.543  19.974  0.00  0.00    +0.000 N 
ATOM      2  C   UNL     1       8.888  14.344  19.505  0.00  0.00    +0.000 C 
ATOM      3  O   UNL     1       7.699  14.170  19.209  0.00  0.00    +0.000 OA
ATOM      4  N   UNL     1       9.856  13.363  19.414  0.00  0.00    +0.000 N 
ATOM      5  C   UNL     1       9.488  12.054  19.055  0.00  0.00    +0.000 A 
ATOM      6  C   UNL     1       8.886  11.794  17.828  0.00  0.00    +0.000 A 
ATOM      7  C   UNL     1       8.485  10.487  17.511  0.00  0.00    +0.000 A 
ATOM      8  C   UNL     1       8.669   9.471  18.446  0.00  0.00    +0.000 A 
ATOM      9  C   UNL     1       9.310   9.819  19.633  0.00  0.00    +0.000 A 
ATOM     10  N   UNL     1       9.771  11.070  19.937  0.00  0.00    +0.000 NA
ATOM     11  H   UNL     1      10.360  15.702  19.997  0.00  0.00    +0.000 HD
ATOM     12  H   UNL     1      10.531  13.387  20.169  0.00  0.00    +0.000 HD
ENDROOT
BRANCH   8  13
ATOM     13  C   UNL     1       8.132   8.087  18.271  0.00  0.00    +0.000 C 
ATOM     14  O   UNL     1       8.420   7.241  19.113  0.00  0.00    +0.000 OA
ATOM     15  N   UNL     1       7.372   7.840  17.132  0.00  0.00    +0.000 N 
ATOM     16  C   UNL     1       6.950   6.534  16.809  0.00  0.00    +0.000 A 
ATOM     17  C   UNL     1       6.066   5.858  17.639  0.00  0.00    +0.000 A 
ATOM     18  C   UNL     1       5.644   4.577  17.262  0.00  0.00    +0.000 A 
ATOM     19  C   UNL     1       6.154   4.004  16.096  0.00  0.00    +0.000 A 
ATOM     20  C   UNL     1       7.009   4.766  15.324  0.00  0.00    +0.000 A 
ATOM     21  N   UNL     1       7.373   6.037  15.629  0.00  0.00    +0.000 NA
ATOM     22  H   UNL     1       7.575   8.404  16.318  0.00  0.00    +0.000 HD
BRANCH  18  23
ATOM     23  C   UNL     1       4.662   3.785  18.050  0.00  0.00    +0.000 C 
ATOM     24  O   UNL     1       3.956   2.912  17.572  0.00  0.00    +0.000 OA
BRANCH  23  25
ATOM     25  O   UNL     1       4.649   4.194  19.345  0.00  0.00    +0.000 OA
ATOM     26  C   UNL     1       3.501   4.956  19.714  0.00  0.00    +0.000 C 
ENDBRANCH  23  25
ENDBRANCH  18  23
ENDBRANCH   8  13
BRANCH   1  28
ATOM     27  C   UNL     1       9.007  17.966  19.579  0.00  0.00    +0.000 C 
ATOM     28  C   UNL     1       8.463  16.671  20.161  0.00  0.00    +0.000 C 
ENDBRANCH   1  28
TORSDOF 4
ENDMDL
