MODEL 1
REMARK VINA RESULT:      -7.9      0.000      0.000
REMARK  Name = 
REMARK  7 active torsions:
REMARK  status: ('A' for Active; 'I' for Inactive)
REMARK    1  A    between atoms: N_2  and  C_4
REMARK    2  A    between atoms: C_6  and  C_7
REMARK    3  A    between atoms: C_7  and  N_8
REMARK    4  A    between atoms: N_8  and  C_9
REMARK    5  A    between atoms: C_9  and  C_10
REMARK    6  A    between atoms: C_18  and  O_19
REMARK    7  A    between atoms: C_20  and  O_21
REMARK                            x       y       z     vdW  Elec       q    Type
REMARK                         _______ _______ _______ _____ _____    ______ ____
ROOT
ATOM      1  C   UNL     1       2.971   3.901  20.226  0.00  0.00    +0.000 A 
ATOM      2  C   UNL     1       2.446   5.173  19.912  0.00  0.00    +0.000 A 
ATOM      3  C   UNL     1       3.172   6.094  19.132  0.00  0.00    +0.000 A 
ATOM      4  C   UNL     1       4.432   5.699  18.622  0.00  0.00    +0.000 A 
ATOM      5  N   UNL     1       5.150   6.509  17.797  0.00  0.00    +0.000 NA
ATOM      6  C   UNL     1       6.341   6.114  17.268  0.00  0.00    +0.000 A 
ATOM      7  C   UNL     1       6.854   4.849  17.595  0.00  0.00    +0.000 A 
ATOM      8  N   UNL     1       6.150   4.047  18.432  0.00  0.00    +0.000 NA
ATOM      9  C   UNL     1       4.954   4.431  18.944  0.00  0.00    +0.000 A 
ATOM     10  C   UNL     1       4.243   3.558  19.757  0.00  0.00    +0.000 A 
ENDROOT
BRANCH   1  12
ATOM     11  O   UNL     1       2.624   2.598  22.055  0.00  0.00    +0.000 OA
ATOM     12  N   UNL     1       2.229   2.952  20.988  0.00  0.00    +0.000 N 
ATOM     13  O   UNL     1       1.030   2.572  20.593  0.00  0.00    +0.000 OA
ENDBRANCH   1  12
BRANCH   6  14
ATOM     14  O   UNL     1       7.009   6.927  16.430  0.00  0.00    +0.000 OA
ATOM     15  H   UNL     1       6.759   7.854  16.326  0.00  0.00    +0.000 HD
ENDBRANCH   6  14
BRANCH   7  16
ATOM     16  O   UNL     1       8.020   4.400  17.086  0.00  0.00    +0.000 OA
ATOM     17  H   UNL     1       8.315   4.614  16.191  0.00  0.00    +0.000 HD
ENDBRANCH   7  16
BRANCH   3  18
ATOM     18  C   UNL     1       2.592   7.473  18.848  0.00  0.00    +0.000 C 
BRANCH  18  19
ATOM     19  N   UNL     1       1.702   7.907  19.940  0.00  0.00    +0.000 NA
ATOM     20  H   UNL     1       2.261   7.938  20.825  0.00  0.00    +0.000 HD
BRANCH  19  21
ATOM     21  C   UNL     1       1.181   9.259  19.677  0.00  0.00    +0.000 C 
BRANCH  21  22
ATOM     22  C   UNL     1       0.537   9.846  20.911  0.00  0.00    +0.000 A 
ATOM     23  C   UNL     1       0.429   9.094  22.093  0.00  0.00    +0.000 A 
ATOM     24  C   UNL     1      -0.157   9.666  23.225  0.00  0.00    +0.000 A 
ATOM     25  N   UNL     1      -0.618  10.945  23.181  0.00  0.00    +0.000 NA
ATOM     26  C   UNL     1      -0.525  11.698  22.055  0.00  0.00    +0.000 A 
ATOM     27  C   UNL     1       0.054  11.164  20.902  0.00  0.00    +0.000 A 
ENDBRANCH  21  22
ENDBRANCH  19  21
ENDBRANCH  18  19
ENDBRANCH   3  18
TORSDOF 7
ENDMDL
MODEL 2
REMARK VINA RESULT:      -7.9      1.317      1.688
REMARK  Name = 
REMARK  7 active torsions:
REMARK  status: ('A' for Active; 'I' for Inactive)
REMARK    1  A    between atoms: N_2  and  C_4
REMARK    2  A    between atoms: C_6  and  C_7
REMARK    3  A    between atoms: C_7  and  N_8
REMARK    4  A    between atoms: N_8  and  C_9
REMARK    5  A    between atoms: C_9  and  C_10
REMARK    6  A    between atoms: C_18  and  O_19
REMARK    7  A    between atoms: C_20  and  O_21
REMARK                            x       y       z     vdW  Elec       q    Type
REMARK                         _______ _______ _______ _____ _____    ______ ____
ROOT
ATOM      1  C   UNL     1       2.757   4.642  19.952  0.00  0.00    +0.000 A 
ATOM      2  C   UNL     1       2.410   5.838  19.288  0.00  0.00    +0.000 A 
ATOM      3  C   UNL     1       3.325   6.505  18.450  0.00  0.00    +0.000 A 
ATOM      4  C   UNL     1       4.598   5.921  18.244  0.00  0.00    +0.000 A 
ATOM      5  N   UNL     1       5.501   6.470  17.387  0.00  0.00    +0.000 NA
ATOM      6  C   UNL     1       6.709   5.886  17.152  0.00  0.00    +0.000 A 
ATOM      7  C   UNL     1       7.043   4.700  17.825  0.00  0.00    +0.000 A 
ATOM      8  N   UNL     1       6.154   4.162  18.696  0.00  0.00    +0.000 NA
ATOM      9  C   UNL     1       4.942   4.730  18.915  0.00  0.00    +0.000 A 
ATOM     10  C   UNL     1       4.042   4.118  19.777  0.00  0.00    +0.000 A 
ENDROOT
BRANCH   1  12
ATOM     11  O   UNL     1       0.730   3.705  20.373  0.00  0.00    +0.000 OA
ATOM     12  N   UNL     1       1.826   3.946  20.776  0.00  0.00    +0.000 N 
ATOM     13  O   UNL     1       2.210   3.428  21.925  0.00  0.00    +0.000 OA
ENDBRANCH   1  12
BRANCH   6  14
ATOM     14  O   UNL     1       7.564   6.437  16.272  0.00  0.00    +0.000 OA
ATOM     15  H   UNL     1       7.793   5.990  15.448  0.00  0.00    +0.000 HD
ENDBRANCH   6  14
BRANCH   7  16
ATOM     16  O   UNL     1       8.218   4.071  17.618  0.00  0.00    +0.000 OA
ATOM     17  H   UNL     1       8.639   3.517  18.289  0.00  0.00    +0.000 HD
ENDBRANCH   7  16
BRANCH   3  18
ATOM     18  C   UNL     1       2.930   7.814  17.783  0.00  0.00    +0.000 C 
BRANCH  18  19
ATOM     19  N   UNL     1       2.081   8.626  18.673  0.00  0.00    +0.000 NA
ATOM     20  H   UNL     1       2.685   9.346  19.134  0.00  0.00    +0.000 HD
BRANCH  19  21
ATOM     21  C   UNL     1       1.040   9.325  17.900  0.00  0.00    +0.000 C 
BRANCH  21  22
ATOM     22  C   UNL     1       0.146  10.143  18.804  0.00  0.00    +0.000 A 
ATOM     23  C   UNL     1       0.472  10.334  20.157  0.00  0.00    +0.000 A 
ATOM     24  C   UNL     1      -0.363  11.109  20.966  0.00  0.00    +0.000 A 
ATOM     25  N   UNL     1      -1.484  11.675  20.443  0.00  0.00    +0.000 NA
ATOM     26  C   UNL     1      -1.824  11.512  19.139  0.00  0.00    +0.000 A 
ATOM     27  C   UNL     1      -1.016  10.745  18.296  0.00  0.00    +0.000 A 
ENDBRANCH  21  22
ENDBRANCH  19  21
ENDBRANCH  18  19
ENDBRANCH   3  18
TORSDOF 7
ENDMDL
MODEL 3
REMARK VINA RESULT:      -7.9      1.131      1.577
REMARK  Name = 
REMARK  7 active torsions:
REMARK  status: ('A' for Active; 'I' for Inactive)
REMARK    1  A    between atoms: N_2  and  C_4
REMARK    2  A    between atoms: C_6  and  C_7
REMARK    3  A    between atoms: C_7  and  N_8
REMARK    4  A    between atoms: N_8  and  C_9
REMARK    5  A    between atoms: C_9  and  C_10
REMARK    6  A    between atoms: C_18  and  O_19
REMARK    7  A    between atoms: C_20  and  O_21
REMARK                            x       y       z     vdW  Elec       q    Type
REMARK                         _______ _______ _______ _____ _____    ______ ____
ROOT
ATOM      1  C   UNL     1       2.475   4.395  19.194  0.00  0.00    +0.000 A 
ATOM      2  C   UNL     1       2.227   5.692  18.695  0.00  0.00    +0.000 A 
ATOM      3  C   UNL     1       3.258   6.471  18.133  0.00  0.00    +0.000 A 
ATOM      4  C   UNL     1       4.551   5.905  18.032  0.00  0.00    +0.000 A 
ATOM      5  N   UNL     1       5.573   6.572  17.430  0.00  0.00    +0.000 NA
ATOM      6  C   UNL     1       6.806   6.012  17.290  0.00  0.00    +0.000 A 
ATOM      7  C   UNL     1       7.040   4.724  17.798  0.00  0.00    +0.000 A 
ATOM      8  N   UNL     1       6.029   4.065  18.417  0.00  0.00    +0.000 NA
ATOM      9  C   UNL     1       4.794   4.613  18.539  0.00  0.00    +0.000 A 
ATOM     10  C   UNL     1       3.775   3.883  19.135  0.00  0.00    +0.000 A 
ENDROOT
BRANCH   1  12
ATOM     11  O   UNL     1       1.032   3.785  20.841  0.00  0.00    +0.000 OA
ATOM     12  N   UNL     1       1.431   3.589  19.735  0.00  0.00    +0.000 N 
ATOM     13  O   UNL     1       0.795   2.724  18.971  0.00  0.00    +0.000 OA
ENDBRANCH   1  12
BRANCH   6  14
ATOM     14  O   UNL     1       7.784   6.686  16.659  0.00  0.00    +0.000 OA
ATOM     15  H   UNL     1       7.583   7.401  16.042  0.00  0.00    +0.000 HD
ENDBRANCH   6  14
BRANCH   7  16
ATOM     16  O   UNL     1       8.237   4.116  17.672  0.00  0.00    +0.000 OA
ATOM     17  H   UNL     1       8.622   3.894  16.814  0.00  0.00    +0.000 HD
ENDBRANCH   7  16
BRANCH   3  18
ATOM     18  C   UNL     1       2.962   7.881  17.643  0.00  0.00    +0.000 C 
BRANCH  18  19
ATOM     19  N   UNL     1       1.567   8.259  17.929  0.00  0.00    +0.000 NA
ATOM     20  H   UNL     1       1.244   7.712  18.762  0.00  0.00    +0.000 HD
BRANCH  19  21
ATOM     21  C   UNL     1       1.475   9.692  18.257  0.00  0.00    +0.000 C 
BRANCH  21  22
ATOM     22  C   UNL     1       1.062   9.898  19.696  0.00  0.00    +0.000 A 
ATOM     23  C   UNL     1       0.574  11.140  20.135  0.00  0.00    +0.000 A 
ATOM     24  C   UNL     1       0.183  11.298  21.467  0.00  0.00    +0.000 A 
ATOM     25  N   UNL     1       0.274  10.252  22.332  0.00  0.00    +0.000 NA
ATOM     26  C   UNL     1       0.738   9.038  21.938  0.00  0.00    +0.000 A 
ATOM     27  C   UNL     1       1.139   8.839  20.614  0.00  0.00    +0.000 A 
ENDBRANCH  21  22
ENDBRANCH  19  21
ENDBRANCH  18  19
ENDBRANCH   3  18
TORSDOF 7
ENDMDL
MODEL 4
REMARK VINA RESULT:      -7.9      4.335      5.837
REMARK  Name = 
REMARK  7 active torsions:
REMARK  status: ('A' for Active; 'I' for Inactive)
REMARK    1  A    between atoms: N_2  and  C_4
REMARK    2  A    between atoms: C_6  and  C_7
REMARK    3  A    between atoms: C_7  and  N_8
REMARK    4  A    between atoms: N_8  and  C_9
REMARK    5  A    between atoms: C_9  and  C_10
REMARK    6  A    between atoms: C_18  and  O_19
REMARK    7  A    between atoms: C_20  and  O_21
REMARK                            x       y       z     vdW  Elec       q    Type
REMARK                         _______ _______ _______ _____ _____    ______ ____
ROOT
ATOM      1  C   UNL     1       7.064   5.420  18.034  0.00  0.00    +0.000 A 
ATOM      2  C   UNL     1       5.901   4.633  18.174  0.00  0.00    +0.000 A 
ATOM      3  C   UNL     1       5.246   4.087  17.052  0.00  0.00    +0.000 A 
ATOM      4  C   UNL     1       5.810   4.302  15.772  0.00  0.00    +0.000 A 
ATOM      5  N   UNL     1       5.274   3.738  14.656  0.00  0.00    +0.000 NA
ATOM      6  C   UNL     1       5.840   3.907  13.429  0.00  0.00    +0.000 A 
ATOM      7  C   UNL     1       6.993   4.697  13.305  0.00  0.00    +0.000 A 
ATOM      8  N   UNL     1       7.518   5.278  14.412  0.00  0.00    +0.000 NA
ATOM      9  C   UNL     1       6.968   5.095  15.638  0.00  0.00    +0.000 A 
ATOM     10  C   UNL     1       7.567   5.666  16.753  0.00  0.00    +0.000 A 
ENDROOT
BRANCH   1  12
ATOM     11  O   UNL     1       8.361   6.969  19.075  0.00  0.00    +0.000 OA
ATOM     12  N   UNL     1       7.750   5.950  19.166  0.00  0.00    +0.000 N 
ATOM     13  O   UNL     1       7.593   5.404  20.355  0.00  0.00    +0.000 OA
ENDBRANCH   1  12
BRANCH   6  14
ATOM     14  O   UNL     1       5.303   3.307  12.351  0.00  0.00    +0.000 OA
ATOM     15  H   UNL     1       4.634   2.616  12.443  0.00  0.00    +0.000 HD
ENDBRANCH   6  14
BRANCH   7  16
ATOM     16  O   UNL     1       7.604   4.883  12.117  0.00  0.00    +0.000 OA
ATOM     17  H   UNL     1       8.562   4.817  12.007  0.00  0.00    +0.000 HD
ENDBRANCH   7  16
BRANCH   3  18
ATOM     18  C   UNL     1       3.970   3.278  17.237  0.00  0.00    +0.000 C 
BRANCH  18  19
ATOM     19  N   UNL     1       2.777   4.123  17.053  0.00  0.00    +0.000 NA
ATOM     20  H   UNL     1       2.564   4.170  16.029  0.00  0.00    +0.000 HD
BRANCH  19  21
ATOM     21  C   UNL     1       1.613   3.533  17.737  0.00  0.00    +0.000 C 
BRANCH  21  22
ATOM     22  C   UNL     1       1.803   3.533  19.237  0.00  0.00    +0.000 A 
ATOM     23  C   UNL     1       2.113   4.719  19.923  0.00  0.00    +0.000 A 
ATOM     24  C   UNL     1       2.267   4.694  21.311  0.00  0.00    +0.000 A 
ATOM     25  N   UNL     1       2.115   3.527  21.993  0.00  0.00    +0.000 NA
ATOM     26  C   UNL     1       1.813   2.365  21.359  0.00  0.00    +0.000 A 
ATOM     27  C   UNL     1       1.650   2.346  19.971  0.00  0.00    +0.000 A 
ENDBRANCH  21  22
ENDBRANCH  19  21
ENDBRANCH  18  19
ENDBRANCH   3  18
TORSDOF 7
ENDMDL
MODEL 5
REMARK VINA RESULT:      -7.8      2.825      6.302
REMARK  Name = 
REMARK  7 active torsions:
REMARK  status: ('A' for Active; 'I' for Inactive)
REMARK    1  A    between atoms: N_2  and  C_4
REMARK    2  A    between atoms: C_6  and  C_7
REMARK    3  A    between atoms: C_7  and  N_8
REMARK    4  A    between atoms: N_8  and  C_9
REMARK    5  A    between atoms: C_9  and  C_10
REMARK    6  A    between atoms: C_18  and  O_19
REMARK    7  A    between atoms: C_20  and  O_21
REMARK                            x       y       z     vdW  Elec       q    Type
REMARK                         _______ _______ _______ _____ _____    ______ ____
ROOT
ATOM      1  C   UNL     1       2.666   3.826  20.576  0.00  0.00    +0.000 A 
ATOM      2  C   UNL     1       3.237   3.672  19.294  0.00  0.00    +0.000 A 
ATOM      3  C   UNL     1       3.231   4.725  18.358  0.00  0.00    +0.000 A 
ATOM      4  C   UNL     1       2.680   5.969  18.746  0.00  0.00    +0.000 A 
ATOM      5  N   UNL     1       2.713   7.050  17.920  0.00  0.00    +0.000 NA
ATOM      6  C   UNL     1       2.225   8.260  18.308  0.00  0.00    +0.000 A 
ATOM      7  C   UNL     1       1.655   8.396  19.583  0.00  0.00    +0.000 A 
ATOM      8  N   UNL     1       1.602   7.317  20.401  0.00  0.00    +0.000 NA
ATOM      9  C   UNL     1       2.106   6.115  20.025  0.00  0.00    +0.000 A 
ATOM     10  C   UNL     1       2.076   5.049  20.913  0.00  0.00    +0.000 A 
ENDROOT
BRANCH   1  12
ATOM     11  O   UNL     1       1.722   2.515  22.174  0.00  0.00    +0.000 OA
ATOM     12  N   UNL     1       2.697   2.777  21.540  0.00  0.00    +0.000 N 
ATOM     13  O   UNL     1       3.749   1.989  21.634  0.00  0.00    +0.000 OA
ENDBRANCH   1  12
BRANCH   6  14
ATOM     14  O   UNL     1       2.304   9.316  17.478  0.00  0.00    +0.000 OA
ATOM     15  H   UNL     1       1.614   9.494  16.826  0.00  0.00    +0.000 HD
ENDBRANCH   6  14
BRANCH   7  16
ATOM     16  O   UNL     1       1.172   9.576  20.024  0.00  0.00    +0.000 OA
ATOM     17  H   UNL     1       0.237   9.712  20.233  0.00  0.00    +0.000 HD
ENDBRANCH   7  16
BRANCH   3  18
ATOM     18  C   UNL     1       3.819   4.510  16.970  0.00  0.00    +0.000 C 
BRANCH  18  19
ATOM     19  N   UNL     1       4.947   3.562  17.015  0.00  0.00    +0.000 NA
ATOM     20  H   UNL     1       4.650   2.678  16.537  0.00  0.00    +0.000 HD
BRANCH  19  21
ATOM     21  C   UNL     1       6.110   4.107  16.294  0.00  0.00    +0.000 C 
BRANCH  21  22
ATOM     22  C   UNL     1       6.822   5.153  17.120  0.00  0.00    +0.000 A 
ATOM     23  C   UNL     1       6.916   6.482  16.672  0.00  0.00    +0.000 A 
ATOM     24  C   UNL     1       7.566   7.433  17.463  0.00  0.00    +0.000 A 
ATOM     25  N   UNL     1       8.101   7.073  18.660  0.00  0.00    +0.000 NA
ATOM     26  C   UNL     1       8.023   5.799  19.122  0.00  0.00    +0.000 A 
ATOM     27  C   UNL     1       7.382   4.817  18.362  0.00  0.00    +0.000 A 
ENDBRANCH  21  22
ENDBRANCH  19  21
ENDBRANCH  18  19
ENDBRANCH   3  18
TORSDOF 7
ENDMDL
MODEL 6
REMARK VINA RESULT:      -7.8      1.298      1.422
REMARK  Name = 
REMARK  7 active torsions:
REMARK  status: ('A' for Active; 'I' for Inactive)
REMARK    1  A    between atoms: N_2  and  C_4
REMARK    2  A    between atoms: C_6  and  C_7
REMARK    3  A    between atoms: C_7  and  N_8
REMARK    4  A    between atoms: N_8  and  C_9
REMARK    5  A    between atoms: C_9  and  C_10
REMARK    6  A    between atoms: C_18  and  O_19
REMARK    7  A    between atoms: C_20  and  O_21
REMARK                            x       y       z     vdW  Elec       q    Type
REMARK                         _______ _______ _______ _____ _____    ______ ____
ROOT
ATOM      1  C   UNL     1       2.325   4.473  18.753  0.00  0.00    +0.000 A 
ATOM      2  C   UNL     1       2.137   5.840  18.460  0.00  0.00    +0.000 A 
ATOM      3  C   UNL     1       3.204   6.650  18.021  0.00  0.00    +0.000 A 
ATOM      4  C   UNL     1       4.471   6.048  17.831  0.00  0.00    +0.000 A 
ATOM      5  N   UNL     1       5.524   6.753  17.335  0.00  0.00    +0.000 NA
ATOM      6  C   UNL     1       6.732   6.167  17.108  0.00  0.00    +0.000 A 
ATOM      7  C   UNL     1       6.906   4.807  17.411  0.00  0.00    +0.000 A 
ATOM      8  N   UNL     1       5.864   4.107  17.924  0.00  0.00    +0.000 NA
ATOM      9  C   UNL     1       4.654   4.684  18.132  0.00  0.00    +0.000 A 
ATOM     10  C   UNL     1       3.601   3.917  18.612  0.00  0.00    +0.000 A 
ENDROOT
BRANCH   1  12
ATOM     11  O   UNL     1       0.698   3.837  20.208  0.00  0.00    +0.000 OA
ATOM     12  N   UNL     1       1.244   3.640  19.166  0.00  0.00    +0.000 N 
ATOM     13  O   UNL     1       0.739   2.746  18.340  0.00  0.00    +0.000 OA
ENDBRANCH   1  12
BRANCH   6  14
ATOM     14  O   UNL     1       7.742   6.885  16.585  0.00  0.00    +0.000 OA
ATOM     15  H   UNL     1       8.389   7.325  17.151  0.00  0.00    +0.000 HD
ENDBRANCH   6  14
BRANCH   7  16
ATOM     16  O   UNL     1       8.075   4.173  17.190  0.00  0.00    +0.000 OA
ATOM     17  H   UNL     1       8.252   3.670  16.384  0.00  0.00    +0.000 HD
ENDBRANCH   7  16
BRANCH   3  18
ATOM     18  C   UNL     1       2.974   8.130  17.754  0.00  0.00    +0.000 C 
BRANCH  18  19
ATOM     19  N   UNL     1       1.550   8.480  17.908  0.00  0.00    +0.000 NA
ATOM     20  H   UNL     1       1.131   7.836  18.619  0.00  0.00    +0.000 HD
BRANCH  19  21
ATOM     21  C   UNL     1       1.407   9.862  18.397  0.00  0.00    +0.000 C 
BRANCH  21  22
ATOM     22  C   UNL     1       0.845   9.889  19.800  0.00  0.00    +0.000 A 
ATOM     23  C   UNL     1       1.109   8.845  20.701  0.00  0.00    +0.000 A 
ATOM     24  C   UNL     1       0.591   8.903  21.998  0.00  0.00    +0.000 A 
ATOM     25  N   UNL     1      -0.164   9.967  22.382  0.00  0.00    +0.000 NA
ATOM     26  C   UNL     1      -0.434  10.993  21.535  0.00  0.00    +0.000 A 
ATOM     27  C   UNL     1       0.065  10.974  20.231  0.00  0.00    +0.000 A 
ENDBRANCH  21  22
ENDBRANCH  19  21
ENDBRANCH  18  19
ENDBRANCH   3  18
TORSDOF 7
ENDMDL
MODEL 7
REMARK VINA RESULT:      -7.8      1.749      1.996
REMARK  Name = 
REMARK  7 active torsions:
REMARK  status: ('A' for Active; 'I' for Inactive)
REMARK    1  A    between atoms: N_2  and  C_4
REMARK    2  A    between atoms: C_6  and  C_7
REMARK    3  A    between atoms: C_7  and  N_8
REMARK    4  A    between atoms: N_8  and  C_9
REMARK    5  A    between atoms: C_9  and  C_10
REMARK    6  A    between atoms: C_18  and  O_19
REMARK    7  A    between atoms: C_20  and  O_21
REMARK                            x       y       z     vdW  Elec       q    Type
REMARK                         _______ _______ _______ _____ _____    ______ ____
ROOT
ATOM      1  C   UNL     1       2.815   4.606  19.979  0.00  0.00    +0.000 A 
ATOM      2  C   UNL     1       2.451   5.792  19.306  0.00  0.00    +0.000 A 
ATOM      3  C   UNL     1       3.355   6.460  18.456  0.00  0.00    +0.000 A 
ATOM      4  C   UNL     1       4.633   5.888  18.249  0.00  0.00    +0.000 A 
ATOM      5  N   UNL     1       5.525   6.439  17.382  0.00  0.00    +0.000 NA
ATOM      6  C   UNL     1       6.738   5.866  17.146  0.00  0.00    +0.000 A 
ATOM      7  C   UNL     1       7.089   4.691  17.829  0.00  0.00    +0.000 A 
ATOM      8  N   UNL     1       6.211   4.151  18.709  0.00  0.00    +0.000 NA
ATOM      9  C   UNL     1       4.994   4.708  18.930  0.00  0.00    +0.000 A 
ATOM     10  C   UNL     1       4.105   4.094  19.802  0.00  0.00    +0.000 A 
ENDROOT
BRANCH   1  12
ATOM     11  O   UNL     1       2.196   3.625  21.934  0.00  0.00    +0.000 OA
ATOM     12  N   UNL     1       1.896   3.907  20.814  0.00  0.00    +0.000 N 
ATOM     13  O   UNL     1       0.658   3.699  20.415  0.00  0.00    +0.000 OA
ENDBRANCH   1  12
BRANCH   6  14
ATOM     14  O   UNL     1       7.583   6.419  16.257  0.00  0.00    +0.000 OA
ATOM     15  H   UNL     1       7.476   7.334  15.967  0.00  0.00    +0.000 HD
ENDBRANCH   6  14
BRANCH   7  16
ATOM     16  O   UNL     1       8.270   4.073  17.621  0.00  0.00    +0.000 OA
ATOM     17  H   UNL     1       8.770   3.651  18.332  0.00  0.00    +0.000 HD
ENDBRANCH   7  16
BRANCH   3  18
ATOM     18  C   UNL     1       2.942   7.759  17.779  0.00  0.00    +0.000 C 
BRANCH  18  19
ATOM     19  N   UNL     1       1.855   8.420  18.523  0.00  0.00    +0.000 NA
ATOM     20  H   UNL     1       2.077   8.366  19.545  0.00  0.00    +0.000 HD
BRANCH  19  21
ATOM     21  C   UNL     1       1.761   9.842  18.148  0.00  0.00    +0.000 C 
BRANCH  21  22
ATOM     22  C   UNL     1       0.408  10.412  18.505  0.00  0.00    +0.000 A 
ATOM     23  C   UNL     1      -0.757   9.960  17.862  0.00  0.00    +0.000 A 
ATOM     24  C   UNL     1      -1.997  10.492  18.223  0.00  0.00    +0.000 A 
ATOM     25  N   UNL     1      -2.074  11.442  19.193  0.00  0.00    +0.000 NA
ATOM     26  C   UNL     1      -0.968  11.897  19.836  0.00  0.00    +0.000 A 
ATOM     27  C   UNL     1       0.292  11.391  19.505  0.00  0.00    +0.000 A 
ENDBRANCH  21  22
ENDBRANCH  19  21
ENDBRANCH  18  19
ENDBRANCH   3  18
TORSDOF 7
ENDMDL
MODEL 8
REMARK VINA RESULT:      -7.8      2.103      4.651
REMARK  Name = 
REMARK  7 active torsions:
REMARK  status: ('A' for Active; 'I' for Inactive)
REMARK    1  A    between atoms: N_2  and  C_4
REMARK    2  A    between atoms: C_6  and  C_7
REMARK    3  A    between atoms: C_7  and  N_8
REMARK    4  A    between atoms: N_8  and  C_9
REMARK    5  A    between atoms: C_9  and  C_10
REMARK    6  A    between atoms: C_18  and  O_19
REMARK    7  A    between atoms: C_20  and  O_21
REMARK                            x       y       z     vdW  Elec       q    Type
REMARK                         _______ _______ _______ _____ _____    ______ ____
ROOT
ATOM      1  C   UNL     1       5.351   4.947  16.073  0.00  0.00    +0.000 A 
ATOM      2  C   UNL     1       4.963   6.173  16.653  0.00  0.00    +0.000 A 
ATOM      3  C   UNL     1       3.869   6.253  17.537  0.00  0.00    +0.000 A 
ATOM      4  C   UNL     1       3.189   5.059  17.877  0.00  0.00    +0.000 A 
ATOM      5  N   UNL     1       2.176   5.052  18.785  0.00  0.00    +0.000 NA
ATOM      6  C   UNL     1       1.550   3.898  19.147  0.00  0.00    +0.000 A 
ATOM      7  C   UNL     1       1.943   2.687  18.558  0.00  0.00    +0.000 A 
ATOM      8  N   UNL     1       2.939   2.693  17.638  0.00  0.00    +0.000 NA
ATOM      9  C   UNL     1       3.578   3.838  17.290  0.00  0.00    +0.000 A 
ATOM     10  C   UNL     1       4.626   3.791  16.381  0.00  0.00    +0.000 A 
ENDROOT
BRANCH   1  12
ATOM     11  O   UNL     1       6.460   4.098  14.279  0.00  0.00    +0.000 OA
ATOM     12  N   UNL     1       6.477   4.853  15.203  0.00  0.00    +0.000 N 
ATOM     13  O   UNL     1       7.479   5.701  15.316  0.00  0.00    +0.000 OA
ENDBRANCH   1  12
BRANCH   6  14
ATOM     14  O   UNL     1       0.574   3.923  20.073  0.00  0.00    +0.000 OA
ATOM     15  H   UNL     1       0.143   4.750  20.323  0.00  0.00    +0.000 HD
ENDBRANCH   6  14
BRANCH   7  16
ATOM     16  O   UNL     1       1.370   1.513  18.893  0.00  0.00    +0.000 OA
ATOM     17  H   UNL     1       0.475   1.271  18.616  0.00  0.00    +0.000 HD
ENDBRANCH   7  16
BRANCH   3  18
ATOM     18  C   UNL     1       3.453   7.600  18.110  0.00  0.00    +0.000 C 
BRANCH  18  19
ATOM     19  N   UNL     1       2.019   7.853  17.879  0.00  0.00    +0.000 NA
ATOM     20  H   UNL     1       1.485   7.483  18.700  0.00  0.00    +0.000 HD
BRANCH  19  21
ATOM     21  C   UNL     1       1.758   9.299  17.775  0.00  0.00    +0.000 C 
BRANCH  21  22
ATOM     22  C   UNL     1       0.868   9.775  18.899  0.00  0.00    +0.000 A 
ATOM     23  C   UNL     1       1.003   9.253  20.196  0.00  0.00    +0.000 A 
ATOM     24  C   UNL     1       0.178   9.723  21.220  0.00  0.00    +0.000 A 
ATOM     25  N   UNL     1      -0.750  10.684  20.961  0.00  0.00    +0.000 NA
ATOM     26  C   UNL     1      -0.903  11.211  19.719  0.00  0.00    +0.000 A 
ATOM     27  C   UNL     1      -0.097  10.768  18.667  0.00  0.00    +0.000 A 
ENDBRANCH  21  22
ENDBRANCH  19  21
ENDBRANCH  18  19
ENDBRANCH   3  18
TORSDOF 7
ENDMDL
MODEL 9
REMARK VINA RESULT:      -7.8      2.015      4.657
REMARK  Name = 
REMARK  7 active torsions:
REMARK  status: ('A' for Active; 'I' for Inactive)
REMARK    1  A    between atoms: N_2  and  C_4
REMARK    2  A    between atoms: C_6  and  C_7
REMARK    3  A    between atoms: C_7  and  N_8
REMARK    4  A    between atoms: N_8  and  C_9
REMARK    5  A    between atoms: C_9  and  C_10
REMARK    6  A    between atoms: C_18  and  O_19
REMARK    7  A    between atoms: C_20  and  O_21
REMARK                            x       y       z     vdW  Elec       q    Type
REMARK                         _______ _______ _______ _____ _____    ______ ____
ROOT
ATOM      1  C   UNL     1       5.346   5.086  16.077  0.00  0.00    +0.000 A 
ATOM      2  C   UNL     1       4.907   6.298  16.651  0.00  0.00    +0.000 A 
ATOM      3  C   UNL     1       3.812   6.337  17.537  0.00  0.00    +0.000 A 
ATOM      4  C   UNL     1       3.183   5.117  17.884  0.00  0.00    +0.000 A 
ATOM      5  N   UNL     1       2.172   5.073  18.793  0.00  0.00    +0.000 NA
ATOM      6  C   UNL     1       1.595   3.896  19.162  0.00  0.00    +0.000 A 
ATOM      7  C   UNL     1       2.038   2.699  18.578  0.00  0.00    +0.000 A 
ATOM      8  N   UNL     1       3.031   2.742  17.656  0.00  0.00    +0.000 NA
ATOM      9  C   UNL     1       3.621   3.911  17.302  0.00  0.00    +0.000 A 
ATOM     10  C   UNL     1       4.669   3.903  16.392  0.00  0.00    +0.000 A 
ENDROOT
BRANCH   1  12
ATOM     11  O   UNL     1       7.433   5.707  15.425  0.00  0.00    +0.000 OA
ATOM     12  N   UNL     1       6.473   5.035  15.206  0.00  0.00    +0.000 N 
ATOM     13  O   UNL     1       6.528   4.138  14.241  0.00  0.00    +0.000 OA
ENDBRANCH   1  12
BRANCH   6  14
ATOM     14  O   UNL     1       0.620   3.885  20.089  0.00  0.00    +0.000 OA
ATOM     15  H   UNL     1       0.601   4.534  20.804  0.00  0.00    +0.000 HD
ENDBRANCH   6  14
BRANCH   7  16
ATOM     16  O   UNL     1       1.513   1.504  18.919  0.00  0.00    +0.000 OA
ATOM     17  H   UNL     1       1.416   1.220  19.839  0.00  0.00    +0.000 HD
ENDBRANCH   7  16
BRANCH   3  18
ATOM     18  C   UNL     1       3.341   7.668  18.105  0.00  0.00    +0.000 C 
BRANCH  18  19
ATOM     19  N   UNL     1       1.885   7.828  17.939  0.00  0.00    +0.000 NA
ATOM     20  H   UNL     1       1.411   7.379  18.758  0.00  0.00    +0.000 HD
BRANCH  19  21
ATOM     21  C   UNL     1       1.519   9.255  17.922  0.00  0.00    +0.000 C 
BRANCH  21  22
ATOM     22  C   UNL     1       1.202   9.753  19.313  0.00  0.00    +0.000 A 
ATOM     23  C   UNL     1       1.032  11.125  19.565  0.00  0.00    +0.000 A 
ATOM     24  C   UNL     1       0.723  11.557  20.857  0.00  0.00    +0.000 A 
ATOM     25  N   UNL     1       0.587  10.653  21.864  0.00  0.00    +0.000 NA
ATOM     26  C   UNL     1       0.742   9.321  21.652  0.00  0.00    +0.000 A 
ATOM     27  C   UNL     1       1.051   8.847  20.374  0.00  0.00    +0.000 A 
ENDBRANCH  21  22
ENDBRANCH  19  21
ENDBRANCH  18  19
ENDBRANCH   3  18
TORSDOF 7
ENDMDL
