MODEL 1
REMARK VINA RESULT:      -8.2      0.000      0.000
REMARK  Name = 
REMARK  2 active torsions:
REMARK  status: ('A' for Active; 'I' for Inactive)
REMARK    1  A    between atoms: N_15  and  C_16
REMARK    2  A    between atoms: C_19  and  C_20
REMARK                            x       y       z     vdW  Elec       q    Type
REMARK                         _______ _______ _______ _____ _____    ______ ____
ROOT
ATOM      1  O   UNL     1       3.444   1.610  17.442  0.00  0.00    +0.000 OA
ATOM      2  C   UNL     1       3.671   2.736  17.869  0.00  0.00    +0.000 C 
ATOM      3  C   UNL     1       2.769   3.377  18.881  0.00  0.00    +0.000 A 
ATOM      4  C   UNL     1       1.643   2.685  19.337  0.00  0.00    +0.000 A 
ATOM      5  C   UNL     1       0.783   3.282  20.263  0.00  0.00    +0.000 A 
ATOM      6  C   UNL     1       1.034   4.567  20.744  0.00  0.00    +0.000 A 
ATOM      7  C   UNL     1       2.154   5.264  20.302  0.00  0.00    +0.000 A 
ATOM      8  C   UNL     1       3.018   4.674  19.374  0.00  0.00    +0.000 A 
ATOM      9  C   UNL     1       4.190   5.459  18.912  0.00  0.00    +0.000 C 
ATOM     10  O   UNL     1       4.335   6.611  19.309  0.00  0.00    +0.000 OA
ATOM     11  C   UNL     1       5.032   4.795  17.983  0.00  0.00    +0.000 A 
ATOM     12  C   UNL     1       4.791   3.552  17.454  0.00  0.00    +0.000 A 
ATOM     13  N   UNL     1       5.698   3.284  16.477  0.00  0.00    +0.000 NA
ATOM     14  N   UNL     1       6.482   4.354  16.356  0.00  0.00    +0.000 NA
ATOM     15  N   UNL     1       6.152   5.242  17.330  0.00  0.00    +0.000 N 
ENDROOT
BRANCH  15  16
ATOM     16  C   UNL     1       6.963   6.364  17.592  0.00  0.00    +0.000 A 
ATOM     17  C   UNL     1       7.834   6.326  18.679  0.00  0.00    +0.000 A 
ATOM     18  C   UNL     1       8.529   7.480  19.045  0.00  0.00    +0.000 A 
ATOM     19  C   UNL     1       8.354   8.696  18.355  0.00  0.00    +0.000 A 
ATOM     20  C   UNL     1       7.528   8.681  17.218  0.00  0.00    +0.000 A 
ATOM     21  C   UNL     1       6.837   7.530  16.835  0.00  0.00    +0.000 A 
BRANCH  19  22
ATOM     22  C   UNL     1       8.956   9.951  18.855  0.00  0.00    +0.000 A 
ATOM     23  C   UNL     1       9.446  10.933  17.984  0.00  0.00    +0.000 A 
ATOM     24  C   UNL     1      10.067  12.058  18.504  0.00  0.00    +0.000 A 
ATOM     25  N   UNL     1      10.221  12.293  19.822  0.00  0.00    +0.000 NA
ATOM     26  C   UNL     1       9.736  11.350  20.656  0.00  0.00    +0.000 A 
ATOM     27  C   UNL     1       9.117  10.188  20.226  0.00  0.00    +0.000 A 
ENDBRANCH  19  22
ENDBRANCH  15  16
TORSDOF 2
ENDMDL
MODEL 2
REMARK VINA RESULT:      -8.0      4.533      6.863
REMARK  Name = 
REMARK  2 active torsions:
REMARK  status: ('A' for Active; 'I' for Inactive)
REMARK    1  A    between atoms: N_15  and  C_16
REMARK    2  A    between atoms: C_19  and  C_20
REMARK                            x       y       z     vdW  Elec       q    Type
REMARK                         _______ _______ _______ _____ _____    ______ ____
ROOT
ATOM      1  O   UNL     1       0.492   8.246  22.200  0.00  0.00    +0.000 OA
ATOM      2  C   UNL     1       0.988   8.274  21.080  0.00  0.00    +0.000 C 
ATOM      3  C   UNL     1       0.860   9.484  20.205  0.00  0.00    +0.000 A 
ATOM      4  C   UNL     1       0.151  10.597  20.668  0.00  0.00    +0.000 A 
ATOM      5  C   UNL     1       0.005  11.723  19.851  0.00  0.00    +0.000 A 
ATOM      6  C   UNL     1       0.562  11.753  18.573  0.00  0.00    +0.000 A 
ATOM      7  C   UNL     1       1.273  10.654  18.102  0.00  0.00    +0.000 A 
ATOM      8  C   UNL     1       1.423   9.524  18.913  0.00  0.00    +0.000 A 
ATOM      9  C   UNL     1       2.171   8.366  18.366  0.00  0.00    +0.000 C 
ATOM     10  O   UNL     1       2.585   8.409  17.211  0.00  0.00    +0.000 OA
ATOM     11  C   UNL     1       2.296   7.259  19.245  0.00  0.00    +0.000 A 
ATOM     12  C   UNL     1       1.723   7.176  20.489  0.00  0.00    +0.000 A 
ATOM     13  N   UNL     1       1.899   5.927  20.994  0.00  0.00    +0.000 NA
ATOM     14  N   UNL     1       2.539   5.209  20.073  0.00  0.00    +0.000 NA
ATOM     15  N   UNL     1       2.874   6.032  19.043  0.00  0.00    +0.000 N 
ENDROOT
BRANCH  15  16
ATOM     16  C   UNL     1       3.756   5.603  18.033  0.00  0.00    +0.000 A 
ATOM     17  C   UNL     1       4.729   6.486  17.568  0.00  0.00    +0.000 A 
ATOM     18  C   UNL     1       5.507   6.136  16.464  0.00  0.00    +0.000 A 
ATOM     19  C   UNL     1       5.319   4.915  15.788  0.00  0.00    +0.000 A 
ATOM     20  C   UNL     1       4.384   4.015  16.326  0.00  0.00    +0.000 A 
ATOM     21  C   UNL     1       3.607   4.349  17.437  0.00  0.00    +0.000 A 
BRANCH  19  22
ATOM     22  C   UNL     1       6.024   4.628  14.519  0.00  0.00    +0.000 A 
ATOM     23  C   UNL     1       7.226   5.263  14.181  0.00  0.00    +0.000 A 
ATOM     24  C   UNL     1       7.808   5.013  12.948  0.00  0.00    +0.000 A 
ATOM     25  N   UNL     1       7.298   4.166  12.033  0.00  0.00    +0.000 NA
ATOM     26  C   UNL     1       6.146   3.548  12.367  0.00  0.00    +0.000 A 
ATOM     27  C   UNL     1       5.487   3.749  13.569  0.00  0.00    +0.000 A 
ENDBRANCH  19  22
ENDBRANCH  15  16
TORSDOF 2
ENDMDL
MODEL 3
REMARK VINA RESULT:      -7.9      6.677      9.764
REMARK  Name = 
REMARK  2 active torsions:
REMARK  status: ('A' for Active; 'I' for Inactive)
REMARK    1  A    between atoms: N_15  and  C_16
REMARK    2  A    between atoms: C_19  and  C_20
REMARK                            x       y       z     vdW  Elec       q    Type
REMARK                         _______ _______ _______ _____ _____    ______ ____
ROOT
ATOM      1  O   UNL     1      -1.439  14.861  19.883  0.00  0.00    +0.000 OA
ATOM      2  C   UNL     1      -0.483  14.203  19.490  0.00  0.00    +0.000 C 
ATOM      3  C   UNL     1       0.742  14.869  18.939  0.00  0.00    +0.000 A 
ATOM      4  C   UNL     1       0.792  16.264  18.862  0.00  0.00    +0.000 A 
ATOM      5  C   UNL     1       1.920  16.895  18.329  0.00  0.00    +0.000 A 
ATOM      6  C   UNL     1       3.006  16.148  17.873  0.00  0.00    +0.000 A 
ATOM      7  C   UNL     1       2.971  14.760  17.949  0.00  0.00    +0.000 A 
ATOM      8  C   UNL     1       1.845  14.121  18.479  0.00  0.00    +0.000 A 
ATOM      9  C   UNL     1       1.839  12.638  18.524  0.00  0.00    +0.000 C 
ATOM     10  O   UNL     1       2.786  12.019  18.048  0.00  0.00    +0.000 OA
ATOM     11  C   UNL     1       0.673  12.056  19.086  0.00  0.00    +0.000 A 
ATOM     12  C   UNL     1      -0.432  12.757  19.501  0.00  0.00    +0.000 A 
ATOM     13  N   UNL     1      -1.427  11.892  19.831  0.00  0.00    +0.000 NA
ATOM     14  N   UNL     1      -0.982  10.660  19.593  0.00  0.00    +0.000 NA
ATOM     15  N   UNL     1       0.327  10.738  19.232  0.00  0.00    +0.000 N 
ENDROOT
BRANCH  15  16
ATOM     16  C   UNL     1       1.122   9.579  19.143  0.00  0.00    +0.000 A 
ATOM     17  C   UNL     1       1.602   9.185  17.895  0.00  0.00    +0.000 A 
ATOM     18  C   UNL     1       2.258   7.961  17.764  0.00  0.00    +0.000 A 
ATOM     19  C   UNL     1       2.427   7.094  18.861  0.00  0.00    +0.000 A 
ATOM     20  C   UNL     1       2.000   7.553  20.119  0.00  0.00    +0.000 A 
ATOM     21  C   UNL     1       1.353   8.782  20.265  0.00  0.00    +0.000 A 
BRANCH  19  22
ATOM     22  C   UNL     1       2.964   5.727  18.680  0.00  0.00    +0.000 A 
ATOM     23  C   UNL     1       3.679   5.360  17.533  0.00  0.00    +0.000 A 
ATOM     24  C   UNL     1       4.097   4.048  17.379  0.00  0.00    +0.000 A 
ATOM     25  N   UNL     1       3.877   3.076  18.287  0.00  0.00    +0.000 NA
ATOM     26  C   UNL     1       3.199   3.438  19.396  0.00  0.00    +0.000 A 
ATOM     27  C   UNL     1       2.730   4.721  19.626  0.00  0.00    +0.000 A 
ENDBRANCH  19  22
ENDBRANCH  15  16
TORSDOF 2
ENDMDL
MODEL 4
REMARK VINA RESULT:      -7.9      4.843      6.905
REMARK  Name = 
REMARK  2 active torsions:
REMARK  status: ('A' for Active; 'I' for Inactive)
REMARK    1  A    between atoms: N_15  and  C_16
REMARK    2  A    between atoms: C_19  and  C_20
REMARK                            x       y       z     vdW  Elec       q    Type
REMARK                         _______ _______ _______ _____ _____    ______ ____
ROOT
ATOM      1  O   UNL     1       3.762   2.210  17.897  0.00  0.00    +0.000 OA
ATOM      2  C   UNL     1       3.816   3.430  17.798  0.00  0.00    +0.000 C 
ATOM      3  C   UNL     1       4.667   4.086  16.752  0.00  0.00    +0.000 A 
ATOM      4  C   UNL     1       5.421   3.294  15.882  0.00  0.00    +0.000 A 
ATOM      5  C   UNL     1       6.236   3.895  14.917  0.00  0.00    +0.000 A 
ATOM      6  C   UNL     1       6.306   5.283  14.809  0.00  0.00    +0.000 A 
ATOM      7  C   UNL     1       5.557   6.083  15.666  0.00  0.00    +0.000 A 
ATOM      8  C   UNL     1       4.740   5.489  16.634  0.00  0.00    +0.000 A 
ATOM      9  C   UNL     1       3.974   6.377  17.542  0.00  0.00    +0.000 C 
ATOM     10  O   UNL     1       4.118   7.593  17.456  0.00  0.00    +0.000 OA
ATOM     11  C   UNL     1       3.156   5.710  18.490  0.00  0.00    +0.000 A 
ATOM     12  C   UNL     1       3.098   4.348  18.656  0.00  0.00    +0.000 A 
ATOM     13  N   UNL     1       2.350   4.050  19.751  0.00  0.00    +0.000 NA
ATOM     14  N   UNL     1       1.969   5.202  20.300  0.00  0.00    +0.000 NA
ATOM     15  N   UNL     1       2.369   6.218  19.491  0.00  0.00    +0.000 N 
ENDROOT
BRANCH  15  16
ATOM     16  C   UNL     1       1.907   7.532  19.698  0.00  0.00    +0.000 A 
ATOM     17  C   UNL     1       1.583   7.937  20.992  0.00  0.00    +0.000 A 
ATOM     18  C   UNL     1       0.979   9.178  21.194  0.00  0.00    +0.000 A 
ATOM     19  C   UNL     1       0.663  10.029  20.117  0.00  0.00    +0.000 A 
ATOM     20  C   UNL     1       1.070   9.626  18.834  0.00  0.00    +0.000 A 
ATOM     21  C   UNL     1       1.687   8.391  18.620  0.00  0.00    +0.000 A 
BRANCH  19  22
ATOM     22  C   UNL     1      -0.133  11.259  20.323  0.00  0.00    +0.000 A 
ATOM     23  C   UNL     1       0.253  12.244  21.241  0.00  0.00    +0.000 A 
ATOM     24  C   UNL     1      -0.566  13.342  21.449  0.00  0.00    +0.000 A 
ATOM     25  N   UNL     1      -1.729  13.549  20.800  0.00  0.00    +0.000 NA
ATOM     26  C   UNL     1      -2.090  12.603  19.907  0.00  0.00    +0.000 A 
ATOM     27  C   UNL     1      -1.343  11.466  19.647  0.00  0.00    +0.000 A 
ENDBRANCH  19  22
ENDBRANCH  15  16
TORSDOF 2
ENDMDL
MODEL 5
REMARK VINA RESULT:      -7.9      6.694      9.621
REMARK  Name = 
REMARK  2 active torsions:
REMARK  status: ('A' for Active; 'I' for Inactive)
REMARK    1  A    between atoms: N_15  and  C_16
REMARK    2  A    between atoms: C_19  and  C_20
REMARK                            x       y       z     vdW  Elec       q    Type
REMARK                         _______ _______ _______ _____ _____    ______ ____
ROOT
ATOM      1  O   UNL     1      -1.087  15.229  20.053  0.00  0.00    +0.000 OA
ATOM      2  C   UNL     1      -0.238  14.467  19.606  0.00  0.00    +0.000 C 
ATOM      3  C   UNL     1       1.027  14.990  18.995  0.00  0.00    +0.000 A 
ATOM      4  C   UNL     1       1.239  16.370  18.922  0.00  0.00    +0.000 A 
ATOM      5  C   UNL     1       2.405  16.869  18.334  0.00  0.00    +0.000 A 
ATOM      6  C   UNL     1       3.368  16.004  17.816  0.00  0.00    +0.000 A 
ATOM      7  C   UNL     1       3.172  14.629  17.886  0.00  0.00    +0.000 A 
ATOM      8  C   UNL     1       2.008  14.122  18.472  0.00  0.00    +0.000 A 
ATOM      9  C   UNL     1       1.827  12.650  18.509  0.00  0.00    +0.000 C 
ATOM     10  O   UNL     1       2.668  11.928  17.980  0.00  0.00    +0.000 OA
ATOM     11  C   UNL     1       0.632  12.203  19.129  0.00  0.00    +0.000 A 
ATOM     12  C   UNL     1      -0.359  13.026  19.607  0.00  0.00    +0.000 A 
ATOM     13  N   UNL     1      -1.431  12.281  19.984  0.00  0.00    +0.000 NA
ATOM     14  N   UNL     1      -1.149  11.008  19.717  0.00  0.00    +0.000 NA
ATOM     15  N   UNL     1       0.139  10.934  19.286  0.00  0.00    +0.000 N 
ENDROOT
BRANCH  15  16
ATOM     16  C   UNL     1       0.784   9.690  19.148  0.00  0.00    +0.000 A 
ATOM     17  C   UNL     1       1.062   8.944  20.292  0.00  0.00    +0.000 A 
ATOM     18  C   UNL     1       1.837   7.788  20.190  0.00  0.00    +0.000 A 
ATOM     19  C   UNL     1       2.370   7.365  18.957  0.00  0.00    +0.000 A 
ATOM     20  C   UNL     1       2.009   8.095  17.811  0.00  0.00    +0.000 A 
ATOM     21  C   UNL     1       1.225   9.247  17.900  0.00  0.00    +0.000 A 
BRANCH  19  22
ATOM     22  C   UNL     1       3.332   6.243  18.884  0.00  0.00    +0.000 A 
ATOM     23  C   UNL     1       4.412   6.252  17.993  0.00  0.00    +0.000 A 
ATOM     24  C   UNL     1       5.241   5.144  17.913  0.00  0.00    +0.000 A 
ATOM     25  N   UNL     1       5.092   4.036  18.665  0.00  0.00    +0.000 NA
ATOM     26  C   UNL     1       4.057   4.037  19.531  0.00  0.00    +0.000 A 
ATOM     27  C   UNL     1       3.169   5.092  19.666  0.00  0.00    +0.000 A 
ENDBRANCH  19  22
ENDBRANCH  15  16
TORSDOF 2
ENDMDL
MODEL 6
REMARK VINA RESULT:      -7.8      5.937      7.919
REMARK  Name = 
REMARK  2 active torsions:
REMARK  status: ('A' for Active; 'I' for Inactive)
REMARK    1  A    between atoms: N_15  and  C_16
REMARK    2  A    between atoms: C_19  and  C_20
REMARK                            x       y       z     vdW  Elec       q    Type
REMARK                         _______ _______ _______ _____ _____    ______ ____
ROOT
ATOM      1  O   UNL     1       4.601   6.275  16.915  0.00  0.00    +0.000 OA
ATOM      2  C   UNL     1       3.806   6.357  17.843  0.00  0.00    +0.000 C 
ATOM      3  C   UNL     1       3.604   5.216  18.795  0.00  0.00    +0.000 A 
ATOM      4  C   UNL     1       4.327   4.033  18.614  0.00  0.00    +0.000 A 
ATOM      5  C   UNL     1       4.130   2.955  19.482  0.00  0.00    +0.000 A 
ATOM      6  C   UNL     1       3.219   3.043  20.534  0.00  0.00    +0.000 A 
ATOM      7  C   UNL     1       2.497   4.216  20.727  0.00  0.00    +0.000 A 
ATOM      8  C   UNL     1       2.688   5.299  19.863  0.00  0.00    +0.000 A 
ATOM      9  C   UNL     1       1.883   6.525  20.090  0.00  0.00    +0.000 C 
ATOM     10  O   UNL     1       1.043   6.534  20.985  0.00  0.00    +0.000 OA
ATOM     11  C   UNL     1       2.136   7.589  19.186  0.00  0.00    +0.000 A 
ATOM     12  C   UNL     1       2.990   7.521  18.114  0.00  0.00    +0.000 A 
ATOM     13  N   UNL     1       2.874   8.648  17.362  0.00  0.00    +0.000 NA
ATOM     14  N   UNL     1       1.933   9.407  17.922  0.00  0.00    +0.000 NA
ATOM     15  N   UNL     1       1.544   8.821  19.085  0.00  0.00    +0.000 N 
ENDROOT
BRANCH  15  16
ATOM     16  C   UNL     1       0.729   9.511  20.005  0.00  0.00    +0.000 A 
ATOM     17  C   UNL     1      -0.368  10.226  19.528  0.00  0.00    +0.000 A 
ATOM     18  C   UNL     1      -1.091  11.040  20.402  0.00  0.00    +0.000 A 
ATOM     19  C   UNL     1      -0.726  11.176  21.755  0.00  0.00    +0.000 A 
ATOM     20  C   UNL     1       0.336  10.383  22.221  0.00  0.00    +0.000 A 
ATOM     21  C   UNL     1       1.061   9.557  21.360  0.00  0.00    +0.000 A 
BRANCH  19  22
ATOM     22  C   UNL     1      -1.388  12.171  22.629  0.00  0.00    +0.000 A 
ATOM     23  C   UNL     1      -2.661  11.949  23.168  0.00  0.00    +0.000 A 
ATOM     24  C   UNL     1      -3.267  12.943  23.920  0.00  0.00    +0.000 A 
ATOM     25  N   UNL     1      -2.697  14.133  24.195  0.00  0.00    +0.000 NA
ATOM     26  C   UNL     1      -1.465  14.337  23.683  0.00  0.00    +0.000 A 
ATOM     27  C   UNL     1      -0.792  13.407  22.908  0.00  0.00    +0.000 A 
ENDBRANCH  19  22
ENDBRANCH  15  16
TORSDOF 2
ENDMDL
MODEL 7
REMARK VINA RESULT:      -7.8      6.757      9.072
REMARK  Name = 
REMARK  2 active torsions:
REMARK  status: ('A' for Active; 'I' for Inactive)
REMARK    1  A    between atoms: N_15  and  C_16
REMARK    2  A    between atoms: C_19  and  C_20
REMARK                            x       y       z     vdW  Elec       q    Type
REMARK                         _______ _______ _______ _____ _____    ______ ____
ROOT
ATOM      1  O   UNL     1      -3.100  13.279  20.960  0.00  0.00    +0.000 OA
ATOM      2  C   UNL     1      -2.688  12.396  20.218  0.00  0.00    +0.000 C 
ATOM      3  C   UNL     1      -3.439  12.011  18.979  0.00  0.00    +0.000 A 
ATOM      4  C   UNL     1      -4.638  12.661  18.670  0.00  0.00    +0.000 A 
ATOM      5  C   UNL     1      -5.358  12.294  17.529  0.00  0.00    +0.000 A 
ATOM      6  C   UNL     1      -4.895  11.283  16.688  0.00  0.00    +0.000 A 
ATOM      7  C   UNL     1      -3.702  10.632  16.982  0.00  0.00    +0.000 A 
ATOM      8  C   UNL     1      -2.975  10.993  18.121  0.00  0.00    +0.000 A 
ATOM      9  C   UNL     1      -1.718  10.259  18.410  0.00  0.00    +0.000 C 
ATOM     10  O   UNL     1      -1.383   9.331  17.681  0.00  0.00    +0.000 OA
ATOM     11  C   UNL     1      -1.025  10.685  19.573  0.00  0.00    +0.000 A 
ATOM     12  C   UNL     1      -1.474  11.643  20.448  0.00  0.00    +0.000 A 
ATOM     13  N   UNL     1      -0.659  11.690  21.534  0.00  0.00    +0.000 NA
ATOM     14  N   UNL     1       0.273  10.753  21.377  0.00  0.00    +0.000 NA
ATOM     15  N   UNL     1       0.122  10.198  20.145  0.00  0.00    +0.000 N 
ENDROOT
BRANCH  15  16
ATOM     16  C   UNL     1       1.105   9.342  19.612  0.00  0.00    +0.000 A 
ATOM     17  C   UNL     1       1.649   9.635  18.363  0.00  0.00    +0.000 A 
ATOM     18  C   UNL     1       2.505   8.717  17.753  0.00  0.00    +0.000 A 
ATOM     19  C   UNL     1       2.818   7.485  18.358  0.00  0.00    +0.000 A 
ATOM     20  C   UNL     1       2.314   7.252  19.649  0.00  0.00    +0.000 A 
ATOM     21  C   UNL     1       1.466   8.167  20.276  0.00  0.00    +0.000 A 
BRANCH  19  22
ATOM     22  C   UNL     1       3.581   6.447  17.629  0.00  0.00    +0.000 A 
ATOM     23  C   UNL     1       4.631   6.776  16.762  0.00  0.00    +0.000 A 
ATOM     24  C   UNL     1       5.266   5.772  16.048  0.00  0.00    +0.000 A 
ATOM     25  N   UNL     1       4.953   4.465  16.145  0.00  0.00    +0.000 NA
ATOM     26  C   UNL     1       3.949   4.152  16.991  0.00  0.00    +0.000 A 
ATOM     27  C   UNL     1       3.249   5.091  17.731  0.00  0.00    +0.000 A 
ENDBRANCH  19  22
ENDBRANCH  15  16
TORSDOF 2
ENDMDL
MODEL 8
REMARK VINA RESULT:      -7.7      7.045      9.431
REMARK  Name = 
REMARK  2 active torsions:
REMARK  status: ('A' for Active; 'I' for Inactive)
REMARK    1  A    between atoms: N_15  and  C_16
REMARK    2  A    between atoms: C_19  and  C_20
REMARK                            x       y       z     vdW  Elec       q    Type
REMARK                         _______ _______ _______ _____ _____    ______ ____
ROOT
ATOM      1  O   UNL     1      -3.111  13.886  21.139  0.00  0.00    +0.000 OA
ATOM      2  C   UNL     1      -2.787  12.911  20.472  0.00  0.00    +0.000 C 
ATOM      3  C   UNL     1      -3.676  12.384  19.386  0.00  0.00    +0.000 A 
ATOM      4  C   UNL     1      -4.903  13.008  19.136  0.00  0.00    +0.000 A 
ATOM      5  C   UNL     1      -5.750  12.511  18.141  0.00  0.00    +0.000 A 
ATOM      6  C   UNL     1      -5.387  11.396  17.387  0.00  0.00    +0.000 A 
ATOM      7  C   UNL     1      -4.168  10.769  17.622  0.00  0.00    +0.000 A 
ATOM      8  C   UNL     1      -3.315  11.260  18.617  0.00  0.00    +0.000 A 
ATOM      9  C   UNL     1      -2.033  10.550  18.850  0.00  0.00    +0.000 C 
ATOM     10  O   UNL     1      -1.784   9.532  18.211  0.00  0.00    +0.000 OA
ATOM     11  C   UNL     1      -1.210  11.108  19.863  0.00  0.00    +0.000 A 
ATOM     12  C   UNL     1      -1.555  12.174  20.656  0.00  0.00    +0.000 A 
ATOM     13  N   UNL     1      -0.621  12.346  21.627  0.00  0.00    +0.000 NA
ATOM     14  N   UNL     1       0.287  11.382  21.484  0.00  0.00    +0.000 NA
ATOM     15  N   UNL     1      -0.005  10.680  20.357  0.00  0.00    +0.000 N 
ENDROOT
BRANCH  15  16
ATOM     16  C   UNL     1       0.909   9.749  19.828  0.00  0.00    +0.000 A 
ATOM     17  C   UNL     1       1.399   9.943  18.538  0.00  0.00    +0.000 A 
ATOM     18  C   UNL     1       2.180   8.952  17.942  0.00  0.00    +0.000 A 
ATOM     19  C   UNL     1       2.470   7.744  18.604  0.00  0.00    +0.000 A 
ATOM     20  C   UNL     1       2.027   7.611  19.931  0.00  0.00    +0.000 A 
ATOM     21  C   UNL     1       1.254   8.599  20.543  0.00  0.00    +0.000 A 
BRANCH  19  22
ATOM     22  C   UNL     1       3.148   6.631  17.902  0.00  0.00    +0.000 A 
ATOM     23  C   UNL     1       2.684   5.312  17.987  0.00  0.00    +0.000 A 
ATOM     24  C   UNL     1       3.397   4.296  17.371  0.00  0.00    +0.000 A 
ATOM     25  N   UNL     1       4.524   4.492  16.659  0.00  0.00    +0.000 NA
ATOM     26  C   UNL     1       4.960   5.766  16.569  0.00  0.00    +0.000 A 
ATOM     27  C   UNL     1       4.321   6.840  17.166  0.00  0.00    +0.000 A 
ENDBRANCH  19  22
ENDBRANCH  15  16
TORSDOF 2
ENDMDL
MODEL 9
REMARK VINA RESULT:      -7.7      5.134      7.046
REMARK  Name = 
REMARK  2 active torsions:
REMARK  status: ('A' for Active; 'I' for Inactive)
REMARK    1  A    between atoms: N_15  and  C_16
REMARK    2  A    between atoms: C_19  and  C_20
REMARK                            x       y       z     vdW  Elec       q    Type
REMARK                         _______ _______ _______ _____ _____    ______ ____
ROOT
ATOM      1  O   UNL     1       3.294   2.528  18.402  0.00  0.00    +0.000 OA
ATOM      2  C   UNL     1       3.367   3.745  18.284  0.00  0.00    +0.000 C 
ATOM      3  C   UNL     1       4.198   4.371  17.205  0.00  0.00    +0.000 A 
ATOM      4  C   UNL     1       4.912   3.553  16.323  0.00  0.00    +0.000 A 
ATOM      5  C   UNL     1       5.708   4.126  15.327  0.00  0.00    +0.000 A 
ATOM      6  C   UNL     1       5.801   5.512  15.197  0.00  0.00    +0.000 A 
ATOM      7  C   UNL     1       5.092   6.336  16.065  0.00  0.00    +0.000 A 
ATOM      8  C   UNL     1       4.294   5.771  17.064  0.00  0.00    +0.000 A 
ATOM      9  C   UNL     1       3.570   6.685  17.982  0.00  0.00    +0.000 C 
ATOM     10  O   UNL     1       3.734   7.897  17.875  0.00  0.00    +0.000 OA
ATOM     11  C   UNL     1       2.769   6.046  18.963  0.00  0.00    +0.000 A 
ATOM     12  C   UNL     1       2.691   4.688  19.150  0.00  0.00    +0.000 A 
ATOM     13  N   UNL     1       1.971   4.419  20.270  0.00  0.00    +0.000 NA
ATOM     14  N   UNL     1       1.627   5.584  20.814  0.00  0.00    +0.000 NA
ATOM     15  N   UNL     1       2.021   6.582  19.979  0.00  0.00    +0.000 N 
ENDROOT
BRANCH  15  16
ATOM     16  C   UNL     1       1.589   7.907  20.182  0.00  0.00    +0.000 A 
ATOM     17  C   UNL     1       1.306   8.333  21.478  0.00  0.00    +0.000 A 
ATOM     18  C   UNL     1       0.730   9.588  21.679  0.00  0.00    +0.000 A 
ATOM     19  C   UNL     1       0.404  10.432  20.600  0.00  0.00    +0.000 A 
ATOM     20  C   UNL     1       0.772  10.006  19.312  0.00  0.00    +0.000 A 
ATOM     21  C   UNL     1       1.359   8.757  19.098  0.00  0.00    +0.000 A 
BRANCH  19  22
ATOM     22  C   UNL     1      -0.364  11.680  20.810  0.00  0.00    +0.000 A 
ATOM     23  C   UNL     1      -1.266  12.162  19.853  0.00  0.00    +0.000 A 
ATOM     24  C   UNL     1      -1.905  13.373  20.066  0.00  0.00    +0.000 A 
ATOM     25  N   UNL     1      -1.732  14.132  21.165  0.00  0.00    +0.000 NA
ATOM     26  C   UNL     1      -0.872  13.658  22.090  0.00  0.00    +0.000 A 
ATOM     27  C   UNL     1      -0.178  12.466  21.953  0.00  0.00    +0.000 A 
ENDBRANCH  19  22
ENDBRANCH  15  16
TORSDOF 2
ENDMDL
