MODEL 1
REMARK VINA RESULT:      -8.5      0.000      0.000
REMARK  Name = 
REMARK  9 active torsions:
REMARK  status: ('A' for Active; 'I' for Inactive)
REMARK    1  A    between atoms: C_1  and  O_2
REMARK    2  A    between atoms: O_2  and  C_3
REMARK    3  A    between atoms: C_6  and  C_7
REMARK    4  A    between atoms: C_10  and  C_11
REMARK    5  A    between atoms: N_16  and  CA_17
REMARK    6  A    between atoms: CA_17  and  CB_18
REMARK    7  A    between atoms: CA_17  and  C_25
REMARK    8  A    between atoms: CB_18  and  CG_19
REMARK    9  A    between atoms: C_25  and  OXT_27
REMARK                            x       y       z     vdW  Elec       q    Type
REMARK                         _______ _______ _______ _____ _____    ______ ____
ROOT
ATOM      1  C   UNK A   1       1.369   7.718  20.828  0.00  0.00    +0.000 C 
ATOM      2  C   UNK A   1       1.842   6.539  20.421  0.00  0.00    +0.000 C 
ATOM      3  N   UNK A   0       1.899   5.400  21.174  0.00  0.00    +0.000 N 
ATOM      4  C   UNK A   0       2.530   4.386  20.461  0.00  0.00    +0.000 C 
ATOM      5  S   UNK A   0       2.522   2.829  21.028  0.00  0.00    +0.000 S 
ATOM      6  N   PHE A   2       3.055   4.942  19.303  0.00  0.00    +0.000 N 
ATOM      7  C   UNK A   1       2.405   6.149  19.094  0.00  0.00    +0.000 C 
ATOM      8  O   UNK A   1       2.152   6.688  18.030  0.00  0.00    +0.000 OA
ATOM      9  H   UNK A   1       1.514   5.277  22.102  0.00  0.00    +0.000 HD
ENDROOT
BRANCH   1  13
ATOM     10  C   UNK A   1       1.185  11.209  19.126  0.00  0.00    +0.000 A 
ATOM     11  C   UNK A   1       1.622  10.307  18.170  0.00  0.00    +0.000 A 
ATOM     12  C   UNK A   1       1.724   8.972  18.661  0.00  0.00    +0.000 A 
ATOM     13  C   UNK A   1       1.367   8.867  19.990  0.00  0.00    +0.000 A 
ATOM     14  S   UNK A   1       0.821  10.379  20.586  0.00  0.00    +0.000 S 
BRANCH  10  18
ATOM     15  C   UNK A   1       0.835  15.495  18.775  0.00  0.00    +0.000 A 
ATOM     16  C   UNK A   1      -0.287  14.723  19.073  0.00  0.00    +0.000 A 
ATOM     17  C   UNK A   1      -0.187  13.331  19.197  0.00  0.00    +0.000 A 
ATOM     18  C   UNK A   1       1.039  12.677  19.011  0.00  0.00    +0.000 A 
ATOM     19  C   UNK A   1       2.157  13.468  18.694  0.00  0.00    +0.000 A 
ATOM     20  C   UNK A   1       2.058  14.861  18.571  0.00  0.00    +0.000 A 
BRANCH  15  22
ATOM     21  C   UNK A   1      -0.582  17.213  17.981  0.00  0.00    +0.000 C 
ATOM     22  O   UNK A   1       0.611  16.837  18.668  0.00  0.00    +0.000 OA
ENDBRANCH  15  22
ENDBRANCH  10  18
ENDBRANCH   1  13
BRANCH   6  23
ATOM     23  CA  PHE A   2       3.768   4.292  18.179  0.00  0.00    +0.000 C 
BRANCH  23  24
ATOM     24  C   PHE A   2       3.270   2.899  17.749  0.00  0.00    +0.000 C 
ATOM     25  O   PHE A   2       2.153   2.630  17.334  0.00  0.00    +0.000 OA
BRANCH  24  26
ATOM     26  OXT PHE A   2       4.181   1.911  17.968  0.00  0.00    +0.000 OA
ATOM     27  HXT PHE A   2       3.898   1.006  17.736  0.00  0.00    +0.000 HD
ENDBRANCH  24  26
ENDBRANCH  23  24
BRANCH  23  28
ATOM     28  CB  PHE A   2       5.301   4.107  18.462  0.00  0.00    +0.000 C 
BRANCH  28  29
ATOM     29  CG  PHE A   2       6.138   5.368  18.313  0.00  0.00    +0.000 A 
ATOM     30  CD1 PHE A   2       5.805   6.356  17.375  0.00  0.00    +0.000 A 
ATOM     31  CE1 PHE A   2       6.657   7.435  17.136  0.00  0.00    +0.000 A 
ATOM     32  CZ  PHE A   2       7.830   7.573  17.868  0.00  0.00    +0.000 A 
ATOM     33  CE2 PHE A   2       8.137   6.645  18.858  0.00  0.00    +0.000 A 
ATOM     34  CD2 PHE A   2       7.297   5.551  19.080  0.00  0.00    +0.000 A 
ENDBRANCH  28  29
ENDBRANCH  23  28
ENDBRANCH   6  23
TORSDOF 8
ENDMDL
MODEL 2
REMARK VINA RESULT:      -8.4      3.318      9.269
REMARK  Name = 
REMARK  9 active torsions:
REMARK  status: ('A' for Active; 'I' for Inactive)
REMARK    1  A    between atoms: C_1  and  O_2
REMARK    2  A    between atoms: O_2  and  C_3
REMARK    3  A    between atoms: C_6  and  C_7
REMARK    4  A    between atoms: C_10  and  C_11
REMARK    5  A    between atoms: N_16  and  CA_17
REMARK    6  A    between atoms: CA_17  and  CB_18
REMARK    7  A    between atoms: CA_17  and  C_25
REMARK    8  A    between atoms: CB_18  and  CG_19
REMARK    9  A    between atoms: C_25  and  OXT_27
REMARK                            x       y       z     vdW  Elec       q    Type
REMARK                         _______ _______ _______ _____ _____    ______ ____
ROOT
ATOM      1  C   UNK A   1       1.714   6.566  20.823  0.00  0.00    +0.000 C 
ATOM      2  C   UNK A   1       1.197   7.796  20.796  0.00  0.00    +0.000 C 
ATOM      3  N   UNK A   0       0.648   8.452  21.862  0.00  0.00    +0.000 N 
ATOM      4  C   UNK A   0       0.129   9.677  21.453  0.00  0.00    +0.000 C 
ATOM      5  S   UNK A   0      -0.376  10.791  22.572  0.00  0.00    +0.000 S 
ATOM      6  N   PHE A   2       0.179   9.721  20.068  0.00  0.00    +0.000 N 
ATOM      7  C   UNK A   1       1.086   8.755  19.658  0.00  0.00    +0.000 C 
ATOM      8  O   UNK A   1       1.807   8.776  18.674  0.00  0.00    +0.000 OA
ATOM      9  H   UNK A   1       0.639   8.131  22.822  0.00  0.00    +0.000 HD
ENDROOT
BRANCH   1  13
ATOM     10  C   UNK A   1       3.719   5.289  17.747  0.00  0.00    +0.000 A 
ATOM     11  C   UNK A   1       2.575   4.513  17.843  0.00  0.00    +0.000 A 
ATOM     12  C   UNK A   1       1.735   4.885  18.933  0.00  0.00    +0.000 A 
ATOM     13  C   UNK A   1       2.245   5.940  19.661  0.00  0.00    +0.000 A 
ATOM     14  S   UNK A   1       3.691   6.521  18.945  0.00  0.00    +0.000 S 
BRANCH  10  18
ATOM     15  C   UNK A   1       7.062   4.930  15.043  0.00  0.00    +0.000 A 
ATOM     16  C   UNK A   1       5.924   4.148  14.856  0.00  0.00    +0.000 A 
ATOM     17  C   UNK A   1       4.828   4.258  15.722  0.00  0.00    +0.000 A 
ATOM     18  C   UNK A   1       4.852   5.147  16.806  0.00  0.00    +0.000 A 
ATOM     19  C   UNK A   1       6.014   5.916  16.990  0.00  0.00    +0.000 A 
ATOM     20  C   UNK A   1       7.111   5.806  16.124  0.00  0.00    +0.000 A 
BRANCH  15  22
ATOM     21  C   UNK A   1       7.832   5.221  12.827  0.00  0.00    +0.000 C 
ATOM     22  O   UNK A   1       8.068   4.725  14.144  0.00  0.00    +0.000 OA
ENDBRANCH  15  22
ENDBRANCH  10  18
ENDBRANCH   1  13
BRANCH   6  23
ATOM     23  CA  PHE A   2      -0.193  10.815  19.141  0.00  0.00    +0.000 C 
BRANCH  23  24
ATOM     24  C   PHE A   2       0.540  12.158  19.316  0.00  0.00    +0.000 C 
ATOM     25  O   PHE A   2       1.739  12.347  19.182  0.00  0.00    +0.000 OA
BRANCH  24  26
ATOM     26  OXT PHE A   2      -0.271  13.160  19.753  0.00  0.00    +0.000 OA
ATOM     27  HXT PHE A   2      -0.176  13.412  20.691  0.00  0.00    +0.000 HD
ENDBRANCH  24  26
ENDBRANCH  23  24
BRANCH  23  28
ATOM     28  CB  PHE A   2      -1.720  11.172  19.209  0.00  0.00    +0.000 C 
BRANCH  28  29
ATOM     29  CG  PHE A   2      -2.478  11.000  17.902  0.00  0.00    +0.000 A 
ATOM     30  CD1 PHE A   2      -3.753  11.555  17.722  0.00  0.00    +0.000 A 
ATOM     31  CE1 PHE A   2      -4.506  11.267  16.583  0.00  0.00    +0.000 A 
ATOM     32  CZ  PHE A   2      -3.977  10.463  15.580  0.00  0.00    +0.000 A 
ATOM     33  CE2 PHE A   2      -2.682   9.969  15.707  0.00  0.00    +0.000 A 
ATOM     34  CD2 PHE A   2      -1.938  10.236  16.858  0.00  0.00    +0.000 A 
ENDBRANCH  28  29
ENDBRANCH  23  28
ENDBRANCH   6  23
TORSDOF 8
ENDMDL
MODEL 3
REMARK VINA RESULT:      -8.4      3.728      6.507
REMARK  Name = 
REMARK  9 active torsions:
REMARK  status: ('A' for Active; 'I' for Inactive)
REMARK    1  A    between atoms: C_1  and  O_2
REMARK    2  A    between atoms: O_2  and  C_3
REMARK    3  A    between atoms: C_6  and  C_7
REMARK    4  A    between atoms: C_10  and  C_11
REMARK    5  A    between atoms: N_16  and  CA_17
REMARK    6  A    between atoms: CA_17  and  CB_18
REMARK    7  A    between atoms: CA_17  and  C_25
REMARK    8  A    between atoms: CB_18  and  CG_19
REMARK    9  A    between atoms: C_25  and  OXT_27
REMARK                            x       y       z     vdW  Elec       q    Type
REMARK                         _______ _______ _______ _____ _____    ______ ____
ROOT
ATOM      1  C   UNK A   1       6.025   5.210  17.107  0.00  0.00    +0.000 C 
ATOM      2  C   UNK A   1       5.017   4.685  17.808  0.00  0.00    +0.000 C 
ATOM      3  N   UNK A   0       4.095   3.795  17.333  0.00  0.00    +0.000 N 
ATOM      4  C   UNK A   0       3.140   3.530  18.310  0.00  0.00    +0.000 C 
ATOM      5  S   UNK A   0       2.044   2.305  18.102  0.00  0.00    +0.000 S 
ATOM      6  N   PHE A   2       3.349   4.411  19.362  0.00  0.00    +0.000 N 
ATOM      7  C   UNK A   1       4.639   4.904  19.236  0.00  0.00    +0.000 C 
ATOM      8  O   UNK A   1       5.398   5.250  20.126  0.00  0.00    +0.000 OA
ATOM      9  H   UNK A   1       4.104   3.354  16.423  0.00  0.00    +0.000 HD
ENDROOT
BRANCH   1  13
ATOM     10  C   UNK A   1       8.146   8.262  18.248  0.00  0.00    +0.000 A 
ATOM     11  C   UNK A   1       8.592   7.162  18.961  0.00  0.00    +0.000 A 
ATOM     12  C   UNK A   1       7.900   5.959  18.630  0.00  0.00    +0.000 A 
ATOM     13  C   UNK A   1       6.930   6.153  17.667  0.00  0.00    +0.000 A 
ATOM     14  S   UNK A   1       6.947   7.777  17.116  0.00  0.00    +0.000 S 
BRANCH  10  18
ATOM     15  C   UNK A   1       9.400  12.366  18.694  0.00  0.00    +0.000 A 
ATOM     16  C   UNK A   1       8.536  12.007  17.661  0.00  0.00    +0.000 A 
ATOM     17  C   UNK A   1       8.114  10.679  17.507  0.00  0.00    +0.000 A 
ATOM     18  C   UNK A   1       8.561   9.676  18.379  0.00  0.00    +0.000 A 
ATOM     19  C   UNK A   1       9.446  10.052  19.405  0.00  0.00    +0.000 A 
ATOM     20  C   UNK A   1       9.867  11.381  19.559  0.00  0.00    +0.000 A 
BRANCH  15  22
ATOM     21  C   UNK A   1       9.279  14.416  19.865  0.00  0.00    +0.000 C 
ATOM     22  O   UNK A   1       9.748  13.685  18.733  0.00  0.00    +0.000 OA
ENDBRANCH  15  22
ENDBRANCH  10  18
ENDBRANCH   1  13
BRANCH   6  23
ATOM     23  CA  PHE A   2       2.651   4.513  20.665  0.00  0.00    +0.000 C 
BRANCH  23  24
ATOM     24  C   PHE A   2       2.257   3.191  21.351  0.00  0.00    +0.000 C 
ATOM     25  O   PHE A   2       3.024   2.382  21.849  0.00  0.00    +0.000 OA
BRANCH  24  26
ATOM     26  OXT PHE A   2       0.925   2.922  21.274  0.00  0.00    +0.000 OA
ATOM     27  HXT PHE A   2       0.561   2.803  20.376  0.00  0.00    +0.000 HD
ENDBRANCH  24  26
ENDBRANCH  23  24
BRANCH  23  28
ATOM     28  CB  PHE A   2       1.319   5.338  20.574  0.00  0.00    +0.000 C 
BRANCH  28  29
ATOM     29  CG  PHE A   2       1.488   6.782  20.127  0.00  0.00    +0.000 A 
ATOM     30  CD1 PHE A   2       1.055   7.847  20.928  0.00  0.00    +0.000 A 
ATOM     31  CE1 PHE A   2       1.072   9.158  20.450  0.00  0.00    +0.000 A 
ATOM     32  CZ  PHE A   2       1.572   9.433  19.183  0.00  0.00    +0.000 A 
ATOM     33  CE2 PHE A   2       2.080   8.397  18.405  0.00  0.00    +0.000 A 
ATOM     34  CD2 PHE A   2       2.039   7.082  18.873  0.00  0.00    +0.000 A 
ENDBRANCH  28  29
ENDBRANCH  23  28
ENDBRANCH   6  23
TORSDOF 8
ENDMDL
MODEL 4
REMARK VINA RESULT:      -8.3      3.441      9.272
REMARK  Name = 
REMARK  9 active torsions:
REMARK  status: ('A' for Active; 'I' for Inactive)
REMARK    1  A    between atoms: C_1  and  O_2
REMARK    2  A    between atoms: O_2  and  C_3
REMARK    3  A    between atoms: C_6  and  C_7
REMARK    4  A    between atoms: C_10  and  C_11
REMARK    5  A    between atoms: N_16  and  CA_17
REMARK    6  A    between atoms: CA_17  and  CB_18
REMARK    7  A    between atoms: CA_17  and  C_25
REMARK    8  A    between atoms: CB_18  and  CG_19
REMARK    9  A    between atoms: C_25  and  OXT_27
REMARK                            x       y       z     vdW  Elec       q    Type
REMARK                         _______ _______ _______ _____ _____    ______ ____
ROOT
ATOM      1  C   UNK A   1       2.615   5.961  20.252  0.00  0.00    +0.000 C 
ATOM      2  C   UNK A   1       2.032   7.161  20.304  0.00  0.00    +0.000 C 
ATOM      3  N   UNK A   0       1.581   7.778  21.436  0.00  0.00    +0.000 N 
ATOM      4  C   UNK A   0       0.952   8.976  21.109  0.00  0.00    +0.000 C 
ATOM      5  S   UNK A   0       0.526  10.052  22.295  0.00  0.00    +0.000 S 
ATOM      6  N   PHE A   2       0.832   9.031  19.728  0.00  0.00    +0.000 N 
ATOM      7  C   UNK A   1       1.733   8.119  19.199  0.00  0.00    +0.000 C 
ATOM      8  O   UNK A   1       2.328   8.186  18.137  0.00  0.00    +0.000 OA
ATOM      9  H   UNK A   1       1.706   7.452  22.385  0.00  0.00    +0.000 HD
ENDROOT
BRANCH   1  13
ATOM     10  C   UNK A   1       4.282   4.837  16.924  0.00  0.00    +0.000 A 
ATOM     11  C   UNK A   1       3.241   3.960  17.179  0.00  0.00    +0.000 A 
ATOM     12  C   UNK A   1       2.529   4.266  18.377  0.00  0.00    +0.000 A 
ATOM     13  C   UNK A   1       3.035   5.373  19.027  0.00  0.00    +0.000 A 
ATOM     14  S   UNK A   1       4.305   6.076  18.115  0.00  0.00    +0.000 S 
BRANCH  10  18
ATOM     15  C   UNK A   1       7.146   4.658  13.702  0.00  0.00    +0.000 A 
ATOM     16  C   UNK A   1       7.467   5.315  14.888  0.00  0.00    +0.000 A 
ATOM     17  C   UNK A   1       6.550   5.376  15.946  0.00  0.00    +0.000 A 
ATOM     18  C   UNK A   1       5.281   4.790  15.834  0.00  0.00    +0.000 A 
ATOM     19  C   UNK A   1       4.966   4.146  14.625  0.00  0.00    +0.000 A 
ATOM     20  C   UNK A   1       5.884   4.084  13.567  0.00  0.00    +0.000 A 
BRANCH  15  22
ATOM     21  C   UNK A   1       8.606   5.967  12.382  0.00  0.00    +0.000 C 
ATOM     22  O   UNK A   1       8.115   4.676  12.741  0.00  0.00    +0.000 OA
ENDBRANCH  15  22
ENDBRANCH  10  18
ENDBRANCH   1  13
BRANCH   6  23
ATOM     23  CA  PHE A   2       0.292  10.109  18.866  0.00  0.00    +0.000 C 
BRANCH  23  24
ATOM     24  C   PHE A   2       1.089  11.426  18.814  0.00  0.00    +0.000 C 
ATOM     25  O   PHE A   2       0.824  12.452  19.421  0.00  0.00    +0.000 OA
BRANCH  24  26
ATOM     26  OXT PHE A   2       2.114  11.399  17.919  0.00  0.00    +0.000 OA
ATOM     27  HXT PHE A   2       1.957  10.891  17.101  0.00  0.00    +0.000 HD
ENDBRANCH  24  26
ENDBRANCH  23  24
BRANCH  23  28
ATOM     28  CB  PHE A   2      -1.166  10.530  19.268  0.00  0.00    +0.000 C 
BRANCH  28  29
ATOM     29  CG  PHE A   2      -2.161  10.572  18.119  0.00  0.00    +0.000 A 
ATOM     30  CD1 PHE A   2      -1.973   9.801  16.964  0.00  0.00    +0.000 A 
ATOM     31  CE1 PHE A   2      -2.803   9.957  15.854  0.00  0.00    +0.000 A 
ATOM     32  CZ  PHE A   2      -3.868  10.849  15.898  0.00  0.00    +0.000 A 
ATOM     33  CE2 PHE A   2      -4.118  11.565  17.065  0.00  0.00    +0.000 A 
ATOM     34  CD2 PHE A   2      -3.271  11.428  18.168  0.00  0.00    +0.000 A 
ENDBRANCH  28  29
ENDBRANCH  23  28
ENDBRANCH   6  23
TORSDOF 8
ENDMDL
MODEL 5
REMARK VINA RESULT:      -8.3      3.783      6.575
REMARK  Name = 
REMARK  9 active torsions:
REMARK  status: ('A' for Active; 'I' for Inactive)
REMARK    1  A    between atoms: C_1  and  O_2
REMARK    2  A    between atoms: O_2  and  C_3
REMARK    3  A    between atoms: C_6  and  C_7
REMARK    4  A    between atoms: C_10  and  C_11
REMARK    5  A    between atoms: N_16  and  CA_17
REMARK    6  A    between atoms: CA_17  and  CB_18
REMARK    7  A    between atoms: CA_17  and  C_25
REMARK    8  A    between atoms: CB_18  and  CG_19
REMARK    9  A    between atoms: C_25  and  OXT_27
REMARK                            x       y       z     vdW  Elec       q    Type
REMARK                         _______ _______ _______ _____ _____    ______ ____
ROOT
ATOM      1  C   UNK A   1       6.226   5.243  17.103  0.00  0.00    +0.000 C 
ATOM      2  C   UNK A   1       5.220   4.669  17.765  0.00  0.00    +0.000 C 
ATOM      3  N   UNK A   0       4.343   3.758  17.246  0.00  0.00    +0.000 N 
ATOM      4  C   UNK A   0       3.372   3.438  18.191  0.00  0.00    +0.000 C 
ATOM      5  S   UNK A   0       2.326   2.181  17.927  0.00  0.00    +0.000 S 
ATOM      6  N   PHE A   2       3.522   4.302  19.266  0.00  0.00    +0.000 N 
ATOM      7  C   UNK A   1       4.796   4.843  19.186  0.00  0.00    +0.000 C 
ATOM      8  O   UNK A   1       5.518   5.195  20.104  0.00  0.00    +0.000 OA
ATOM      9  H   UNK A   1       4.392   3.337  16.328  0.00  0.00    +0.000 HD
ENDROOT
BRANCH   1  13
ATOM     10  C   UNK A   1       8.242   8.334  18.328  0.00  0.00    +0.000 A 
ATOM     11  C   UNK A   1       8.637   7.253  19.099  0.00  0.00    +0.000 A 
ATOM     12  C   UNK A   1       7.978   6.039  18.745  0.00  0.00    +0.000 A 
ATOM     13  C   UNK A   1       7.083   6.204  17.708  0.00  0.00    +0.000 A 
ATOM     14  S   UNK A   1       7.134   7.815  17.121  0.00  0.00    +0.000 S 
BRANCH  10  18
ATOM     15  C   UNK A   1       9.363  12.488  18.641  0.00  0.00    +0.000 A 
ATOM     16  C   UNK A   1       9.847  11.562  19.562  0.00  0.00    +0.000 A 
ATOM     17  C   UNK A   1       9.498  10.208  19.469  0.00  0.00    +0.000 A 
ATOM     18  C   UNK A   1       8.641   9.753  18.457  0.00  0.00    +0.000 A 
ATOM     19  C   UNK A   1       8.148  10.703  17.546  0.00  0.00    +0.000 A 
ATOM     20  C   UNK A   1       8.498  12.057  17.638  0.00  0.00    +0.000 A 
BRANCH  15  22
ATOM     21  C   UNK A   1      10.644  13.988  19.943  0.00  0.00    +0.000 C 
ATOM     22  O   UNK A   1       9.763  13.778  18.841  0.00  0.00    +0.000 OA
ENDBRANCH  15  22
ENDBRANCH  10  18
ENDBRANCH   1  13
BRANCH   6  23
ATOM     23  CA  PHE A   2       2.786   4.352  20.551  0.00  0.00    +0.000 C 
BRANCH  23  24
ATOM     24  C   PHE A   2       2.411   3.002  21.193  0.00  0.00    +0.000 C 
ATOM     25  O   PHE A   2       1.287   2.643  21.508  0.00  0.00    +0.000 OA
BRANCH  24  26
ATOM     26  OXT PHE A   2       3.491   2.230  21.491  0.00  0.00    +0.000 OA
ATOM     27  HXT PHE A   2       4.136   2.615  22.113  0.00  0.00    +0.000 HD
ENDBRANCH  24  26
ENDBRANCH  23  24
BRANCH  23  28
ATOM     28  CB  PHE A   2       1.434   5.142  20.444  0.00  0.00    +0.000 C 
BRANCH  28  29
ATOM     29  CG  PHE A   2       1.576   6.608  20.066  0.00  0.00    +0.000 A 
ATOM     30  CD1 PHE A   2       1.175   7.628  20.940  0.00  0.00    +0.000 A 
ATOM     31  CE1 PHE A   2       1.165   8.961  20.530  0.00  0.00    +0.000 A 
ATOM     32  CZ  PHE A   2       1.606   9.304  19.257  0.00  0.00    +0.000 A 
ATOM     33  CE2 PHE A   2       2.083   8.314  18.405  0.00  0.00    +0.000 A 
ATOM     34  CD2 PHE A   2       2.069   6.975  18.805  0.00  0.00    +0.000 A 
ENDBRANCH  28  29
ENDBRANCH  23  28
ENDBRANCH   6  23
TORSDOF 8
ENDMDL
MODEL 6
REMARK VINA RESULT:      -8.3      3.567      9.417
REMARK  Name = 
REMARK  9 active torsions:
REMARK  status: ('A' for Active; 'I' for Inactive)
REMARK    1  A    between atoms: C_1  and  O_2
REMARK    2  A    between atoms: O_2  and  C_3
REMARK    3  A    between atoms: C_6  and  C_7
REMARK    4  A    between atoms: C_10  and  C_11
REMARK    5  A    between atoms: N_16  and  CA_17
REMARK    6  A    between atoms: CA_17  and  CB_18
REMARK    7  A    between atoms: CA_17  and  C_25
REMARK    8  A    between atoms: CB_18  and  CG_19
REMARK    9  A    between atoms: C_25  and  OXT_27
REMARK                            x       y       z     vdW  Elec       q    Type
REMARK                         _______ _______ _______ _____ _____    ______ ____
ROOT
ATOM      1  C   UNK A   1       2.713   5.879  20.127  0.00  0.00    +0.000 C 
ATOM      2  C   UNK A   1       2.156   7.091  20.176  0.00  0.00    +0.000 C 
ATOM      3  N   UNK A   0       1.794   7.755  21.314  0.00  0.00    +0.000 N 
ATOM      4  C   UNK A   0       1.165   8.953  20.988  0.00  0.00    +0.000 C 
ATOM      5  S   UNK A   0       0.839  10.077  22.162  0.00  0.00    +0.000 S 
ATOM      6  N   PHE A   2       0.953   8.965  19.617  0.00  0.00    +0.000 N 
ATOM      7  C   UNK A   1       1.800   8.018  19.062  0.00  0.00    +0.000 C 
ATOM      8  O   UNK A   1       2.324   8.038  17.960  0.00  0.00    +0.000 OA
ATOM      9  H   UNK A   1       1.977   7.457  22.264  0.00  0.00    +0.000 HD
ENDROOT
BRANCH   1  13
ATOM     10  C   UNK A   1       4.131   4.612  16.736  0.00  0.00    +0.000 A 
ATOM     11  C   UNK A   1       3.094   3.765  17.090  0.00  0.00    +0.000 A 
ATOM     12  C   UNK A   1       2.471   4.124  18.321  0.00  0.00    +0.000 A 
ATOM     13  C   UNK A   1       3.039   5.242  18.898  0.00  0.00    +0.000 A 
ATOM     14  S   UNK A   1       4.257   5.889  17.879  0.00  0.00    +0.000 S 
BRANCH  10  18
ATOM     15  C   UNK A   1       6.873   4.351  13.415  0.00  0.00    +0.000 A 
ATOM     16  C   UNK A   1       5.603   3.785  13.320  0.00  0.00    +0.000 A 
ATOM     17  C   UNK A   1       4.699   3.868  14.387  0.00  0.00    +0.000 A 
ATOM     18  C   UNK A   1       5.053   4.509  15.583  0.00  0.00    +0.000 A 
ATOM     19  C   UNK A   1       6.344   5.059  15.669  0.00  0.00    +0.000 A 
ATOM     20  C   UNK A   1       7.248   4.978  14.601  0.00  0.00    +0.000 A 
BRANCH  15  22
ATOM     21  C   UNK A   1       7.396   3.047  11.513  0.00  0.00    +0.000 C 
ATOM     22  O   UNK A   1       7.668   4.195  12.316  0.00  0.00    +0.000 OA
ENDBRANCH  15  22
ENDBRANCH  10  18
ENDBRANCH   1  13
BRANCH   6  23
ATOM     23  CA  PHE A   2       0.375  10.024  18.758  0.00  0.00    +0.000 C 
BRANCH  23  24
ATOM     24  C   PHE A   2       1.142  11.357  18.682  0.00  0.00    +0.000 C 
ATOM     25  O   PHE A   2       0.806  12.411  19.200  0.00  0.00    +0.000 OA
BRANCH  24  26
ATOM     26  OXT PHE A   2       2.234  11.305  17.871  0.00  0.00    +0.000 OA
ATOM     27  HXT PHE A   2       2.072  11.461  16.922  0.00  0.00    +0.000 HD
ENDBRANCH  24  26
ENDBRANCH  23  24
BRANCH  23  28
ATOM     28  CB  PHE A   2      -1.085  10.416  19.181  0.00  0.00    +0.000 C 
BRANCH  28  29
ATOM     29  CG  PHE A   2      -2.059  10.603  18.028  0.00  0.00    +0.000 A 
ATOM     30  CD1 PHE A   2      -3.149  11.478  18.130  0.00  0.00    +0.000 A 
ATOM     31  CE1 PHE A   2      -4.122  11.532  17.132  0.00  0.00    +0.000 A 
ATOM     32  CZ  PHE A   2      -3.995  10.749  15.990  0.00  0.00    +0.000 A 
ATOM     33  CE2 PHE A   2      -2.878   9.934  15.836  0.00  0.00    +0.000 A 
ATOM     34  CD2 PHE A   2      -1.917   9.861  16.847  0.00  0.00    +0.000 A 
ENDBRANCH  28  29
ENDBRANCH  23  28
ENDBRANCH   6  23
TORSDOF 8
ENDMDL
MODEL 7
REMARK VINA RESULT:      -8.2      0.438      1.403
REMARK  Name = 
REMARK  9 active torsions:
REMARK  status: ('A' for Active; 'I' for Inactive)
REMARK    1  A    between atoms: C_1  and  O_2
REMARK    2  A    between atoms: O_2  and  C_3
REMARK    3  A    between atoms: C_6  and  C_7
REMARK    4  A    between atoms: C_10  and  C_11
REMARK    5  A    between atoms: N_16  and  CA_17
REMARK    6  A    between atoms: CA_17  and  CB_18
REMARK    7  A    between atoms: CA_17  and  C_25
REMARK    8  A    between atoms: CB_18  and  CG_19
REMARK    9  A    between atoms: C_25  and  OXT_27
REMARK                            x       y       z     vdW  Elec       q    Type
REMARK                         _______ _______ _______ _____ _____    ______ ____
ROOT
ATOM      1  C   UNK A   1       1.399   7.721  20.826  0.00  0.00    +0.000 C 
ATOM      2  C   UNK A   1       1.877   6.541  20.427  0.00  0.00    +0.000 C 
ATOM      3  N   UNK A   0       1.946   5.410  21.190  0.00  0.00    +0.000 N 
ATOM      4  C   UNK A   0       2.580   4.393  20.481  0.00  0.00    +0.000 C 
ATOM      5  S   UNK A   0       2.585   2.841  21.063  0.00  0.00    +0.000 S 
ATOM      6  N   PHE A   2       3.093   4.942  19.315  0.00  0.00    +0.000 N 
ATOM      7  C   UNK A   1       2.434   6.143  19.100  0.00  0.00    +0.000 C 
ATOM      8  O   UNK A   1       2.171   6.670  18.032  0.00  0.00    +0.000 OA
ATOM      9  H   UNK A   1       1.568   5.293  22.121  0.00  0.00    +0.000 HD
ENDROOT
BRANCH   1  13
ATOM     10  C   UNK A   1       1.209  11.199  19.099  0.00  0.00    +0.000 A 
ATOM     11  C   UNK A   1       1.592  10.281  18.135  0.00  0.00    +0.000 A 
ATOM     12  C   UNK A   1       1.691   8.949  18.635  0.00  0.00    +0.000 A 
ATOM     13  C   UNK A   1       1.384   8.862  19.978  0.00  0.00    +0.000 A 
ATOM     14  S   UNK A   1       0.888  10.389  20.580  0.00  0.00    +0.000 S 
BRANCH  10  18
ATOM     15  C   UNK A   1       0.767  15.476  18.747  0.00  0.00    +0.000 A 
ATOM     16  C   UNK A   1       2.028  14.892  18.644  0.00  0.00    +0.000 A 
ATOM     17  C   UNK A   1       2.187  13.504  18.749  0.00  0.00    +0.000 A 
ATOM     18  C   UNK A   1       1.084  12.668  18.975  0.00  0.00    +0.000 A 
ATOM     19  C   UNK A   1      -0.179  13.275  19.094  0.00  0.00    +0.000 A 
ATOM     20  C   UNK A   1      -0.337  14.663  18.987  0.00  0.00    +0.000 A 
BRANCH  15  22
ATOM     21  C   UNK A   1       1.185  17.557  19.789  0.00  0.00    +0.000 C 
ATOM     22  O   UNK A   1       0.741  16.837  18.640  0.00  0.00    +0.000 OA
ENDBRANCH  15  22
ENDBRANCH  10  18
ENDBRANCH   1  13
BRANCH   6  23
ATOM     23  CA  PHE A   2       3.803   4.286  18.193  0.00  0.00    +0.000 C 
BRANCH  23  24
ATOM     24  C   PHE A   2       3.253   2.928  17.717  0.00  0.00    +0.000 C 
ATOM     25  O   PHE A   2       3.809   1.846  17.831  0.00  0.00    +0.000 OA
BRANCH  24  26
ATOM     26  OXT PHE A   2       2.080   3.032  17.035  0.00  0.00    +0.000 OA
ATOM     27  HXT PHE A   2       1.332   3.426  17.523  0.00  0.00    +0.000 HD
ENDBRANCH  24  26
ENDBRANCH  23  24
BRANCH  23  28
ATOM     28  CB  PHE A   2       5.319   4.024  18.506  0.00  0.00    +0.000 C 
BRANCH  28  29
ATOM     29  CG  PHE A   2       6.241   5.206  18.247  0.00  0.00    +0.000 A 
ATOM     30  CD1 PHE A   2       7.374   5.432  19.041  0.00  0.00    +0.000 A 
ATOM     31  CE1 PHE A   2       8.129   6.597  18.897  0.00  0.00    +0.000 A 
ATOM     32  CZ  PHE A   2       7.795   7.530  17.923  0.00  0.00    +0.000 A 
ATOM     33  CE2 PHE A   2       6.721   7.283  17.074  0.00  0.00    +0.000 A 
ATOM     34  CD2 PHE A   2       5.949   6.130  17.234  0.00  0.00    +0.000 A 
ENDBRANCH  28  29
ENDBRANCH  23  28
ENDBRANCH   6  23
TORSDOF 8
ENDMDL
MODEL 8
REMARK VINA RESULT:      -8.2      3.225     10.128
REMARK  Name = 
REMARK  9 active torsions:
REMARK  status: ('A' for Active; 'I' for Inactive)
REMARK    1  A    between atoms: C_1  and  O_2
REMARK    2  A    between atoms: O_2  and  C_3
REMARK    3  A    between atoms: C_6  and  C_7
REMARK    4  A    between atoms: C_10  and  C_11
REMARK    5  A    between atoms: N_16  and  CA_17
REMARK    6  A    between atoms: CA_17  and  CB_18
REMARK    7  A    between atoms: CA_17  and  C_25
REMARK    8  A    between atoms: CB_18  and  CG_19
REMARK    9  A    between atoms: C_25  and  OXT_27
REMARK                            x       y       z     vdW  Elec       q    Type
REMARK                         _______ _______ _______ _____ _____    ______ ____
ROOT
ATOM      1  C   UNK A   1      -0.482  10.241  20.868  0.00  0.00    +0.000 C 
ATOM      2  C   UNK A   1      -0.316  11.483  21.329  0.00  0.00    +0.000 C 
ATOM      3  N   UNK A   0      -1.110  12.102  22.253  0.00  0.00    +0.000 N 
ATOM      4  C   UNK A   0      -0.696  13.419  22.432  0.00  0.00    +0.000 C 
ATOM      5  S   UNK A   0      -1.318  14.334  23.666  0.00  0.00    +0.000 S 
ATOM      6  N   PHE A   2       0.260  13.701  21.467  0.00  0.00    +0.000 N 
ATOM      7  C   UNK A   1       0.734  12.488  20.991  0.00  0.00    +0.000 C 
ATOM      8  O   UNK A   1       1.852  12.234  20.574  0.00  0.00    +0.000 OA
ATOM      9  H   UNK A   1      -1.869  11.677  22.769  0.00  0.00    +0.000 HD
ENDROOT
BRANCH   1  13
ATOM     10  C   UNK A   1       2.079   8.270  18.707  0.00  0.00    +0.000 A 
ATOM     11  C   UNK A   1       1.418   9.147  17.864  0.00  0.00    +0.000 A 
ATOM     12  C   UNK A   1       0.448   9.949  18.535  0.00  0.00    +0.000 A 
ATOM     13  C   UNK A   1       0.375   9.675  19.885  0.00  0.00    +0.000 A 
ATOM     14  S   UNK A   1       1.559   8.515  20.327  0.00  0.00    +0.000 S 
BRANCH  10  18
ATOM     15  C   UNK A   1       5.015   5.295  17.636  0.00  0.00    +0.000 A 
ATOM     16  C   UNK A   1       4.236   5.130  18.779  0.00  0.00    +0.000 A 
ATOM     17  C   UNK A   1       3.274   6.083  19.137  0.00  0.00    +0.000 A 
ATOM     18  C   UNK A   1       3.080   7.236  18.362  0.00  0.00    +0.000 A 
ATOM     19  C   UNK A   1       3.885   7.396  17.221  0.00  0.00    +0.000 A 
ATOM     20  C   UNK A   1       4.847   6.441  16.863  0.00  0.00    +0.000 A 
BRANCH  15  22
ATOM     21  C   UNK A   1       7.289   4.649  17.641  0.00  0.00    +0.000 C 
ATOM     22  O   UNK A   1       5.925   4.306  17.399  0.00  0.00    +0.000 OA
ENDBRANCH  15  22
ENDBRANCH  10  18
ENDBRANCH   1  13
BRANCH   6  23
ATOM     23  CA  PHE A   2       1.055  14.932  21.254  0.00  0.00    +0.000 C 
BRANCH  23  24
ATOM     24  C   PHE A   2       2.095  15.287  22.333  0.00  0.00    +0.000 C 
ATOM     25  O   PHE A   2       2.032  16.225  23.113  0.00  0.00    +0.000 OA
BRANCH  24  26
ATOM     26  OXT PHE A   2       3.202  14.496  22.294  0.00  0.00    +0.000 OA
ATOM     27  HXT PHE A   2       3.955  14.835  21.773  0.00  0.00    +0.000 HD
ENDBRANCH  24  26
ENDBRANCH  23  24
BRANCH  23  28
ATOM     28  CB  PHE A   2       0.160  16.214  21.114  0.00  0.00    +0.000 C 
BRANCH  28  29
ATOM     29  CG  PHE A   2       0.226  16.898  19.757  0.00  0.00    +0.000 A 
ATOM     30  CD1 PHE A   2      -0.940  17.243  19.059  0.00  0.00    +0.000 A 
ATOM     31  CE1 PHE A   2      -0.875  17.729  17.753  0.00  0.00    +0.000 A 
ATOM     32  CZ  PHE A   2       0.357  17.929  17.141  0.00  0.00    +0.000 A 
ATOM     33  CE2 PHE A   2       1.526  17.667  17.849  0.00  0.00    +0.000 A 
ATOM     34  CD2 PHE A   2       1.461  17.156  19.147  0.00  0.00    +0.000 A 
ENDBRANCH  28  29
ENDBRANCH  23  28
ENDBRANCH   6  23
TORSDOF 8
ENDMDL
MODEL 9
REMARK VINA RESULT:      -8.2      0.872      1.285
REMARK  Name = 
REMARK  9 active torsions:
REMARK  status: ('A' for Active; 'I' for Inactive)
REMARK    1  A    between atoms: C_1  and  O_2
REMARK    2  A    between atoms: O_2  and  C_3
REMARK    3  A    between atoms: C_6  and  C_7
REMARK    4  A    between atoms: C_10  and  C_11
REMARK    5  A    between atoms: N_16  and  CA_17
REMARK    6  A    between atoms: CA_17  and  CB_18
REMARK    7  A    between atoms: CA_17  and  C_25
REMARK    8  A    between atoms: CB_18  and  CG_19
REMARK    9  A    between atoms: C_25  and  OXT_27
REMARK                            x       y       z     vdW  Elec       q    Type
REMARK                         _______ _______ _______ _____ _____    ______ ____
ROOT
ATOM      1  C   UNK A   1       1.164   7.948  20.861  0.00  0.00    +0.000 C 
ATOM      2  C   UNK A   1       1.746   6.826  20.432  0.00  0.00    +0.000 C 
ATOM      3  N   UNK A   0       1.912   5.685  21.165  0.00  0.00    +0.000 N 
ATOM      4  C   UNK A   0       2.636   4.748  20.433  0.00  0.00    +0.000 C 
ATOM      5  S   UNK A   0       2.776   3.187  20.972  0.00  0.00    +0.000 S 
ATOM      6  N   PHE A   2       3.103   5.372  19.285  0.00  0.00    +0.000 N 
ATOM      7  C   UNK A   1       2.341   6.516  19.099  0.00  0.00    +0.000 C 
ATOM      8  O   UNK A   1       2.037   7.047  18.044  0.00  0.00    +0.000 OA
ATOM      9  H   UNK A   1       1.542   5.509  22.090  0.00  0.00    +0.000 HD
ENDROOT
BRANCH   1  13
ATOM     10  C   UNK A   1       1.220  11.437  19.146  0.00  0.00    +0.000 A 
ATOM     11  C   UNK A   1       0.620  10.554  18.263  0.00  0.00    +0.000 A 
ATOM     12  C   UNK A   1       0.523   9.227  18.775  0.00  0.00    +0.000 A 
ATOM     13  C   UNK A   1       1.053   9.107  20.044  0.00  0.00    +0.000 A 
ATOM     14  S   UNK A   1       1.569  10.635  20.625  0.00  0.00    +0.000 S 
BRANCH  10  18
ATOM     15  C   UNK A   1       2.292  15.566  18.501  0.00  0.00    +0.000 A 
ATOM     16  C   UNK A   1       1.070  15.244  19.089  0.00  0.00    +0.000 A 
ATOM     17  C   UNK A   1       0.711  13.908  19.311  0.00  0.00    +0.000 A 
ATOM     18  C   UNK A   1       1.564  12.860  18.935  0.00  0.00    +0.000 A 
ATOM     19  C   UNK A   1       2.784  13.202  18.327  0.00  0.00    +0.000 A 
ATOM     20  C   UNK A   1       3.144  14.538  18.106  0.00  0.00    +0.000 A 
BRANCH  15  22
ATOM     21  C   UNK A   1       2.560  17.348  16.971  0.00  0.00    +0.000 C 
ATOM     22  O   UNK A   1       2.524  16.899  18.325  0.00  0.00    +0.000 OA
ENDBRANCH  15  22
ENDBRANCH  10  18
ENDBRANCH   1  13
BRANCH   6  23
ATOM     23  CA  PHE A   2       3.873   4.813  18.149  0.00  0.00    +0.000 C 
BRANCH  23  24
ATOM     24  C   PHE A   2       3.336   3.516  17.514  0.00  0.00    +0.000 C 
ATOM     25  O   PHE A   2       2.230   3.360  17.021  0.00  0.00    +0.000 OA
BRANCH  24  26
ATOM     26  OXT PHE A   2       4.192   2.465  17.634  0.00  0.00    +0.000 OA
ATOM     27  HXT PHE A   2       4.995   2.498  17.080  0.00  0.00    +0.000 HD
ENDBRANCH  24  26
ENDBRANCH  23  24
BRANCH  23  28
ATOM     28  CB  PHE A   2       5.363   4.495  18.527  0.00  0.00    +0.000 C 
BRANCH  28  29
ATOM     29  CG  PHE A   2       6.343   5.632  18.283  0.00  0.00    +0.000 A 
ATOM     30  CD1 PHE A   2       7.502   5.774  19.058  0.00  0.00    +0.000 A 
ATOM     31  CE1 PHE A   2       8.316   6.900  18.933  0.00  0.00    +0.000 A 
ATOM     32  CZ  PHE A   2       8.015   7.878  17.992  0.00  0.00    +0.000 A 
ATOM     33  CE2 PHE A   2       6.913   7.715  17.159  0.00  0.00    +0.000 A 
ATOM     34  CD2 PHE A   2       6.083   6.600  17.302  0.00  0.00    +0.000 A 
ENDBRANCH  28  29
ENDBRANCH  23  28
ENDBRANCH   6  23
TORSDOF 8
ENDMDL
