MODEL 1
REMARK VINA RESULT:      -9.0      0.000      0.000
REMARK  Name = 
REMARK  8 active torsions:
REMARK  status: ('A' for Active; 'I' for Inactive)
REMARK    1  A    between atoms: C_1  and  C_2
REMARK    2  A    between atoms: C_2  and  C_3
REMARK    3  A    between atoms: C_3  and  C_4
REMARK    4  A    between atoms: C_4  and  N_5
REMARK    5  A    between atoms: N_5  and  C_26
REMARK    6  A    between atoms: C_6  and  C_8
REMARK    7  A    between atoms: C_8  and  C_9
REMARK    8  A    between atoms: C_10  and  C_11
REMARK                            x       y       z     vdW  Elec       q    Type
REMARK                         _______ _______ _______ _____ _____    ______ ____
ROOT
ATOM      1  C   UNL     1       3.047   5.917  19.124  0.00  0.00    +0.000 A 
ATOM      2  C   UNL     1       2.071   6.635  19.808  0.00  0.00    +0.000 A 
ATOM      3  N   UNL     1       1.543   5.887  20.837  0.00  0.00    +0.000 NA
ATOM      4  C   UNL     1       2.158   4.729  20.791  0.00  0.00    +0.000 A 
ATOM      5  C   UNL     1       2.034   3.578  21.622  0.00  0.00    +0.000 A 
ATOM      6  C   UNL     1       2.853   2.525  21.429  0.00  0.00    +0.000 A 
ATOM      7  C   UNL     1       3.854   2.535  20.378  0.00  0.00    +0.000 A 
ATOM      8 CL   UNL     1       4.911   1.188  20.222  0.00  0.00    +0.000 Cl
ATOM      9  C   UNL     1       3.951   3.599  19.566  0.00  0.00    +0.000 A 
ATOM     10  N   UNL     1       3.105   4.692  19.769  0.00  0.00    +0.000 N 
ENDROOT
BRANCH   2  11
ATOM     11  C   UNL     1       1.670   8.022  19.602  0.00  0.00    +0.000 A 
ATOM     12  C   UNL     1       1.813   8.671  18.370  0.00  0.00    +0.000 A 
ATOM     13  C   UNL     1       1.438  10.010  18.217  0.00  0.00    +0.000 A 
ATOM     14  C   UNL     1       0.884  10.701  19.291  0.00  0.00    +0.000 A 
ATOM     15 CL   UNL     1       0.408  12.342  19.092  0.00  0.00    +0.000 Cl
ATOM     16  C   UNL     1       0.709  10.068  20.516  0.00  0.00    +0.000 A 
ATOM     17  C   UNL     1       1.099   8.736  20.669  0.00  0.00    +0.000 A 
ENDBRANCH   2  11
BRANCH   1  18
ATOM     18  C   UNL     1       3.975   6.294  18.009  0.00  0.00    +0.000 C 
BRANCH  18  20
ATOM     19  N   UNL     1       5.740   4.866  16.967  0.00  0.00    +0.000 N 
ATOM     20  C   UNL     1       4.364   5.104  17.111  0.00  0.00    +0.000 C 
ATOM     21  O   UNL     1       3.520   4.403  16.552  0.00  0.00    +0.000 OA
BRANCH  19  22
ATOM     22  C   UNL     1       6.695   5.775  17.481  0.00  0.00    +0.000 A 
ATOM     23  C   UNL     1       7.397   5.434  18.638  0.00  0.00    +0.000 A 
ATOM     24  C   UNL     1       8.266   6.354  19.218  0.00  0.00    +0.000 A 
ATOM     25  C   UNL     1       8.428   7.616  18.646  0.00  0.00    +0.000 A 
ATOM     26  C   UNL     1       7.734   7.954  17.483  0.00  0.00    +0.000 A 
ATOM     27  C   UNL     1       6.871   7.031  16.890  0.00  0.00    +0.000 A 
ENDBRANCH  19  22
BRANCH  19  28
ATOM     28  C   UNL     1       6.224   3.873  15.998  0.00  0.00    +0.000 C 
BRANCH  28  29
ATOM     29  C   UNL     1       6.517   4.441  14.602  0.00  0.00    +0.000 C 
BRANCH  29  31
ATOM     30  C   UNL     1       6.303   3.427  12.311  0.00  0.00    +0.000 C 
ATOM     31  C   UNL     1       5.545   3.950  13.525  0.00  0.00    +0.000 C 
ENDBRANCH  29  31
ENDBRANCH  28  29
ENDBRANCH  19  28
ENDBRANCH  18  20
ENDBRANCH   1  18
TORSDOF 7
ENDMDL
MODEL 2
REMARK VINA RESULT:      -8.6      0.148      1.236
REMARK  Name = 
REMARK  8 active torsions:
REMARK  status: ('A' for Active; 'I' for Inactive)
REMARK    1  A    between atoms: C_1  and  C_2
REMARK    2  A    between atoms: C_2  and  C_3
REMARK    3  A    between atoms: C_3  and  C_4
REMARK    4  A    between atoms: C_4  and  N_5
REMARK    5  A    between atoms: N_5  and  C_26
REMARK    6  A    between atoms: C_6  and  C_8
REMARK    7  A    between atoms: C_8  and  C_9
REMARK    8  A    between atoms: C_10  and  C_11
REMARK                            x       y       z     vdW  Elec       q    Type
REMARK                         _______ _______ _______ _____ _____    ______ ____
ROOT
ATOM      1  C   UNL     1       2.956   5.976  19.131  0.00  0.00    +0.000 A 
ATOM      2  C   UNL     1       2.005   6.680  19.864  0.00  0.00    +0.000 A 
ATOM      3  N   UNL     1       1.519   5.912  20.899  0.00  0.00    +0.000 NA
ATOM      4  C   UNL     1       2.133   4.756  20.809  0.00  0.00    +0.000 A 
ATOM      5  C   UNL     1       2.042   3.590  21.623  0.00  0.00    +0.000 A 
ATOM      6  C   UNL     1       2.855   2.543  21.379  0.00  0.00    +0.000 A 
ATOM      7  C   UNL     1       3.816   2.575  20.292  0.00  0.00    +0.000 A 
ATOM      8 CL   UNL     1       4.867   1.233  20.071  0.00  0.00    +0.000 Cl
ATOM      9  C   UNL     1       3.880   3.653  19.496  0.00  0.00    +0.000 A 
ATOM     10  N   UNL     1       3.040   4.740  19.751  0.00  0.00    +0.000 N 
ENDROOT
BRANCH   2  11
ATOM     11  C   UNL     1       1.595   8.069  19.699  0.00  0.00    +0.000 A 
ATOM     12  C   UNL     1       1.051   8.822  20.747  0.00  0.00    +0.000 A 
ATOM     13  C   UNL     1       0.648  10.146  20.545  0.00  0.00    +0.000 A 
ATOM     14  C   UNL     1       0.817  10.739  19.297  0.00  0.00    +0.000 A 
ATOM     15 CL   UNL     1       0.337  12.373  19.059  0.00  0.00    +0.000 Cl
ATOM     16  C   UNL     1       1.380  10.017  18.249  0.00  0.00    +0.000 A 
ATOM     17  C   UNL     1       1.766   8.691  18.451  0.00  0.00    +0.000 A 
ENDBRANCH   2  11
BRANCH   1  18
ATOM     18  C   UNL     1       3.840   6.376  17.989  0.00  0.00    +0.000 C 
BRANCH  18  20
ATOM     19  N   UNL     1       5.716   4.982  17.105  0.00  0.00    +0.000 N 
ATOM     20  C   UNL     1       4.326   5.180  17.147  0.00  0.00    +0.000 C 
ATOM     21  O   UNL     1       3.545   4.440  16.548  0.00  0.00    +0.000 OA
BRANCH  19  22
ATOM     22  C   UNL     1       6.605   5.932  17.663  0.00  0.00    +0.000 A 
ATOM     23  C   UNL     1       6.767   7.161  17.023  0.00  0.00    +0.000 A 
ATOM     24  C   UNL     1       7.711   8.070  17.496  0.00  0.00    +0.000 A 
ATOM     25  C   UNL     1       8.497   7.745  18.601  0.00  0.00    +0.000 A 
ATOM     26  C   UNL     1       8.329   6.519  19.247  0.00  0.00    +0.000 A 
ATOM     27  C   UNL     1       7.375   5.611  18.786  0.00  0.00    +0.000 A 
ENDBRANCH  19  22
BRANCH  19  28
ATOM     28  C   UNL     1       6.297   3.985  16.195  0.00  0.00    +0.000 C 
BRANCH  28  29
ATOM     29  C   UNL     1       6.569   4.504  14.777  0.00  0.00    +0.000 C 
BRANCH  29  31
ATOM     30  C   UNL     1       6.449   3.601  12.434  0.00  0.00    +0.000 C 
ATOM     31  C   UNL     1       5.666   3.878  13.711  0.00  0.00    +0.000 C 
ENDBRANCH  29  31
ENDBRANCH  28  29
ENDBRANCH  19  28
ENDBRANCH  18  20
ENDBRANCH   1  18
TORSDOF 7
ENDMDL
MODEL 3
REMARK VINA RESULT:      -7.7      6.656     10.275
REMARK  Name = 
REMARK  8 active torsions:
REMARK  status: ('A' for Active; 'I' for Inactive)
REMARK    1  A    between atoms: C_1  and  C_2
REMARK    2  A    between atoms: C_2  and  C_3
REMARK    3  A    between atoms: C_3  and  C_4
REMARK    4  A    between atoms: C_4  and  N_5
REMARK    5  A    between atoms: N_5  and  C_26
REMARK    6  A    between atoms: C_6  and  C_8
REMARK    7  A    between atoms: C_8  and  C_9
REMARK    8  A    between atoms: C_10  and  C_11
REMARK                            x       y       z     vdW  Elec       q    Type
REMARK                         _______ _______ _______ _____ _____    ______ ____
ROOT
ATOM      1  C   UNL     1      -1.517  11.918  20.848  0.00  0.00    +0.000 A 
ATOM      2  C   UNL     1      -1.495  12.232  22.204  0.00  0.00    +0.000 A 
ATOM      3  N   UNL     1      -0.598  11.432  22.877  0.00  0.00    +0.000 NA
ATOM      4  C   UNL     1      -0.085  10.629  21.976  0.00  0.00    +0.000 A 
ATOM      5  C   UNL     1       0.905   9.611  22.095  0.00  0.00    +0.000 A 
ATOM      6  C   UNL     1       1.342   8.974  20.990  0.00  0.00    +0.000 A 
ATOM      7  C   UNL     1       0.812   9.297  19.678  0.00  0.00    +0.000 A 
ATOM      8 CL   UNL     1       1.454   8.494  18.301  0.00  0.00    +0.000 Cl
ATOM      9  C   UNL     1      -0.148  10.226  19.562  0.00  0.00    +0.000 A 
ATOM     10  N   UNL     1      -0.598  10.889  20.706  0.00  0.00    +0.000 N 
ENDROOT
BRANCH   2  11
ATOM     11  C   UNL     1      -2.206  13.307  22.885  0.00  0.00    +0.000 A 
ATOM     12  C   UNL     1      -1.919  14.659  22.662  0.00  0.00    +0.000 A 
ATOM     13  C   UNL     1      -2.607  15.662  23.351  0.00  0.00    +0.000 A 
ATOM     14  C   UNL     1      -3.614  15.319  24.249  0.00  0.00    +0.000 A 
ATOM     15 CL   UNL     1      -4.470  16.558  25.081  0.00  0.00    +0.000 Cl
ATOM     16  C   UNL     1      -3.934  13.984  24.467  0.00  0.00    +0.000 A 
ATOM     17  C   UNL     1      -3.233  12.985  23.788  0.00  0.00    +0.000 A 
ENDBRANCH   2  11
BRANCH   1  18
ATOM     18  C   UNL     1      -2.230  12.537  19.685  0.00  0.00    +0.000 C 
BRANCH  18  20
ATOM     19  N   UNL     1      -4.472  11.757  18.906  0.00  0.00    +0.000 N 
ATOM     20  C   UNL     1      -3.764  12.532  19.838  0.00  0.00    +0.000 C 
ATOM     21  O   UNL     1      -4.335  13.169  20.724  0.00  0.00    +0.000 OA
BRANCH  19  22
ATOM     22  C   UNL     1      -3.817  11.166  17.800  0.00  0.00    +0.000 A 
ATOM     23  C   UNL     1      -4.076  11.658  16.520  0.00  0.00    +0.000 A 
ATOM     24  C   UNL     1      -3.521  11.027  15.410  0.00  0.00    +0.000 A 
ATOM     25  C   UNL     1      -2.716   9.900  15.579  0.00  0.00    +0.000 A 
ATOM     26  C   UNL     1      -2.449   9.413  16.859  0.00  0.00    +0.000 A 
ATOM     27  C   UNL     1      -2.991  10.050  17.977  0.00  0.00    +0.000 A 
ENDBRANCH  19  22
BRANCH  19  28
ATOM     28  C   UNL     1      -5.940  11.822  18.850  0.00  0.00    +0.000 C 
BRANCH  28  29
ATOM     29  C   UNL     1      -6.653  10.879  19.829  0.00  0.00    +0.000 C 
BRANCH  29  31
ATOM     30  C   UNL     1      -7.459   8.551  20.329  0.00  0.00    +0.000 C 
ATOM     31  C   UNL     1      -6.915   9.484  19.255  0.00  0.00    +0.000 C 
ENDBRANCH  29  31
ENDBRANCH  28  29
ENDBRANCH  19  28
ENDBRANCH  18  20
ENDBRANCH   1  18
TORSDOF 7
ENDMDL
MODEL 4
REMARK VINA RESULT:      -7.6      6.550     10.292
REMARK  Name = 
REMARK  8 active torsions:
REMARK  status: ('A' for Active; 'I' for Inactive)
REMARK    1  A    between atoms: C_1  and  C_2
REMARK    2  A    between atoms: C_2  and  C_3
REMARK    3  A    between atoms: C_3  and  C_4
REMARK    4  A    between atoms: C_4  and  N_5
REMARK    5  A    between atoms: N_5  and  C_26
REMARK    6  A    between atoms: C_6  and  C_8
REMARK    7  A    between atoms: C_8  and  C_9
REMARK    8  A    between atoms: C_10  and  C_11
REMARK                            x       y       z     vdW  Elec       q    Type
REMARK                         _______ _______ _______ _____ _____    ______ ____
ROOT
ATOM      1  C   UNL     1      -1.489  11.847  20.691  0.00  0.00    +0.000 A 
ATOM      2  C   UNL     1      -1.432  12.118  22.055  0.00  0.00    +0.000 A 
ATOM      3  N   UNL     1      -0.491  11.323  22.673  0.00  0.00    +0.000 NA
ATOM      4  C   UNL     1       0.015  10.566  21.729  0.00  0.00    +0.000 A 
ATOM      5  C   UNL     1       1.037   9.574  21.783  0.00  0.00    +0.000 A 
ATOM      6  C   UNL     1       1.455   8.986  20.644  0.00  0.00    +0.000 A 
ATOM      7  C   UNL     1       0.874   9.335  19.361  0.00  0.00    +0.000 A 
ATOM      8 CL   UNL     1       1.493   8.596  17.938  0.00  0.00    +0.000 Cl
ATOM      9  C   UNL     1      -0.116  10.239  19.306  0.00  0.00    +0.000 A 
ATOM     10  N   UNL     1      -0.547  10.851  20.486  0.00  0.00    +0.000 N 
ENDROOT
BRANCH   2  11
ATOM     11  C   UNL     1      -2.151  13.148  22.794  0.00  0.00    +0.000 A 
ATOM     12  C   UNL     1      -3.179  12.848  23.696  0.00  0.00    +0.000 A 
ATOM     13  C   UNL     1      -3.861  13.866  24.370  0.00  0.00    +0.000 A 
ATOM     14  C   UNL     1      -3.496  15.195  24.171  0.00  0.00    +0.000 A 
ATOM     15 CL   UNL     1      -4.327  16.441  25.018  0.00  0.00    +0.000 Cl
ATOM     16  C   UNL     1      -2.460  15.513  23.300  0.00  0.00    +0.000 A 
ATOM     17  C   UNL     1      -1.792  14.495  22.617  0.00  0.00    +0.000 A 
ENDBRANCH   2  11
BRANCH   1  18
ATOM     18  C   UNL     1      -2.258  12.482  19.572  0.00  0.00    +0.000 C 
BRANCH  18  20
ATOM     19  N   UNL     1      -4.540  11.701  18.923  0.00  0.00    +0.000 N 
ATOM     20  C   UNL     1      -3.781  12.486  19.805  0.00  0.00    +0.000 C 
ATOM     21  O   UNL     1      -4.303  13.139  20.710  0.00  0.00    +0.000 OA
BRANCH  19  22
ATOM     22  C   UNL     1      -3.946  11.090  17.794  0.00  0.00    +0.000 A 
ATOM     23  C   UNL     1      -3.156   9.954  17.978  0.00  0.00    +0.000 A 
ATOM     24  C   UNL     1      -2.480   9.397  16.896  0.00  0.00    +0.000 A 
ATOM     25  C   UNL     1      -2.586   9.980  15.633  0.00  0.00    +0.000 A 
ATOM     26  C   UNL     1      -3.382  11.111  15.447  0.00  0.00    +0.000 A 
ATOM     27  C   UNL     1      -4.074  11.665  16.524  0.00  0.00    +0.000 A 
ENDBRANCH  19  22
BRANCH  19  28
ATOM     28  C   UNL     1      -6.009  11.771  18.943  0.00  0.00    +0.000 C 
BRANCH  28  29
ATOM     29  C   UNL     1      -6.710  10.436  18.652  0.00  0.00    +0.000 C 
BRANCH  29  31
ATOM     30  C   UNL     1      -7.826  10.657  20.894  0.00  0.00    +0.000 C 
ATOM     31  C   UNL     1      -7.166   9.697  19.913  0.00  0.00    +0.000 C 
ENDBRANCH  29  31
ENDBRANCH  28  29
ENDBRANCH  19  28
ENDBRANCH  18  20
ENDBRANCH   1  18
TORSDOF 7
ENDMDL
MODEL 5
REMARK VINA RESULT:      -7.4      5.923     10.389
REMARK  Name = 
REMARK  8 active torsions:
REMARK  status: ('A' for Active; 'I' for Inactive)
REMARK    1  A    between atoms: C_1  and  C_2
REMARK    2  A    between atoms: C_2  and  C_3
REMARK    3  A    between atoms: C_3  and  C_4
REMARK    4  A    between atoms: C_4  and  N_5
REMARK    5  A    between atoms: N_5  and  C_26
REMARK    6  A    between atoms: C_6  and  C_8
REMARK    7  A    between atoms: C_8  and  C_9
REMARK    8  A    between atoms: C_10  and  C_11
REMARK                            x       y       z     vdW  Elec       q    Type
REMARK                         _______ _______ _______ _____ _____    ______ ____
ROOT
ATOM      1  C   UNL     1      -0.837  11.493  20.854  0.00  0.00    +0.000 A 
ATOM      2  C   UNL     1      -0.902  11.611  22.239  0.00  0.00    +0.000 A 
ATOM      3  N   UNL     1      -0.161  10.624  22.850  0.00  0.00    +0.000 NA
ATOM      4  C   UNL     1       0.342   9.898  21.879  0.00  0.00    +0.000 A 
ATOM      5  C   UNL     1       1.201   8.763  21.918  0.00  0.00    +0.000 A 
ATOM      6  C   UNL     1       1.664   8.238  20.765  0.00  0.00    +0.000 A 
ATOM      7  C   UNL     1       1.291   8.801  19.481  0.00  0.00    +0.000 A 
ATOM      8 CL   UNL     1       1.963   8.126  18.050  0.00  0.00    +0.000 Cl
ATOM      9  C   UNL     1       0.451   9.846  19.434  0.00  0.00    +0.000 A 
ATOM     10  N   UNL     1      -0.026  10.392  20.628  0.00  0.00    +0.000 N 
ENDROOT
BRANCH   2  11
ATOM     11  C   UNL     1      -1.551  12.658  23.019  0.00  0.00    +0.000 A 
ATOM     12  C   UNL     1      -1.018  13.947  23.140  0.00  0.00    +0.000 A 
ATOM     13  C   UNL     1      -1.657  14.918  23.916  0.00  0.00    +0.000 A 
ATOM     14  C   UNL     1      -2.858  14.616  24.553  0.00  0.00    +0.000 A 
ATOM     15 CL   UNL     1      -3.650  15.821  25.490  0.00  0.00    +0.000 Cl
ATOM     16  C   UNL     1      -3.419  13.350  24.425  0.00  0.00    +0.000 A 
ATOM     17  C   UNL     1      -2.769  12.378  23.662  0.00  0.00    +0.000 A 
ENDBRANCH   2  11
BRANCH   1  18
ATOM     18  C   UNL     1      -1.372  12.349  19.747  0.00  0.00    +0.000 C 
BRANCH  18  20
ATOM     19  N   UNL     1      -3.706  11.975  18.937  0.00  0.00    +0.000 N 
ATOM     20  C   UNL     1      -2.356  11.606  18.823  0.00  0.00    +0.000 C 
ATOM     21  O   UNL     1      -1.983  10.740  18.031  0.00  0.00    +0.000 OA
BRANCH  19  22
ATOM     22  C   UNL     1      -4.139  12.850  19.962  0.00  0.00    +0.000 A 
ATOM     23  C   UNL     1      -5.244  12.490  20.734  0.00  0.00    +0.000 A 
ATOM     24  C   UNL     1      -5.749  13.381  21.679  0.00  0.00    +0.000 A 
ATOM     25  C   UNL     1      -5.154  14.632  21.844  0.00  0.00    +0.000 A 
ATOM     26  C   UNL     1      -4.043  14.989  21.078  0.00  0.00    +0.000 A 
ATOM     27  C   UNL     1      -3.525  14.095  20.140  0.00  0.00    +0.000 A 
ENDBRANCH  19  22
BRANCH  19  28
ATOM     28  C   UNL     1      -4.747  11.210  18.235  0.00  0.00    +0.000 C 
BRANCH  28  29
ATOM     29  C   UNL     1      -5.376  11.944  17.042  0.00  0.00    +0.000 C 
BRANCH  29  31
ATOM     30  C   UNL     1      -6.783  14.027  17.057  0.00  0.00    +0.000 C 
ATOM     31  C   UNL     1      -6.757  12.531  17.343  0.00  0.00    +0.000 C 
ENDBRANCH  29  31
ENDBRANCH  28  29
ENDBRANCH  19  28
ENDBRANCH  18  20
ENDBRANCH   1  18
TORSDOF 7
ENDMDL
MODEL 6
REMARK VINA RESULT:      -7.4      8.643     10.896
REMARK  Name = 
REMARK  8 active torsions:
REMARK  status: ('A' for Active; 'I' for Inactive)
REMARK    1  A    between atoms: C_1  and  C_2
REMARK    2  A    between atoms: C_2  and  C_3
REMARK    3  A    between atoms: C_3  and  C_4
REMARK    4  A    between atoms: C_4  and  N_5
REMARK    5  A    between atoms: N_5  and  C_26
REMARK    6  A    between atoms: C_6  and  C_8
REMARK    7  A    between atoms: C_8  and  C_9
REMARK    8  A    between atoms: C_10  and  C_11
REMARK                            x       y       z     vdW  Elec       q    Type
REMARK                         _______ _______ _______ _____ _____    ______ ____
ROOT
ATOM      1  C   UNL     1       6.176  15.016  19.821  0.00  0.00    +0.000 A 
ATOM      2  C   UNL     1       6.615  14.733  18.530  0.00  0.00    +0.000 A 
ATOM      3  N   UNL     1       5.586  14.860  17.623  0.00  0.00    +0.000 NA
ATOM      4  C   UNL     1       4.529  15.197  18.324  0.00  0.00    +0.000 A 
ATOM      5  C   UNL     1       3.195  15.481  17.913  0.00  0.00    +0.000 A 
ATOM      6  C   UNL     1       2.293  15.901  18.822  0.00  0.00    +0.000 A 
ATOM      7  C   UNL     1       2.652  16.057  20.220  0.00  0.00    +0.000 A 
ATOM      8 CL   UNL     1       1.475  16.656  21.319  0.00  0.00    +0.000 Cl
ATOM      9  C   UNL     1       3.895  15.755  20.622  0.00  0.00    +0.000 A 
ATOM     10  N   UNL     1       4.831  15.323  19.679  0.00  0.00    +0.000 N 
ENDROOT
BRANCH   2  11
ATOM     11  C   UNL     1       7.974  14.437  18.092  0.00  0.00    +0.000 A 
ATOM     12  C   UNL     1       8.962  15.424  17.988  0.00  0.00    +0.000 A 
ATOM     13  C   UNL     1      10.249  15.106  17.542  0.00  0.00    +0.000 A 
ATOM     14  C   UNL     1      10.567  13.788  17.227  0.00  0.00    +0.000 A 
ATOM     15 CL   UNL     1      12.157  13.400  16.696  0.00  0.00    +0.000 Cl
ATOM     16  C   UNL     1       9.608  12.788  17.348  0.00  0.00    +0.000 A 
ATOM     17  C   UNL     1       8.320  13.112  17.779  0.00  0.00    +0.000 A 
ENDBRANCH   2  11
BRANCH   1  18
ATOM     18  C   UNL     1       6.899  15.114  21.129  0.00  0.00    +0.000 C 
BRANCH  18  20
ATOM     19  N   UNL     1       7.646  13.078  22.369  0.00  0.00    +0.000 N 
ATOM     20  C   UNL     1       6.583  13.951  22.089  0.00  0.00    +0.000 C 
ATOM     21  O   UNL     1       5.465  13.796  22.583  0.00  0.00    +0.000 OA
BRANCH  19  22
ATOM     22  C   UNL     1       8.873  13.174  21.670  0.00  0.00    +0.000 A 
ATOM     23  C   UNL     1       9.437  12.015  21.135  0.00  0.00    +0.000 A 
ATOM     24  C   UNL     1      10.691  12.070  20.533  0.00  0.00    +0.000 A 
ATOM     25  C   UNL     1      11.383  13.280  20.473  0.00  0.00    +0.000 A 
ATOM     26  C   UNL     1      10.815  14.441  20.999  0.00  0.00    +0.000 A 
ATOM     27  C   UNL     1       9.552  14.395  21.592  0.00  0.00    +0.000 A 
ENDBRANCH  19  22
BRANCH  19  28
ATOM     28  C   UNL     1       7.411  11.841  23.128  0.00  0.00    +0.000 C 
BRANCH  28  29
ATOM     29  C   UNL     1       8.084  11.806  24.507  0.00  0.00    +0.000 C 
BRANCH  29  31
ATOM     30  C   UNL     1       5.817  11.227  25.426  0.00  0.00    +0.000 C 
ATOM     31  C   UNL     1       7.107  11.998  25.670  0.00  0.00    +0.000 C 
ENDBRANCH  29  31
ENDBRANCH  28  29
ENDBRANCH  19  28
ENDBRANCH  18  20
ENDBRANCH   1  18
TORSDOF 7
ENDMDL
MODEL 7
REMARK VINA RESULT:      -7.4      8.703     10.761
REMARK  Name = 
REMARK  8 active torsions:
REMARK  status: ('A' for Active; 'I' for Inactive)
REMARK    1  A    between atoms: C_1  and  C_2
REMARK    2  A    between atoms: C_2  and  C_3
REMARK    3  A    between atoms: C_3  and  C_4
REMARK    4  A    between atoms: C_4  and  N_5
REMARK    5  A    between atoms: N_5  and  C_26
REMARK    6  A    between atoms: C_6  and  C_8
REMARK    7  A    between atoms: C_8  and  C_9
REMARK    8  A    between atoms: C_10  and  C_11
REMARK                            x       y       z     vdW  Elec       q    Type
REMARK                         _______ _______ _______ _____ _____    ______ ____
ROOT
ATOM      1  C   UNL     1       8.710  13.714  20.206  0.00  0.00    +0.000 A 
ATOM      2  C   UNL     1       8.724  12.940  21.363  0.00  0.00    +0.000 A 
ATOM      3  N   UNL     1       9.700  11.970  21.291  0.00  0.00    +0.000 NA
ATOM      4  C   UNL     1      10.270  12.119  20.119  0.00  0.00    +0.000 A 
ATOM      5  C   UNL     1      11.350  11.413  19.515  0.00  0.00    +0.000 A 
ATOM      6  C   UNL     1      11.826  11.818  18.320  0.00  0.00    +0.000 A 
ATOM      7  C   UNL     1      11.249  12.956  17.629  0.00  0.00    +0.000 A 
ATOM      8 CL   UNL     1      11.940  13.462  16.139  0.00  0.00    +0.000 Cl
ATOM      9  C   UNL     1      10.207  13.603  18.173  0.00  0.00    +0.000 A 
ATOM     10  N   UNL     1       9.716  13.185  19.412  0.00  0.00    +0.000 N 
ENDROOT
BRANCH   2  11
ATOM     11  C   UNL     1       7.929  13.121  22.571  0.00  0.00    +0.000 A 
ATOM     12  C   UNL     1       8.007  14.277  23.357  0.00  0.00    +0.000 A 
ATOM     13  C   UNL     1       7.245  14.406  24.522  0.00  0.00    +0.000 A 
ATOM     14  C   UNL     1       6.371  13.387  24.894  0.00  0.00    +0.000 A 
ATOM     15 CL   UNL     1       5.422  13.559  26.319  0.00  0.00    +0.000 Cl
ATOM     16  C   UNL     1       6.258  12.241  24.114  0.00  0.00    +0.000 A 
ATOM     17  C   UNL     1       7.033  12.111  22.960  0.00  0.00    +0.000 A 
ENDBRANCH   2  11
BRANCH   1  18
ATOM     18  C   UNL     1       7.926  14.931  19.822  0.00  0.00    +0.000 C 
BRANCH  18  20
ATOM     19  N   UNL     1       5.522  15.006  19.145  0.00  0.00    +0.000 N 
ATOM     20  C   UNL     1       6.829  14.646  18.778  0.00  0.00    +0.000 C 
ATOM     21  O   UNL     1       7.081  14.133  17.688  0.00  0.00    +0.000 OA
BRANCH  19  22
ATOM     22  C   UNL     1       5.227  15.441  20.459  0.00  0.00    +0.000 A 
ATOM     23  C   UNL     1       4.610  14.553  21.341  0.00  0.00    +0.000 A 
ATOM     24  C   UNL     1       4.219  14.991  22.604  0.00  0.00    +0.000 A 
ATOM     25  C   UNL     1       4.436  16.316  22.981  0.00  0.00    +0.000 A 
ATOM     26  C   UNL     1       5.062  17.202  22.102  0.00  0.00    +0.000 A 
ATOM     27  C   UNL     1       5.468  16.766  20.840  0.00  0.00    +0.000 A 
ENDBRANCH  19  22
BRANCH  19  28
ATOM     28  C   UNL     1       4.381  14.619  18.303  0.00  0.00    +0.000 C 
BRANCH  28  29
ATOM     29  C   UNL     1       3.666  15.796  17.625  0.00  0.00    +0.000 C 
BRANCH  29  31
ATOM     30  C   UNL     1       1.705  14.939  18.945  0.00  0.00    +0.000 C 
ATOM     31  C   UNL     1       2.330  16.159  18.278  0.00  0.00    +0.000 C 
ENDBRANCH  29  31
ENDBRANCH  28  29
ENDBRANCH  19  28
ENDBRANCH  18  20
ENDBRANCH   1  18
TORSDOF 7
ENDMDL
MODEL 8
REMARK VINA RESULT:      -7.3      3.812      9.177
REMARK  Name = 
REMARK  8 active torsions:
REMARK  status: ('A' for Active; 'I' for Inactive)
REMARK    1  A    between atoms: C_1  and  C_2
REMARK    2  A    between atoms: C_2  and  C_3
REMARK    3  A    between atoms: C_3  and  C_4
REMARK    4  A    between atoms: C_4  and  N_5
REMARK    5  A    between atoms: N_5  and  C_26
REMARK    6  A    between atoms: C_6  and  C_8
REMARK    7  A    between atoms: C_8  and  C_9
REMARK    8  A    between atoms: C_10  and  C_11
REMARK                            x       y       z     vdW  Elec       q    Type
REMARK                         _______ _______ _______ _____ _____    ______ ____
ROOT
ATOM      1  C   UNL     1       0.783   9.414  19.785  0.00  0.00    +0.000 A 
ATOM      2  C   UNL     1       1.588   8.332  20.131  0.00  0.00    +0.000 A 
ATOM      3  N   UNL     1       1.527   8.089  21.485  0.00  0.00    +0.000 NA
ATOM      4  C   UNL     1       0.721   9.000  21.978  0.00  0.00    +0.000 A 
ATOM      5  C   UNL     1       0.273   9.219  23.312  0.00  0.00    +0.000 A 
ATOM      6  C   UNL     1      -0.642  10.179  23.559  0.00  0.00    +0.000 A 
ATOM      7  C   UNL     1      -1.172  11.004  22.489  0.00  0.00    +0.000 A 
ATOM      8 CL   UNL     1      -2.382  12.168  22.857  0.00  0.00    +0.000 Cl
ATOM      9  C   UNL     1      -0.726  10.830  21.236  0.00  0.00    +0.000 A 
ATOM     10  N   UNL     1       0.220   9.834  20.980  0.00  0.00    +0.000 N 
ENDROOT
BRANCH   2  11
ATOM     11  C   UNL     1       2.343   7.457  19.242  0.00  0.00    +0.000 A 
ATOM     12  C   UNL     1       2.438   6.076  19.449  0.00  0.00    +0.000 A 
ATOM     13  C   UNL     1       3.190   5.271  18.587  0.00  0.00    +0.000 A 
ATOM     14  C   UNL     1       3.828   5.841  17.488  0.00  0.00    +0.000 A 
ATOM     15 CL   UNL     1       4.736   4.843  16.420  0.00  0.00    +0.000 Cl
ATOM     16  C   UNL     1       3.725   7.207  17.249  0.00  0.00    +0.000 A 
ATOM     17  C   UNL     1       2.986   8.009  18.121  0.00  0.00    +0.000 A 
ENDBRANCH   2  11
BRANCH   1  18
ATOM     18  C   UNL     1       0.427  10.018  18.461  0.00  0.00    +0.000 C 
BRANCH  18  20
ATOM     19  N   UNL     1      -0.416  12.360  18.247  0.00  0.00    +0.000 N 
ATOM     20  C   UNL     1       0.709  11.531  18.385  0.00  0.00    +0.000 C 
ATOM     21  O   UNL     1       1.851  11.988  18.443  0.00  0.00    +0.000 OA
BRANCH  19  22
ATOM     22  C   UNL     1      -1.701  11.813  18.019  0.00  0.00    +0.000 A 
ATOM     23  C   UNL     1      -1.955  11.170  16.806  0.00  0.00    +0.000 A 
ATOM     24  C   UNL     1      -3.240  10.715  16.519  0.00  0.00    +0.000 A 
ATOM     25  C   UNL     1      -4.270  10.911  17.439  0.00  0.00    +0.000 A 
ATOM     26  C   UNL     1      -4.014  11.546  18.655  0.00  0.00    +0.000 A 
ATOM     27  C   UNL     1      -2.726  11.991  18.955  0.00  0.00    +0.000 A 
ENDBRANCH  19  22
BRANCH  19  28
ATOM     28  C   UNL     1      -0.251  13.797  17.988  0.00  0.00    +0.000 C 
BRANCH  28  29
ATOM     29  C   UNL     1      -0.260  14.673  19.250  0.00  0.00    +0.000 C 
BRANCH  29  31
ATOM     30  C   UNL     1      -0.502  16.962  18.239  0.00  0.00    +0.000 C 
ATOM     31  C   UNL     1       0.400  16.040  19.051  0.00  0.00    +0.000 C 
ENDBRANCH  29  31
ENDBRANCH  28  29
ENDBRANCH  19  28
ENDBRANCH  18  20
ENDBRANCH   1  18
TORSDOF 7
ENDMDL
MODEL 9
REMARK VINA RESULT:      -7.3      7.618     10.124
REMARK  Name = 
REMARK  8 active torsions:
REMARK  status: ('A' for Active; 'I' for Inactive)
REMARK    1  A    between atoms: C_1  and  C_2
REMARK    2  A    between atoms: C_2  and  C_3
REMARK    3  A    between atoms: C_3  and  C_4
REMARK    4  A    between atoms: C_4  and  N_5
REMARK    5  A    between atoms: N_5  and  C_26
REMARK    6  A    between atoms: C_6  and  C_8
REMARK    7  A    between atoms: C_8  and  C_9
REMARK    8  A    between atoms: C_10  and  C_11
REMARK                            x       y       z     vdW  Elec       q    Type
REMARK                         _______ _______ _______ _____ _____    ______ ____
ROOT
ATOM      1  C   UNL     1       1.453  14.213  20.432  0.00  0.00    +0.000 A 
ATOM      2  C   UNL     1       0.756  15.156  21.183  0.00  0.00    +0.000 A 
ATOM      3  N   UNL     1       1.421  16.363  21.192  0.00  0.00    +0.000 NA
ATOM      4  C   UNL     1       2.509  16.180  20.483  0.00  0.00    +0.000 A 
ATOM      5  C   UNL     1       3.555  17.083  20.137  0.00  0.00    +0.000 A 
ATOM      6  C   UNL     1       4.537  16.678  19.307  0.00  0.00    +0.000 A 
ATOM      7  C   UNL     1       4.557  15.331  18.767  0.00  0.00    +0.000 A 
ATOM      8 CL   UNL     1       5.801  14.895  17.664  0.00  0.00    +0.000 Cl
ATOM      9  C   UNL     1       3.597  14.463  19.118  0.00  0.00    +0.000 A 
ATOM     10  N   UNL     1       2.577  14.883  19.976  0.00  0.00    +0.000 N 
ENDROOT
BRANCH   2  11
ATOM     11  C   UNL     1      -0.548  15.009  21.818  0.00  0.00    +0.000 A 
ATOM     12  C   UNL     1      -0.693  14.765  23.189  0.00  0.00    +0.000 A 
ATOM     13  C   UNL     1      -1.961  14.607  23.759  0.00  0.00    +0.000 A 
ATOM     14  C   UNL     1      -3.097  14.726  22.964  0.00  0.00    +0.000 A 
ATOM     15 CL   UNL     1      -4.654  14.550  23.674  0.00  0.00    +0.000 Cl
ATOM     16  C   UNL     1      -2.977  14.995  21.605  0.00  0.00    +0.000 A 
ATOM     17  C   UNL     1      -1.709  15.136  21.037  0.00  0.00    +0.000 A 
ENDBRANCH   2  11
BRANCH   1  18
ATOM     18  C   UNL     1       1.125  12.807  20.034  0.00  0.00    +0.000 C 
BRANCH  18  20
ATOM     19  N   UNL     1      -1.134  11.824  19.619  0.00  0.00    +0.000 N 
ATOM     20  C   UNL     1      -0.138  12.700  19.158  0.00  0.00    +0.000 C 
ATOM     21  O   UNL     1      -0.269  13.343  18.116  0.00  0.00    +0.000 OA
BRANCH  19  22
ATOM     22  C   UNL     1      -0.901  10.973  20.726  0.00  0.00    +0.000 A 
ATOM     23  C   UNL     1      -1.299  11.394  21.996  0.00  0.00    +0.000 A 
ATOM     24  C   UNL     1      -0.989  10.619  23.111  0.00  0.00    +0.000 A 
ATOM     25  C   UNL     1      -0.276   9.430  22.957  0.00  0.00    +0.000 A 
ATOM     26  C   UNL     1       0.113   9.004  21.686  0.00  0.00    +0.000 A 
ATOM     27  C   UNL     1      -0.206   9.769  20.564  0.00  0.00    +0.000 A 
ENDBRANCH  19  22
BRANCH  19  28
ATOM     28  C   UNL     1      -2.297  11.512  18.776  0.00  0.00    +0.000 C 
BRANCH  28  29
ATOM     29  C   UNL     1      -2.012  10.507  17.651  0.00  0.00    +0.000 C 
BRANCH  29  31
ATOM     30  C   UNL     1      -2.980   9.797  15.442  0.00  0.00    +0.000 C 
ATOM     31  C   UNL     1      -2.494  10.976  16.275  0.00  0.00    +0.000 C 
ENDBRANCH  29  31
ENDBRANCH  28  29
ENDBRANCH  19  28
ENDBRANCH  18  20
ENDBRANCH   1  18
TORSDOF 7
ENDMDL
