MODEL 1
REMARK VINA RESULT:      -7.3      0.000      0.000
REMARK  Name = 
REMARK  5 active torsions:
REMARK  status: ('A' for Active; 'I' for Inactive)
REMARK    1  A    between atoms: C_1  and  C_2
REMARK    2  A    between atoms: C_5  and  S_6
REMARK    3  A    between atoms: S_6  and  C_9
REMARK    4  A    between atoms: C_10  and  C_11
REMARK    5  A    between atoms: C_28  and  C_29
REMARK                            x       y       z     vdW  Elec       q    Type
REMARK                         _______ _______ _______ _____ _____    ______ ____
ROOT
ATOM      1  C   UNL     1      -0.881  12.259  19.931  0.00  0.00    +0.000 A 
ATOM      2  C   UNL     1      -1.376  13.169  20.888  0.00  0.00    +0.000 A 
ATOM      3  C   UNL     1      -2.735  13.428  20.842  0.00  0.00    +0.000 A 
ATOM      4  N   UNL     1      -3.619  12.790  20.048  0.00  0.00    +0.000 NA
ATOM      5  C   UNL     1      -3.156  11.915  19.157  0.00  0.00    +0.000 A 
ATOM      6  C   UNL     1      -4.114  11.335  18.333  0.00  0.00    +0.000 A 
ATOM      7  C   UNL     1      -3.773  10.455  17.311  0.00  0.00    +0.000 A 
ATOM      8  C   UNL     1      -2.446  10.146  17.126  0.00  0.00    +0.000 A 
ATOM      9  F   UNL     1      -2.088   9.311  16.143  0.00  0.00    +0.000 F 
ATOM     10  C   UNL     1      -1.469  10.702  17.947  0.00  0.00    +0.000 A 
ATOM     11  C   UNL     1      -1.782  11.605  19.008  0.00  0.00    +0.000 A 
ENDROOT
BRANCH   2  12
ATOM     12  C   UNL     1      -0.578  13.988  21.842  0.00  0.00    +0.000 C 
ATOM     13  O   UNL     1      -0.518  13.621  23.009  0.00  0.00    +0.000 OA
ATOM     14  N   UNL     1       0.149  15.096  21.391  0.00  0.00    +0.000 N 
ATOM     15  C   UNL     1       1.135  15.695  22.296  0.00  0.00    +0.000 C 
ATOM     16  C   UNL     1       0.679  17.075  22.759  0.00  0.00    +0.000 C 
ATOM     17  C   UNL     1       0.376  17.972  21.560  0.00  0.00    +0.000 C 
ATOM     18  C   UNL     1      -0.627  17.303  20.624  0.00  0.00    +0.000 C 
ATOM     19  C   UNL     1      -0.160  15.910  20.210  0.00  0.00    +0.000 C 
ENDBRANCH   2  12
BRANCH   1  20
ATOM     20  S   UNL     1       0.889  11.966  19.828  0.00  0.00    +0.000 S 
ATOM     21  O   UNL     1       1.411  12.305  21.137  0.00  0.00    +0.000 OA
ATOM     22  O   UNL     1       1.406  12.673  18.671  0.00  0.00    +0.000 OA
BRANCH  20  27
ATOM     23  C   UNL     1       2.606   6.342  18.236  0.00  0.00    +0.000 C 
ATOM     24  C   UNL     1       2.134   7.715  18.615  0.00  0.00    +0.000 A 
ATOM     25  C   UNL     1       2.310   8.800  17.756  0.00  0.00    +0.000 A 
ATOM     26  C   UNL     1       1.870  10.069  18.133  0.00  0.00    +0.000 A 
ATOM     27  C   UNL     1       1.242  10.273  19.377  0.00  0.00    +0.000 A 
ATOM     28  C   UNL     1       1.102   9.204  20.278  0.00  0.00    +0.000 A 
ATOM     29  C   UNL     1       0.600   9.307  21.691  0.00  0.00    +0.000 C 
ATOM     30  C   UNL     1       1.539   7.928  19.865  0.00  0.00    +0.000 A 
ENDBRANCH  20  27
ENDBRANCH   1  20
TORSDOF 3
ENDMDL
MODEL 2
REMARK VINA RESULT:      -7.2      1.752      1.887
REMARK  Name = 
REMARK  5 active torsions:
REMARK  status: ('A' for Active; 'I' for Inactive)
REMARK    1  A    between atoms: C_1  and  C_2
REMARK    2  A    between atoms: C_5  and  S_6
REMARK    3  A    between atoms: S_6  and  C_9
REMARK    4  A    between atoms: C_10  and  C_11
REMARK    5  A    between atoms: C_28  and  C_29
REMARK                            x       y       z     vdW  Elec       q    Type
REMARK                         _______ _______ _______ _____ _____    ______ ____
ROOT
ATOM      1  C   UNL     1      -2.033  12.272  20.101  0.00  0.00    +0.000 A 
ATOM      2  C   UNL     1      -2.766  12.645  21.246  0.00  0.00    +0.000 A 
ATOM      3  C   UNL     1      -4.142  12.684  21.107  0.00  0.00    +0.000 A 
ATOM      4  N   UNL     1      -4.822  12.277  20.016  0.00  0.00    +0.000 NA
ATOM      5  C   UNL     1      -4.133  11.904  18.939  0.00  0.00    +0.000 A 
ATOM      6  C   UNL     1      -4.895  11.549  17.833  0.00  0.00    +0.000 A 
ATOM      7  C   UNL     1      -4.314  11.203  16.617  0.00  0.00    +0.000 A 
ATOM      8  C   UNL     1      -2.942  11.205  16.521  0.00  0.00    +0.000 A 
ATOM      9  F   UNL     1      -2.356  10.888  15.360  0.00  0.00    +0.000 F 
ATOM     10  C   UNL     1      -2.156  11.542  17.619  0.00  0.00    +0.000 A 
ATOM     11  C   UNL     1      -2.718  11.897  18.883  0.00  0.00    +0.000 A 
ENDROOT
BRANCH   2  12
ATOM     12  C   UNL     1      -2.217  13.141  22.539  0.00  0.00    +0.000 C 
ATOM     13  O   UNL     1      -1.953  12.319  23.408  0.00  0.00    +0.000 OA
ATOM     14  N   UNL     1      -1.933  14.501  22.714  0.00  0.00    +0.000 N 
ATOM     15  C   UNL     1      -1.137  14.899  23.880  0.00  0.00    +0.000 C 
ATOM     16  C   UNL     1      -1.990  15.675  24.880  0.00  0.00    +0.000 C 
ATOM     17  C   UNL     1      -2.660  16.869  24.203  0.00  0.00    +0.000 C 
ATOM     18  C   UNL     1      -3.450  16.422  22.975  0.00  0.00    +0.000 C 
ATOM     19  C   UNL     1      -2.580  15.616  22.014  0.00  0.00    +0.000 C 
ENDBRANCH   2  12
BRANCH   1  20
ATOM     20  S   UNL     1      -0.237  12.325  20.148  0.00  0.00    +0.000 S 
ATOM     21  O   UNL     1       0.101  12.652  21.520  0.00  0.00    +0.000 OA
ATOM     22  O   UNL     1       0.226  13.205  19.092  0.00  0.00    +0.000 OA
BRANCH  20  27
ATOM     23  C   UNL     1       2.661   7.267  18.379  0.00  0.00    +0.000 C 
ATOM     24  C   UNL     1       1.903   8.493  18.796  0.00  0.00    +0.000 A 
ATOM     25  C   UNL     1       1.926   9.653  18.023  0.00  0.00    +0.000 A 
ATOM     26  C   UNL     1       1.219  10.784  18.435  0.00  0.00    +0.000 A 
ATOM     27  C   UNL     1       0.473  10.769  19.629  0.00  0.00    +0.000 A 
ATOM     28  C   UNL     1       0.479   9.627  20.449  0.00  0.00    +0.000 A 
ATOM     29  C   UNL     1      -0.137   9.526  21.817  0.00  0.00    +0.000 C 
ATOM     30  C   UNL     1       1.187   8.493  20.000  0.00  0.00    +0.000 A 
ENDBRANCH  20  27
ENDBRANCH   1  20
TORSDOF 3
ENDMDL
MODEL 3
REMARK VINA RESULT:      -7.1      2.669      5.019
REMARK  Name = 
REMARK  5 active torsions:
REMARK  status: ('A' for Active; 'I' for Inactive)
REMARK    1  A    between atoms: C_1  and  C_2
REMARK    2  A    between atoms: C_5  and  S_6
REMARK    3  A    between atoms: S_6  and  C_9
REMARK    4  A    between atoms: C_10  and  C_11
REMARK    5  A    between atoms: C_28  and  C_29
REMARK                            x       y       z     vdW  Elec       q    Type
REMARK                         _______ _______ _______ _____ _____    ______ ____
ROOT
ATOM      1  C   UNL     1      -0.586  12.767  19.684  0.00  0.00    +0.000 A 
ATOM      2  C   UNL     1       0.778  12.428  19.566  0.00  0.00    +0.000 A 
ATOM      3  C   UNL     1       1.063  11.268  18.868  0.00  0.00    +0.000 A 
ATOM      4  N   UNL     1       0.160  10.525  18.198  0.00  0.00    +0.000 NA
ATOM      5  C   UNL     1      -1.128  10.854  18.289  0.00  0.00    +0.000 A 
ATOM      6  C   UNL     1      -2.010  10.015  17.621  0.00  0.00    +0.000 A 
ATOM      7  C   UNL     1      -3.388  10.193  17.681  0.00  0.00    +0.000 A 
ATOM      8  C   UNL     1      -3.882  11.243  18.420  0.00  0.00    +0.000 A 
ATOM      9  F   UNL     1      -5.204  11.432  18.506  0.00  0.00    +0.000 F 
ATOM     10  C   UNL     1      -3.018  12.107  19.087  0.00  0.00    +0.000 A 
ATOM     11  C   UNL     1      -1.599  11.957  19.043  0.00  0.00    +0.000 A 
ENDROOT
BRANCH   2  12
ATOM     12  C   UNL     1       1.928  13.099  20.234  0.00  0.00    +0.000 C 
ATOM     13  O   UNL     1       2.306  12.659  21.313  0.00  0.00    +0.000 OA
ATOM     14  N   UNL     1       2.604  14.147  19.599  0.00  0.00    +0.000 N 
ATOM     15  C   UNL     1       3.889  14.582  20.156  0.00  0.00    +0.000 C 
ATOM     16  C   UNL     1       3.772  15.974  20.770  0.00  0.00    +0.000 C 
ATOM     17  C   UNL     1       3.218  16.967  19.751  0.00  0.00    +0.000 C 
ATOM     18  C   UNL     1       1.899  16.466  19.168  0.00  0.00    +0.000 C 
ATOM     19  C   UNL     1       2.041  15.058  18.596  0.00  0.00    +0.000 C 
ENDBRANCH   2  12
BRANCH   1  20
ATOM     20  S   UNL     1      -1.060  14.180  20.687  0.00  0.00    +0.000 S 
ATOM     21  O   UNL     1      -1.498  15.190  19.745  0.00  0.00    +0.000 OA
ATOM     22  O   UNL     1       0.037  14.497  21.584  0.00  0.00    +0.000 OA
BRANCH  20  27
ATOM     23  C   UNL     1      -5.737  12.594  24.255  0.00  0.00    +0.000 C 
ATOM     24  C   UNL     1      -4.564  13.011  23.417  0.00  0.00    +0.000 A 
ATOM     25  C   UNL     1      -4.660  14.077  22.522  0.00  0.00    +0.000 A 
ATOM     26  C   UNL     1      -3.558  14.441  21.747  0.00  0.00    +0.000 A 
ATOM     27  C   UNL     1      -2.339  13.745  21.858  0.00  0.00    +0.000 A 
ATOM     28  C   UNL     1      -2.237  12.636  22.715  0.00  0.00    +0.000 A 
ATOM     29  C   UNL     1      -1.057  11.710  22.815  0.00  0.00    +0.000 C 
ATOM     30  C   UNL     1      -3.359  12.300  23.499  0.00  0.00    +0.000 A 
ENDBRANCH  20  27
ENDBRANCH   1  20
TORSDOF 3
ENDMDL
MODEL 4
REMARK VINA RESULT:      -7.0      2.491      5.308
REMARK  Name = 
REMARK  5 active torsions:
REMARK  status: ('A' for Active; 'I' for Inactive)
REMARK    1  A    between atoms: C_1  and  C_2
REMARK    2  A    between atoms: C_5  and  S_6
REMARK    3  A    between atoms: S_6  and  C_9
REMARK    4  A    between atoms: C_10  and  C_11
REMARK    5  A    between atoms: C_28  and  C_29
REMARK                            x       y       z     vdW  Elec       q    Type
REMARK                         _______ _______ _______ _____ _____    ______ ____
ROOT
ATOM      1  C   UNL     1      -0.974  11.420  21.065  0.00  0.00    +0.000 A 
ATOM      2  C   UNL     1      -1.447  11.485  22.391  0.00  0.00    +0.000 A 
ATOM      3  C   UNL     1      -1.029  10.476  23.241  0.00  0.00    +0.000 A 
ATOM      4  N   UNL     1      -0.121   9.529  22.932  0.00  0.00    +0.000 NA
ATOM      5  C   UNL     1       0.344   9.477  21.685  0.00  0.00    +0.000 A 
ATOM      6  C   UNL     1       1.234   8.444  21.419  0.00  0.00    +0.000 A 
ATOM      7  C   UNL     1       1.751   8.223  20.146  0.00  0.00    +0.000 A 
ATOM      8  C   UNL     1       1.370   9.067  19.128  0.00  0.00    +0.000 A 
ATOM      9  F   UNL     1       1.842   8.871  17.891  0.00  0.00    +0.000 F 
ATOM     10  C   UNL     1       0.491  10.118  19.372  0.00  0.00    +0.000 A 
ATOM     11  C   UNL     1      -0.054  10.377  20.666  0.00  0.00    +0.000 A 
ENDROOT
BRANCH   2  12
ATOM     12  C   UNL     1      -2.459  12.432  22.936  0.00  0.00    +0.000 C 
ATOM     13  O   UNL     1      -3.644  12.170  22.771  0.00  0.00    +0.000 OA
ATOM     14  N   UNL     1      -2.059  13.543  23.688  0.00  0.00    +0.000 N 
ATOM     15  C   UNL     1      -3.083  14.280  24.436  0.00  0.00    +0.000 C 
ATOM     16  C   UNL     1      -3.310  15.662  23.830  0.00  0.00    +0.000 C 
ATOM     17  C   UNL     1      -1.995  16.432  23.739  0.00  0.00    +0.000 C 
ATOM     18  C   UNL     1      -0.944  15.622  22.984  0.00  0.00    +0.000 C 
ATOM     19  C   UNL     1      -0.768  14.233  23.591  0.00  0.00    +0.000 C 
ENDBRANCH   2  12
BRANCH   1  20
ATOM     20  S   UNL     1      -1.572  12.609  19.857  0.00  0.00    +0.000 S 
ATOM     21  O   UNL     1      -0.642  12.530  18.748  0.00  0.00    +0.000 OA
ATOM     22  O   UNL     1      -1.754  13.887  20.519  0.00  0.00    +0.000 OA
BRANCH  20  27
ATOM     23  C   UNL     1      -7.316  11.862  17.969  0.00  0.00    +0.000 C 
ATOM     24  C   UNL     1      -5.908  12.006  18.466  0.00  0.00    +0.000 A 
ATOM     25  C   UNL     1      -5.571  12.980  19.406  0.00  0.00    +0.000 A 
ATOM     26  C   UNL     1      -4.253  13.100  19.849  0.00  0.00    +0.000 A 
ATOM     27  C   UNL     1      -3.249  12.242  19.360  0.00  0.00    +0.000 A 
ATOM     28  C   UNL     1      -3.557  11.289  18.375  0.00  0.00    +0.000 A 
ATOM     29  C   UNL     1      -2.564  10.422  17.652  0.00  0.00    +0.000 C 
ATOM     30  C   UNL     1      -4.899  11.177  17.958  0.00  0.00    +0.000 A 
ENDBRANCH  20  27
ENDBRANCH   1  20
TORSDOF 3
ENDMDL
MODEL 5
REMARK VINA RESULT:      -7.0      2.755      4.696
REMARK  Name = 
REMARK  5 active torsions:
REMARK  status: ('A' for Active; 'I' for Inactive)
REMARK    1  A    between atoms: C_1  and  C_2
REMARK    2  A    between atoms: C_5  and  S_6
REMARK    3  A    between atoms: S_6  and  C_9
REMARK    4  A    between atoms: C_10  and  C_11
REMARK    5  A    between atoms: C_28  and  C_29
REMARK                            x       y       z     vdW  Elec       q    Type
REMARK                         _______ _______ _______ _____ _____    ______ ____
ROOT
ATOM      1  C   UNL     1      -0.424  13.439  22.397  0.00  0.00    +0.000 A 
ATOM      2  C   UNL     1       0.421  14.543  22.159  0.00  0.00    +0.000 A 
ATOM      3  C   UNL     1      -0.076  15.784  22.521  0.00  0.00    +0.000 A 
ATOM      4  N   UNL     1      -1.229  15.992  23.186  0.00  0.00    +0.000 NA
ATOM      5  C   UNL     1      -2.020  14.948  23.431  0.00  0.00    +0.000 A 
ATOM      6  C   UNL     1      -3.219  15.241  24.070  0.00  0.00    +0.000 A 
ATOM      7  C   UNL     1      -4.174  14.264  24.330  0.00  0.00    +0.000 A 
ATOM      8  C   UNL     1      -3.910  12.969  23.949  0.00  0.00    +0.000 A 
ATOM      9  F   UNL     1      -4.816  12.011  24.176  0.00  0.00    +0.000 F 
ATOM     10  C   UNL     1      -2.710  12.648  23.320  0.00  0.00    +0.000 A 
ATOM     11  C   UNL     1      -1.705  13.623  23.042  0.00  0.00    +0.000 A 
ENDROOT
BRANCH   2  12
ATOM     12  C   UNL     1       1.719  14.537  21.430  0.00  0.00    +0.000 C 
ATOM     13  O   UNL     1       2.746  14.383  22.080  0.00  0.00    +0.000 OA
ATOM     14  N   UNL     1       1.750  14.619  20.033  0.00  0.00    +0.000 N 
ATOM     15  C   UNL     1       3.013  14.324  19.348  0.00  0.00    +0.000 C 
ATOM     16  C   UNL     1       3.601  15.588  18.727  0.00  0.00    +0.000 C 
ATOM     17  C   UNL     1       2.586  16.258  17.804  0.00  0.00    +0.000 C 
ATOM     18  C   UNL     1       1.275  16.518  18.541  0.00  0.00    +0.000 C 
ATOM     19  C   UNL     1       0.732  15.244  19.181  0.00  0.00    +0.000 C 
ENDBRANCH   2  12
BRANCH   1  20
ATOM     20  S   UNL     1       0.080  11.808  21.835  0.00  0.00    +0.000 S 
ATOM     21  O   UNL     1      -0.258  10.907  22.920  0.00  0.00    +0.000 OA
ATOM     22  O   UNL     1       1.461  11.877  21.397  0.00  0.00    +0.000 OA
BRANCH  20  27
ATOM     23  C   UNL     1      -2.532  10.768  16.431  0.00  0.00    +0.000 C 
ATOM     24  C   UNL     1      -1.921  10.990  17.783  0.00  0.00    +0.000 A 
ATOM     25  C   UNL     1      -2.279  12.087  18.565  0.00  0.00    +0.000 A 
ATOM     26  C   UNL     1      -1.692  12.277  19.817  0.00  0.00    +0.000 A 
ATOM     27  C   UNL     1      -0.737  11.366  20.308  0.00  0.00    +0.000 A 
ATOM     28  C   UNL     1      -0.324  10.282  19.514  0.00  0.00    +0.000 A 
ATOM     29  C   UNL     1       0.792   9.329  19.841  0.00  0.00    +0.000 C 
ATOM     30  C   UNL     1      -0.946  10.104  18.261  0.00  0.00    +0.000 A 
ENDBRANCH  20  27
ENDBRANCH   1  20
TORSDOF 3
ENDMDL
MODEL 6
REMARK VINA RESULT:      -7.0      3.063      4.824
REMARK  Name = 
REMARK  5 active torsions:
REMARK  status: ('A' for Active; 'I' for Inactive)
REMARK    1  A    between atoms: C_1  and  C_2
REMARK    2  A    between atoms: C_5  and  S_6
REMARK    3  A    between atoms: S_6  and  C_9
REMARK    4  A    between atoms: C_10  and  C_11
REMARK    5  A    between atoms: C_28  and  C_29
REMARK                            x       y       z     vdW  Elec       q    Type
REMARK                         _______ _______ _______ _____ _____    ______ ____
ROOT
ATOM      1  C   UNL     1      -0.952  13.861  21.740  0.00  0.00    +0.000 A 
ATOM      2  C   UNL     1       0.409  14.226  21.703  0.00  0.00    +0.000 A 
ATOM      3  C   UNL     1       0.809  15.195  22.606  0.00  0.00    +0.000 A 
ATOM      4  N   UNL     1       0.035  15.710  23.583  0.00  0.00    +0.000 NA
ATOM      5  C   UNL     1      -1.247  15.351  23.634  0.00  0.00    +0.000 A 
ATOM      6  C   UNL     1      -2.001  15.961  24.629  0.00  0.00    +0.000 A 
ATOM      7  C   UNL     1      -3.367  15.737  24.763  0.00  0.00    +0.000 A 
ATOM      8  C   UNL     1      -3.979  14.874  23.883  0.00  0.00    +0.000 A 
ATOM      9  F   UNL     1      -5.295  14.649  23.980  0.00  0.00    +0.000 F 
ATOM     10  C   UNL     1      -3.244  14.240  22.886  0.00  0.00    +0.000 A 
ATOM     11  C   UNL     1      -1.839  14.442  22.724  0.00  0.00    +0.000 A 
ENDROOT
BRANCH   2  12
ATOM     12  C   UNL     1       1.425  13.792  20.704  0.00  0.00    +0.000 C 
ATOM     13  O   UNL     1       2.147  12.844  20.988  0.00  0.00    +0.000 OA
ATOM     14  N   UNL     1       1.489  14.402  19.445  0.00  0.00    +0.000 N 
ATOM     15  C   UNL     1       2.300  13.762  18.404  0.00  0.00    +0.000 C 
ATOM     16  C   UNL     1       3.536  14.600  18.087  0.00  0.00    +0.000 C 
ATOM     17  C   UNL     1       3.137  16.027  17.714  0.00  0.00    +0.000 C 
ATOM     18  C   UNL     1       2.267  16.648  18.803  0.00  0.00    +0.000 C 
ATOM     19  C   UNL     1       1.061  15.768  19.124  0.00  0.00    +0.000 C 
ENDBRANCH   2  12
BRANCH   1  20
ATOM     20  S   UNL     1      -1.590  12.711  20.515  0.00  0.00    +0.000 S 
ATOM     21  O   UNL     1      -1.425  13.379  19.239  0.00  0.00    +0.000 OA
ATOM     22  O   UNL     1      -2.924  12.303  20.916  0.00  0.00    +0.000 OA
BRANCH  20  27
ATOM     23  C   UNL     1       1.804   7.653  20.586  0.00  0.00    +0.000 C 
ATOM     24  C   UNL     1       0.926   8.869  20.564  0.00  0.00    +0.000 A 
ATOM     25  C   UNL     1       0.762   9.619  19.400  0.00  0.00    +0.000 A 
ATOM     26  C   UNL     1      -0.054  10.751  19.405  0.00  0.00    +0.000 A 
ATOM     27  C   UNL     1      -0.725  11.149  20.578  0.00  0.00    +0.000 A 
ATOM     28  C   UNL     1      -0.532  10.437  21.774  0.00  0.00    +0.000 A 
ATOM     29  C   UNL     1      -1.053  10.836  23.127  0.00  0.00    +0.000 C 
ATOM     30  C   UNL     1       0.283   9.287  21.737  0.00  0.00    +0.000 A 
ENDBRANCH  20  27
ENDBRANCH   1  20
TORSDOF 3
ENDMDL
MODEL 7
REMARK VINA RESULT:      -7.0      2.789      4.702
REMARK  Name = 
REMARK  5 active torsions:
REMARK  status: ('A' for Active; 'I' for Inactive)
REMARK    1  A    between atoms: C_1  and  C_2
REMARK    2  A    between atoms: C_5  and  S_6
REMARK    3  A    between atoms: S_6  and  C_9
REMARK    4  A    between atoms: C_10  and  C_11
REMARK    5  A    between atoms: C_28  and  C_29
REMARK                            x       y       z     vdW  Elec       q    Type
REMARK                         _______ _______ _______ _____ _____    ______ ____
ROOT
ATOM      1  C   UNL     1      -1.182  13.615  21.367  0.00  0.00    +0.000 A 
ATOM      2  C   UNL     1      -0.794  14.766  20.651  0.00  0.00    +0.000 A 
ATOM      3  C   UNL     1      -1.508  15.922  20.916  0.00  0.00    +0.000 A 
ATOM      4  N   UNL     1      -2.442  16.052  21.879  0.00  0.00    +0.000 NA
ATOM      5  C   UNL     1      -2.796  14.971  22.572  0.00  0.00    +0.000 A 
ATOM      6  C   UNL     1      -3.802  15.162  23.511  0.00  0.00    +0.000 A 
ATOM      7  C   UNL     1      -4.321  14.113  24.262  0.00  0.00    +0.000 A 
ATOM      8  C   UNL     1      -3.809  12.851  24.068  0.00  0.00    +0.000 A 
ATOM      9  F   UNL     1      -4.298  11.820  24.767  0.00  0.00    +0.000 F 
ATOM     10  C   UNL     1      -2.791  12.635  23.144  0.00  0.00    +0.000 A 
ATOM     11  C   UNL     1      -2.230  13.689  22.361  0.00  0.00    +0.000 A 
ENDROOT
BRANCH   2  12
ATOM     12  C   UNL     1       0.196  14.839  19.541  0.00  0.00    +0.000 C 
ATOM     13  O   UNL     1      -0.146  14.443  18.434  0.00  0.00    +0.000 OA
ATOM     14  N   UNL     1       1.451  15.425  19.747  0.00  0.00    +0.000 N 
ATOM     15  C   UNL     1       2.275  15.732  18.573  0.00  0.00    +0.000 C 
ATOM     16  C   UNL     1       3.498  14.821  18.515  0.00  0.00    +0.000 C 
ATOM     17  C   UNL     1       4.293  14.904  19.816  0.00  0.00    +0.000 C 
ATOM     18  C   UNL     1       3.397  14.613  21.017  0.00  0.00    +0.000 C 
ATOM     19  C   UNL     1       2.165  15.513  21.026  0.00  0.00    +0.000 C 
ENDBRANCH   2  12
BRANCH   1  20
ATOM     20  S   UNL     1      -0.402  12.040  20.991  0.00  0.00    +0.000 S 
ATOM     21  O   UNL     1      -0.570  11.234  22.185  0.00  0.00    +0.000 OA
ATOM     22  O   UNL     1       0.943  12.294  20.511  0.00  0.00    +0.000 OA
BRANCH  20  27
ATOM     23  C   UNL     1      -2.868   9.922  15.839  0.00  0.00    +0.000 C 
ATOM     24  C   UNL     1      -2.282  10.404  17.133  0.00  0.00    +0.000 A 
ATOM     25  C   UNL     1      -2.876  11.441  17.852  0.00  0.00    +0.000 A 
ATOM     26  C   UNL     1      -2.309  11.878  19.050  0.00  0.00    +0.000 A 
ATOM     27  C   UNL     1      -1.138  11.278  19.551  0.00  0.00    +0.000 A 
ATOM     28  C   UNL     1      -0.495  10.267  18.817  0.00  0.00    +0.000 A 
ATOM     29  C   UNL     1       0.837   9.653  19.149  0.00  0.00    +0.000 C 
ATOM     30  C   UNL     1      -1.098   9.833  17.619  0.00  0.00    +0.000 A 
ENDBRANCH  20  27
ENDBRANCH   1  20
TORSDOF 3
ENDMDL
MODEL 8
REMARK VINA RESULT:      -7.0      1.333      1.443
REMARK  Name = 
REMARK  5 active torsions:
REMARK  status: ('A' for Active; 'I' for Inactive)
REMARK    1  A    between atoms: C_1  and  C_2
REMARK    2  A    between atoms: C_5  and  S_6
REMARK    3  A    between atoms: S_6  and  C_9
REMARK    4  A    between atoms: C_10  and  C_11
REMARK    5  A    between atoms: C_28  and  C_29
REMARK                            x       y       z     vdW  Elec       q    Type
REMARK                         _______ _______ _______ _____ _____    ______ ____
ROOT
ATOM      1  C   UNL     1      -1.965  12.408  20.367  0.00  0.00    +0.000 A 
ATOM      2  C   UNL     1      -2.775  13.215  21.193  0.00  0.00    +0.000 A 
ATOM      3  C   UNL     1      -4.098  13.352  20.808  0.00  0.00    +0.000 A 
ATOM      4  N   UNL     1      -4.683  12.683  19.796  0.00  0.00    +0.000 NA
ATOM      5  C   UNL     1      -3.926  11.903  19.026  0.00  0.00    +0.000 A 
ATOM      6  C   UNL     1      -4.581  11.287  17.967  0.00  0.00    +0.000 A 
ATOM      7  C   UNL     1      -3.907  10.499  17.040  0.00  0.00    +0.000 A 
ATOM      8  C   UNL     1      -2.551  10.322  17.191  0.00  0.00    +0.000 A 
ATOM      9  F   UNL     1      -1.875   9.579  16.307  0.00  0.00    +0.000 F 
ATOM     10  C   UNL     1      -1.874  10.917  18.251  0.00  0.00    +0.000 A 
ATOM     11  C   UNL     1      -2.534  11.728  19.224  0.00  0.00    +0.000 A 
ENDROOT
BRANCH   2  12
ATOM     12  C   UNL     1      -2.330  14.048  22.344  0.00  0.00    +0.000 C 
ATOM     13  O   UNL     1      -2.534  13.626  23.476  0.00  0.00    +0.000 OA
ATOM     14  N   UNL     1      -1.623  15.237  22.128  0.00  0.00    +0.000 N 
ATOM     15  C   UNL     1      -0.963  15.870  23.275  0.00  0.00    +0.000 C 
ATOM     16  C   UNL     1      -1.654  17.179  23.644  0.00  0.00    +0.000 C 
ATOM     17  C   UNL     1      -1.727  18.109  22.434  0.00  0.00    +0.000 C 
ATOM     18  C   UNL     1      -2.388  17.406  21.251  0.00  0.00    +0.000 C 
ATOM     19  C   UNL     1      -1.698  16.082  20.932  0.00  0.00    +0.000 C 
ENDBRANCH   2  12
BRANCH   1  20
ATOM     20  S   UNL     1      -0.206  12.282  20.711  0.00  0.00    +0.000 S 
ATOM     21  O   UNL     1      -0.105  12.152  22.151  0.00  0.00    +0.000 OA
ATOM     22  O   UNL     1       0.471  13.392  20.066  0.00  0.00    +0.000 OA
BRANCH  20  27
ATOM     23  C   UNL     1       2.765   7.793  17.857  0.00  0.00    +0.000 C 
ATOM     24  C   UNL     1       1.989   8.884  18.536  0.00  0.00    +0.000 A 
ATOM     25  C   UNL     1       2.022  10.195  18.061  0.00  0.00    +0.000 A 
ATOM     26  C   UNL     1       1.298  11.194  18.714  0.00  0.00    +0.000 A 
ATOM     27  C   UNL     1       0.526  10.895  19.853  0.00  0.00    +0.000 A 
ATOM     28  C   UNL     1       0.522   9.591  20.378  0.00  0.00    +0.000 A 
ATOM     29  C   UNL     1      -0.124   9.166  21.668  0.00  0.00    +0.000 C 
ATOM     30  C   UNL     1       1.247   8.597  19.689  0.00  0.00    +0.000 A 
ENDBRANCH  20  27
ENDBRANCH   1  20
TORSDOF 3
ENDMDL
MODEL 9
REMARK VINA RESULT:      -7.0      2.764      4.084
REMARK  Name = 
REMARK  5 active torsions:
REMARK  status: ('A' for Active; 'I' for Inactive)
REMARK    1  A    between atoms: C_1  and  C_2
REMARK    2  A    between atoms: C_5  and  S_6
REMARK    3  A    between atoms: S_6  and  C_9
REMARK    4  A    between atoms: C_10  and  C_11
REMARK    5  A    between atoms: C_28  and  C_29
REMARK                            x       y       z     vdW  Elec       q    Type
REMARK                         _______ _______ _______ _____ _____    ______ ____
ROOT
ATOM      1  C   UNL     1      -0.765  13.069  20.877  0.00  0.00    +0.000 A 
ATOM      2  C   UNL     1       0.507  13.670  20.981  0.00  0.00    +0.000 A 
ATOM      3  C   UNL     1       0.697  14.518  22.058  0.00  0.00    +0.000 A 
ATOM      4  N   UNL     1      -0.183  14.707  23.061  0.00  0.00    +0.000 NA
ATOM      5  C   UNL     1      -1.378  14.124  22.977  0.00  0.00    +0.000 A 
ATOM      6  C   UNL     1      -2.257  14.405  24.015  0.00  0.00    +0.000 A 
ATOM      7  C   UNL     1      -3.562  13.923  24.029  0.00  0.00    +0.000 A 
ATOM      8  C   UNL     1      -3.982  13.135  22.982  0.00  0.00    +0.000 A 
ATOM      9  F   UNL     1      -5.236  12.668  22.963  0.00  0.00    +0.000 F 
ATOM     10  C   UNL     1      -3.116  12.828  21.936  0.00  0.00    +0.000 A 
ATOM     11  C   UNL     1      -1.769  13.301  21.892  0.00  0.00    +0.000 A 
ENDROOT
BRANCH   2  12
ATOM     12  C   UNL     1       1.611  13.607  19.984  0.00  0.00    +0.000 C 
ATOM     13  O   UNL     1       2.444  12.716  20.100  0.00  0.00    +0.000 OA
ATOM     14  N   UNL     1       1.640  14.492  18.900  0.00  0.00    +0.000 N 
ATOM     15  C   UNL     1       2.572  14.214  17.802  0.00  0.00    +0.000 C 
ATOM     16  C   UNL     1       3.692  15.249  17.765  0.00  0.00    +0.000 C 
ATOM     17  C   UNL     1       3.118  16.662  17.692  0.00  0.00    +0.000 C 
ATOM     18  C   UNL     1       2.128  16.904  18.829  0.00  0.00    +0.000 C 
ATOM     19  C   UNL     1       1.043  15.832  18.861  0.00  0.00    +0.000 C 
ENDBRANCH   2  12
BRANCH   1  20
ATOM     20  S   UNL     1      -1.148  12.061  19.440  0.00  0.00    +0.000 S 
ATOM     21  O   UNL     1      -0.899  12.915  18.295  0.00  0.00    +0.000 OA
ATOM     22  O   UNL     1      -2.475  11.501  19.610  0.00  0.00    +0.000 OA
BRANCH  20  27
ATOM     23  C   UNL     1       2.653   7.308  19.177  0.00  0.00    +0.000 C 
ATOM     24  C   UNL     1       1.677   8.446  19.237  0.00  0.00    +0.000 A 
ATOM     25  C   UNL     1       1.416   9.231  18.115  0.00  0.00    +0.000 A 
ATOM     26  C   UNL     1       0.509  10.289  18.196  0.00  0.00    +0.000 A 
ATOM     27  C   UNL     1      -0.155  10.576  19.405  0.00  0.00    +0.000 A 
ATOM     28  C   UNL     1       0.134   9.830  20.560  0.00  0.00    +0.000 A 
ATOM     29  C   UNL     1      -0.376  10.123  21.944  0.00  0.00    +0.000 C 
ATOM     30  C   UNL     1       1.040   8.755  20.446  0.00  0.00    +0.000 A 
ENDBRANCH  20  27
ENDBRANCH   1  20
TORSDOF 3
ENDMDL
