MODEL 1
REMARK VINA RESULT:      -8.5      0.000      0.000
REMARK  Name = 
REMARK  5 active torsions:
REMARK  status: ('A' for Active; 'I' for Inactive)
REMARK    1  A    between atoms: C_1  and  N_2
REMARK    2  A    between atoms: C_3  and  S_4
REMARK    3  A    between atoms: S_4  and  C_5
REMARK    4  A    between atoms: C_5  and  C_6
REMARK    5  A    between atoms: C_20  and  C_21
REMARK                            x       y       z     vdW  Elec       q    Type
REMARK                         _______ _______ _______ _____ _____    ______ ____
ROOT
ATOM      1  C   UNL     1       8.197   7.436  18.534  0.00  0.00    +0.000 C 
ENDROOT
BRANCH   1   2
ATOM      2  C   UNL     1       8.478   8.903  18.222  0.00  0.00    +0.000 C 
ATOM      3  O   UNL     1       8.056   9.424  17.186  0.00  0.00    +0.000 OA
ATOM      4  N   UNL     1       9.254   9.541  19.176  0.00  0.00    +0.000 N 
ATOM      5  C   UNL     1       9.621  10.865  19.085  0.00  0.00    +0.000 A 
ATOM      6  N   UNL     1      10.650  11.363  19.730  0.00  0.00    +0.000 NA
ATOM      7  C   UNL     1      10.840  12.682  19.324  0.00  0.00    +0.000 A 
ATOM      8  C   UNL     1      11.905  13.528  19.690  0.00  0.00    +0.000 A 
ATOM      9  C   UNL     1      11.967  14.832  19.178  0.00  0.00    +0.000 A 
ATOM     10  C   UNL     1      10.978  15.306  18.323  0.00  0.00    +0.000 A 
ATOM     11  C   UNL     1       9.911  14.490  17.946  0.00  0.00    +0.000 A 
ATOM     12  C   UNL     1       9.874  13.185  18.453  0.00  0.00    +0.000 A 
ATOM     13  S   UNL     1       8.717  11.967  18.149  0.00  0.00    +0.000 S 
ATOM     14  H   UNL     1       9.862   8.984  19.763  0.00  0.00    +0.000 HD
ENDBRANCH   1   2
BRANCH   1  15
ATOM     15  S   UNL     1       7.016   6.745  17.281  0.00  0.00    +0.000 S 
BRANCH  15  18
ATOM     16  C   UNL     1       3.670   6.435  17.792  0.00  0.00    +0.000 C 
ATOM     17  N   UNL     1       4.681   5.511  18.220  0.00  0.00    +0.000 N 
ATOM     18  C   UNL     1       6.067   5.553  18.152  0.00  0.00    +0.000 A 
ATOM     19  N   UNL     1       6.567   4.573  18.831  0.00  0.00    +0.000 NA
ATOM     20  N   UNL     1       5.526   3.833  19.359  0.00  0.00    +0.000 NA
ATOM     21  C   UNL     1       4.395   4.366  18.957  0.00  0.00    +0.000 A 
BRANCH  21  22
ATOM     22  C   UNL     1       3.057   3.842  19.269  0.00  0.00    +0.000 A 
ATOM     23  C   UNL     1       2.340   3.116  18.312  0.00  0.00    +0.000 A 
ATOM     24  C   UNL     1       1.064   2.631  18.604  0.00  0.00    +0.000 A 
ATOM     25  C   UNL     1       0.508   2.863  19.866  0.00  0.00    +0.000 A 
ATOM     26  C   UNL     1       1.186   3.587  20.812  0.00  0.00    +0.000 A 
ATOM     27  C   UNL     1       2.444   4.085  20.503  0.00  0.00    +0.000 A 
ENDBRANCH  21  22
ENDBRANCH  15  18
ENDBRANCH   1  15
TORSDOF 4
ENDMDL
MODEL 2
REMARK VINA RESULT:      -8.2      0.799      1.640
REMARK  Name = 
REMARK  5 active torsions:
REMARK  status: ('A' for Active; 'I' for Inactive)
REMARK    1  A    between atoms: C_1  and  N_2
REMARK    2  A    between atoms: C_3  and  S_4
REMARK    3  A    between atoms: S_4  and  C_5
REMARK    4  A    between atoms: C_5  and  C_6
REMARK    5  A    between atoms: C_20  and  C_21
REMARK                            x       y       z     vdW  Elec       q    Type
REMARK                         _______ _______ _______ _____ _____    ______ ____
ROOT
ATOM      1  C   UNL     1       7.952   7.137  18.491  0.00  0.00    +0.000 C 
ENDROOT
BRANCH   1   2
ATOM      2  C   UNL     1       8.337   8.578  18.167  0.00  0.00    +0.000 C 
ATOM      3  O   UNL     1       8.037   9.086  17.083  0.00  0.00    +0.000 OA
ATOM      4  N   UNL     1       9.056   9.206  19.170  0.00  0.00    +0.000 N 
ATOM      5  C   UNL     1       9.499  10.507  19.078  0.00  0.00    +0.000 A 
ATOM      6  N   UNL     1      10.490  10.973  19.801  0.00  0.00    +0.000 NA
ATOM      7  C   UNL     1      10.786  12.267  19.378  0.00  0.00    +0.000 A 
ATOM      8  C   UNL     1      11.856  13.070  19.817  0.00  0.00    +0.000 A 
ATOM      9  C   UNL     1      12.032  14.353  19.278  0.00  0.00    +0.000 A 
ATOM     10  C   UNL     1      11.151  14.848  18.323  0.00  0.00    +0.000 A 
ATOM     11  C   UNL     1      10.081  14.075  17.872  0.00  0.00    +0.000 A 
ATOM     12  C   UNL     1       9.929  12.790  18.409  0.00  0.00    +0.000 A 
ATOM     13  S   UNL     1       8.742  11.622  18.034  0.00  0.00    +0.000 S 
ATOM     14  H   UNL     1       9.579   8.639  19.825  0.00  0.00    +0.000 HD
ENDBRANCH   1   2
BRANCH   1  15
ATOM     15  S   UNL     1       7.181   6.345  17.002  0.00  0.00    +0.000 S 
BRANCH  15  18
ATOM     16  C   UNL     1       5.460   3.777  18.414  0.00  0.00    +0.000 C 
ATOM     17  N   UNL     1       4.925   5.059  18.058  0.00  0.00    +0.000 N 
ATOM     18  C   UNL     1       5.484   6.152  17.410  0.00  0.00    +0.000 A 
ATOM     19  N   UNL     1       4.565   7.022  17.148  0.00  0.00    +0.000 NA
ATOM     20  N   UNL     1       3.361   6.543  17.631  0.00  0.00    +0.000 NA
ATOM     21  C   UNL     1       3.582   5.388  18.217  0.00  0.00    +0.000 A 
BRANCH  21  22
ATOM     22  C   UNL     1       2.561   4.578  18.898  0.00  0.00    +0.000 A 
ATOM     23  C   UNL     1       2.322   4.745  20.266  0.00  0.00    +0.000 A 
ATOM     24  C   UNL     1       1.362   3.965  20.915  0.00  0.00    +0.000 A 
ATOM     25  C   UNL     1       0.629   3.023  20.186  0.00  0.00    +0.000 A 
ATOM     26  C   UNL     1       0.860   2.832  18.849  0.00  0.00    +0.000 A 
ATOM     27  C   UNL     1       1.833   3.596  18.219  0.00  0.00    +0.000 A 
ENDBRANCH  21  22
ENDBRANCH  15  18
ENDBRANCH   1  15
TORSDOF 4
ENDMDL
MODEL 3
REMARK VINA RESULT:      -8.0      7.107     10.594
REMARK  Name = 
REMARK  5 active torsions:
REMARK  status: ('A' for Active; 'I' for Inactive)
REMARK    1  A    between atoms: C_1  and  N_2
REMARK    2  A    between atoms: C_3  and  S_4
REMARK    3  A    between atoms: S_4  and  C_5
REMARK    4  A    between atoms: C_5  and  C_6
REMARK    5  A    between atoms: C_20  and  C_21
REMARK                            x       y       z     vdW  Elec       q    Type
REMARK                         _______ _______ _______ _____ _____    ______ ____
ROOT
ATOM      1  C   UNL     1       1.550  10.282  18.194  0.00  0.00    +0.000 C 
ENDROOT
BRANCH   1   2
ATOM      2  C   UNL     1       2.069   8.847  18.230  0.00  0.00    +0.000 C 
ATOM      3  O   UNL     1       2.555   8.322  17.226  0.00  0.00    +0.000 OA
ATOM      4  N   UNL     1       1.906   8.223  19.456  0.00  0.00    +0.000 N 
ATOM      5  C   UNL     1       2.308   6.928  19.701  0.00  0.00    +0.000 A 
ATOM      6  N   UNL     1       1.816   6.206  20.681  0.00  0.00    +0.000 NA
ATOM      7  C   UNL     1       2.316   4.909  20.578  0.00  0.00    +0.000 A 
ATOM      8  C   UNL     1       1.944   3.801  21.363  0.00  0.00    +0.000 A 
ATOM      9  C   UNL     1       2.527   2.549  21.122  0.00  0.00    +0.000 A 
ATOM     10  C   UNL     1       3.483   2.391  20.124  0.00  0.00    +0.000 A 
ATOM     11  C   UNL     1       3.871   3.472  19.332  0.00  0.00    +0.000 A 
ATOM     12  C   UNL     1       3.266   4.713  19.575  0.00  0.00    +0.000 A 
ATOM     13  S   UNL     1       3.521   6.190  18.759  0.00  0.00    +0.000 S 
ATOM     14  H   UNL     1       1.184   8.556  20.082  0.00  0.00    +0.000 HD
ENDBRANCH   1   2
BRANCH   1  15
ATOM     15  S   UNL     1      -0.271  10.298  18.544  0.00  0.00    +0.000 S 
BRANCH  15  18
ATOM     16  C   UNL     1      -2.288  12.622  19.988  0.00  0.00    +0.000 C 
ATOM     17  N   UNL     1      -1.346  11.780  20.667  0.00  0.00    +0.000 N 
ATOM     18  C   UNL     1      -0.415  10.861  20.201  0.00  0.00    +0.000 A 
ATOM     19  N   UNL     1       0.341  10.473  21.175  0.00  0.00    +0.000 NA
ATOM     20  N   UNL     1      -0.075  11.109  22.330  0.00  0.00    +0.000 NA
ATOM     21  C   UNL     1      -1.114  11.857  22.037  0.00  0.00    +0.000 A 
BRANCH  21  22
ATOM     22  C   UNL     1      -1.876  12.659  23.006  0.00  0.00    +0.000 A 
ATOM     23  C   UNL     1      -3.102  12.200  23.496  0.00  0.00    +0.000 A 
ATOM     24  C   UNL     1      -3.832  12.969  24.405  0.00  0.00    +0.000 A 
ATOM     25  C   UNL     1      -3.323  14.198  24.835  0.00  0.00    +0.000 A 
ATOM     26  C   UNL     1      -2.132  14.675  24.354  0.00  0.00    +0.000 A 
ATOM     27  C   UNL     1      -1.426  13.913  23.433  0.00  0.00    +0.000 A 
ENDBRANCH  21  22
ENDBRANCH  15  18
ENDBRANCH   1  15
TORSDOF 4
ENDMDL
MODEL 4
REMARK VINA RESULT:      -7.7      1.635      2.183
REMARK  Name = 
REMARK  5 active torsions:
REMARK  status: ('A' for Active; 'I' for Inactive)
REMARK    1  A    between atoms: C_1  and  N_2
REMARK    2  A    between atoms: C_3  and  S_4
REMARK    3  A    between atoms: S_4  and  C_5
REMARK    4  A    between atoms: C_5  and  C_6
REMARK    5  A    between atoms: C_20  and  C_21
REMARK                            x       y       z     vdW  Elec       q    Type
REMARK                         _______ _______ _______ _____ _____    ______ ____
ROOT
ATOM      1  C   UNL     1       7.380   8.947  17.664  0.00  0.00    +0.000 C 
ENDROOT
BRANCH   1   2
ATOM      2  C   UNL     1       8.470   9.874  18.196  0.00  0.00    +0.000 C 
ATOM      3  O   UNL     1       9.265   9.489  19.057  0.00  0.00    +0.000 OA
ATOM      4  N   UNL     1       8.442  11.145  17.648  0.00  0.00    +0.000 N 
ATOM      5  C   UNL     1       9.339  12.133  17.991  0.00  0.00    +0.000 A 
ATOM      6  N   UNL     1       9.094  13.409  17.806  0.00  0.00    +0.000 NA
ATOM      7  C   UNL     1      10.124  14.152  18.379  0.00  0.00    +0.000 A 
ATOM      8  C   UNL     1      10.182  15.554  18.500  0.00  0.00    +0.000 A 
ATOM      9  C   UNL     1      11.285  16.155  19.124  0.00  0.00    +0.000 A 
ATOM     10  C   UNL     1      12.333  15.382  19.612  0.00  0.00    +0.000 A 
ATOM     11  C   UNL     1      12.303  13.991  19.503  0.00  0.00    +0.000 A 
ATOM     12  C   UNL     1      11.185  13.406  18.892  0.00  0.00    +0.000 A 
ATOM     13  S   UNL     1      10.865  11.748  18.644  0.00  0.00    +0.000 S 
ATOM     14  H   UNL     1       7.572  11.494  17.265  0.00  0.00    +0.000 HD
ENDBRANCH   1   2
BRANCH   1  15
ATOM     15  S   UNL     1       7.906   7.180  17.871  0.00  0.00    +0.000 S 
BRANCH  15  18
ATOM     16  C   UNL     1       5.778   5.114  19.531  0.00  0.00    +0.000 C 
ATOM     17  N   UNL     1       5.700   5.472  18.144  0.00  0.00    +0.000 N 
ATOM     18  C   UNL     1       6.534   6.227  17.331  0.00  0.00    +0.000 A 
ATOM     19  N   UNL     1       6.151   6.127  16.100  0.00  0.00    +0.000 NA
ATOM     20  N   UNL     1       5.034   5.315  16.056  0.00  0.00    +0.000 NA
ATOM     21  C   UNL     1       4.734   4.958  17.284  0.00  0.00    +0.000 A 
BRANCH  21  22
ATOM     22  C   UNL     1       3.582   4.128  17.664  0.00  0.00    +0.000 A 
ATOM     23  C   UNL     1       3.626   2.739  17.507  0.00  0.00    +0.000 A 
ATOM     24  C   UNL     1       2.526   1.953  17.855  0.00  0.00    +0.000 A 
ATOM     25  C   UNL     1       1.380   2.562  18.377  0.00  0.00    +0.000 A 
ATOM     26  C   UNL     1       1.309   3.922  18.524  0.00  0.00    +0.000 A 
ATOM     27  C   UNL     1       2.400   4.696  18.152  0.00  0.00    +0.000 A 
ENDBRANCH  21  22
ENDBRANCH  15  18
ENDBRANCH   1  15
TORSDOF 4
ENDMDL
MODEL 5
REMARK VINA RESULT:      -7.7      7.083     10.692
REMARK  Name = 
REMARK  5 active torsions:
REMARK  status: ('A' for Active; 'I' for Inactive)
REMARK    1  A    between atoms: C_1  and  N_2
REMARK    2  A    between atoms: C_3  and  S_4
REMARK    3  A    between atoms: S_4  and  C_5
REMARK    4  A    between atoms: C_5  and  C_6
REMARK    5  A    between atoms: C_20  and  C_21
REMARK                            x       y       z     vdW  Elec       q    Type
REMARK                         _______ _______ _______ _____ _____    ______ ____
ROOT
ATOM      1  C   UNL     1       1.785  10.125  18.609  0.00  0.00    +0.000 C 
ENDROOT
BRANCH   1   2
ATOM      2  C   UNL     1       2.238   8.727  18.198  0.00  0.00    +0.000 C 
ATOM      3  O   UNL     1       2.634   8.499  17.053  0.00  0.00    +0.000 OA
ATOM      4  N   UNL     1       2.124   7.782  19.205  0.00  0.00    +0.000 N 
ATOM      5  C   UNL     1       2.480   6.462  19.042  0.00  0.00    +0.000 A 
ATOM      6  N   UNL     1       2.019   5.502  19.809  0.00  0.00    +0.000 NA
ATOM      7  C   UNL     1       2.450   4.276  19.306  0.00  0.00    +0.000 A 
ATOM      8  C   UNL     1       2.078   3.000  19.770  0.00  0.00    +0.000 A 
ATOM      9  C   UNL     1       2.586   1.854  19.141  0.00  0.00    +0.000 A 
ATOM     10  C   UNL     1       3.467   1.964  18.070  0.00  0.00    +0.000 A 
ATOM     11  C   UNL     1       3.854   3.216  17.592  0.00  0.00    +0.000 A 
ATOM     12  C   UNL     1       3.324   4.350  18.221  0.00  0.00    +0.000 A 
ATOM     13  S   UNL     1       3.595   5.992  17.842  0.00  0.00    +0.000 S 
ATOM     14  H   UNL     1       1.460   7.941  19.952  0.00  0.00    +0.000 HD
ENDBRANCH   1   2
BRANCH   1  15
ATOM     15  S   UNL     1      -0.055  10.145  18.838  0.00  0.00    +0.000 S 
BRANCH  15  18
ATOM     16  C   UNL     1      -2.006  12.638  20.077  0.00  0.00    +0.000 C 
ATOM     17  N   UNL     1      -1.203  11.731  20.845  0.00  0.00    +0.000 N 
ATOM     18  C   UNL     1      -0.308  10.737  20.472  0.00  0.00    +0.000 A 
ATOM     19  N   UNL     1       0.319  10.301  21.514  0.00  0.00    +0.000 NA
ATOM     20  N   UNL     1      -0.151  10.980  22.622  0.00  0.00    +0.000 NA
ATOM     21  C   UNL     1      -1.095  11.805  22.230  0.00  0.00    +0.000 A 
BRANCH  21  22
ATOM     22  C   UNL     1      -1.877  12.676  23.120  0.00  0.00    +0.000 A 
ATOM     23  C   UNL     1      -1.349  13.892  23.564  0.00  0.00    +0.000 A 
ATOM     24  C   UNL     1      -2.087  14.712  24.420  0.00  0.00    +0.000 A 
ATOM     25  C   UNL     1      -3.367  14.317  24.822  0.00  0.00    +0.000 A 
ATOM     26  C   UNL     1      -3.896  13.121  24.413  0.00  0.00    +0.000 A 
ATOM     27  C   UNL     1      -3.144  12.303  23.581  0.00  0.00    +0.000 A 
ENDBRANCH  21  22
ENDBRANCH  15  18
ENDBRANCH   1  15
TORSDOF 4
ENDMDL
MODEL 6
REMARK VINA RESULT:      -7.7      1.749      2.446
REMARK  Name = 
REMARK  5 active torsions:
REMARK  status: ('A' for Active; 'I' for Inactive)
REMARK    1  A    between atoms: C_1  and  N_2
REMARK    2  A    between atoms: C_3  and  S_4
REMARK    3  A    between atoms: S_4  and  C_5
REMARK    4  A    between atoms: C_5  and  C_6
REMARK    5  A    between atoms: C_20  and  C_21
REMARK                            x       y       z     vdW  Elec       q    Type
REMARK                         _______ _______ _______ _____ _____    ______ ____
ROOT
ATOM      1  C   UNL     1       7.674   9.205  17.578  0.00  0.00    +0.000 C 
ENDROOT
BRANCH   1   2
ATOM      2  C   UNL     1       8.675  10.147  18.241  0.00  0.00    +0.000 C 
ATOM      3  O   UNL     1       9.311   9.797  19.237  0.00  0.00    +0.000 OA
ATOM      4  N   UNL     1       8.756  11.392  17.640  0.00  0.00    +0.000 N 
ATOM      5  C   UNL     1       9.598  12.388  18.081  0.00  0.00    +0.000 A 
ATOM      6  N   UNL     1       9.407  13.656  17.803  0.00  0.00    +0.000 NA
ATOM      7  C   UNL     1      10.340  14.417  18.504  0.00  0.00    +0.000 A 
ATOM      8  C   UNL     1      10.397  15.823  18.571  0.00  0.00    +0.000 A 
ATOM      9  C   UNL     1      11.391  16.444  19.340  0.00  0.00    +0.000 A 
ATOM     10  C   UNL     1      12.333  15.686  20.028  0.00  0.00    +0.000 A 
ATOM     11  C   UNL     1      12.301  14.292  19.978  0.00  0.00    +0.000 A 
ATOM     12  C   UNL     1      11.290  13.688  19.218  0.00  0.00    +0.000 A 
ATOM     13  S   UNL     1      10.991  12.022  18.994  0.00  0.00    +0.000 S 
ATOM     14  H   UNL     1       7.966  11.729  17.104  0.00  0.00    +0.000 HD
ENDBRANCH   1   2
BRANCH   1  15
ATOM     15  S   UNL     1       8.029   7.457  18.086  0.00  0.00    +0.000 S 
BRANCH  15  18
ATOM     16  C   UNL     1       5.944   5.188  19.522  0.00  0.00    +0.000 C 
ATOM     17  N   UNL     1       5.876   5.663  18.170  0.00  0.00    +0.000 N 
ATOM     18  C   UNL     1       6.699   6.511  17.440  0.00  0.00    +0.000 A 
ATOM     19  N   UNL     1       6.339   6.506  16.199  0.00  0.00    +0.000 NA
ATOM     20  N   UNL     1       5.249   5.666  16.064  0.00  0.00    +0.000 NA
ATOM     21  C   UNL     1       4.942   5.195  17.251  0.00  0.00    +0.000 A 
BRANCH  21  22
ATOM     22  C   UNL     1       3.812   4.299  17.537  0.00  0.00    +0.000 A 
ATOM     23  C   UNL     1       2.557   4.825  17.861  0.00  0.00    +0.000 A 
ATOM     24  C   UNL     1       1.487   3.974  18.147  0.00  0.00    +0.000 A 
ATOM     25  C   UNL     1       1.673   2.589  18.093  0.00  0.00    +0.000 A 
ATOM     26  C   UNL     1       2.898   2.053  17.794  0.00  0.00    +0.000 A 
ATOM     27  C   UNL     1       3.960   2.909  17.536  0.00  0.00    +0.000 A 
ENDBRANCH  21  22
ENDBRANCH  15  18
ENDBRANCH   1  15
TORSDOF 4
ENDMDL
MODEL 7
REMARK VINA RESULT:      -7.5      6.280      8.734
REMARK  Name = 
REMARK  5 active torsions:
REMARK  status: ('A' for Active; 'I' for Inactive)
REMARK    1  A    between atoms: C_1  and  N_2
REMARK    2  A    between atoms: C_3  and  S_4
REMARK    3  A    between atoms: S_4  and  C_5
REMARK    4  A    between atoms: C_5  and  C_6
REMARK    5  A    between atoms: C_20  and  C_21
REMARK                            x       y       z     vdW  Elec       q    Type
REMARK                         _______ _______ _______ _____ _____    ______ ____
ROOT
ATOM      1  C   UNL     1       2.773   7.149  18.396  0.00  0.00    +0.000 C 
ENDROOT
BRANCH   1   2
ATOM      2  C   UNL     1       1.939   7.795  19.498  0.00  0.00    +0.000 C 
ATOM      3  O   UNL     1       1.715   7.201  20.555  0.00  0.00    +0.000 OA
ATOM      4  N   UNL     1       1.458   9.053  19.173  0.00  0.00    +0.000 N 
ATOM      5  C   UNL     1       0.685   9.808  20.029  0.00  0.00    +0.000 A 
ATOM      6  N   UNL     1      -0.093  10.779  19.613  0.00  0.00    +0.000 NA
ATOM      7  C   UNL     1      -0.842  11.249  20.690  0.00  0.00    +0.000 A 
ATOM      8  C   UNL     1      -1.874  12.205  20.641  0.00  0.00    +0.000 A 
ATOM      9  C   UNL     1      -2.550  12.562  21.817  0.00  0.00    +0.000 A 
ATOM     10  C   UNL     1      -2.201  11.991  23.037  0.00  0.00    +0.000 A 
ATOM     11  C   UNL     1      -1.180  11.044  23.114  0.00  0.00    +0.000 A 
ATOM     12  C   UNL     1      -0.526  10.687  21.927  0.00  0.00    +0.000 A 
ATOM     13  S   UNL     1       0.729   9.551  21.713  0.00  0.00    +0.000 S 
ATOM     14  H   UNL     1       1.352   9.299  18.198  0.00  0.00    +0.000 HD
ENDBRANCH   1   2
BRANCH   1  15
ATOM     15  S   UNL     1       3.842   5.818  19.119  0.00  0.00    +0.000 S 
BRANCH  15  18
ATOM     16  C   UNL     1       5.039   6.742  16.075  0.00  0.00    +0.000 C 
ATOM     17  N   UNL     1       4.940   5.401  16.574  0.00  0.00    +0.000 N 
ATOM     18  C   UNL     1       4.404   4.881  17.745  0.00  0.00    +0.000 A 
ATOM     19  N   UNL     1       4.379   3.591  17.678  0.00  0.00    +0.000 NA
ATOM     20  N   UNL     1       4.916   3.206  16.464  0.00  0.00    +0.000 NA
ATOM     21  C   UNL     1       5.295   4.286  15.820  0.00  0.00    +0.000 A 
BRANCH  21  22
ATOM     22  C   UNL     1       5.957   4.297  14.507  0.00  0.00    +0.000 A 
ATOM     23  C   UNL     1       5.423   3.570  13.439  0.00  0.00    +0.000 A 
ATOM     24  C   UNL     1       6.060   3.570  12.196  0.00  0.00    +0.000 A 
ATOM     25  C   UNL     1       7.231   4.314  12.020  0.00  0.00    +0.000 A 
ATOM     26  C   UNL     1       7.781   5.019  13.058  0.00  0.00    +0.000 A 
ATOM     27  C   UNL     1       7.152   4.993  14.296  0.00  0.00    +0.000 A 
ENDBRANCH  21  22
ENDBRANCH  15  18
ENDBRANCH   1  15
TORSDOF 4
ENDMDL
MODEL 8
REMARK VINA RESULT:      -7.5      1.488      2.013
REMARK  Name = 
REMARK  5 active torsions:
REMARK  status: ('A' for Active; 'I' for Inactive)
REMARK    1  A    between atoms: C_1  and  N_2
REMARK    2  A    between atoms: C_3  and  S_4
REMARK    3  A    between atoms: S_4  and  C_5
REMARK    4  A    between atoms: C_5  and  C_6
REMARK    5  A    between atoms: C_20  and  C_21
REMARK                            x       y       z     vdW  Elec       q    Type
REMARK                         _______ _______ _______ _____ _____    ______ ____
ROOT
ATOM      1  C   UNL     1       7.489   8.807  17.829  0.00  0.00    +0.000 C 
ENDROOT
BRANCH   1   2
ATOM      2  C   UNL     1       8.551   9.784  18.326  0.00  0.00    +0.000 C 
ATOM      3  O   UNL     1       9.311   9.480  19.249  0.00  0.00    +0.000 OA
ATOM      4  N   UNL     1       8.539  11.006  17.673  0.00  0.00    +0.000 N 
ATOM      5  C   UNL     1       9.415  12.026  17.968  0.00  0.00    +0.000 A 
ATOM      6  N   UNL     1       9.172  13.281  17.668  0.00  0.00    +0.000 NA
ATOM      7  C   UNL     1      10.173  14.078  18.219  0.00  0.00    +0.000 A 
ATOM      8  C   UNL     1      10.218  15.485  18.225  0.00  0.00    +0.000 A 
ATOM      9  C   UNL     1      11.291  16.146  18.841  0.00  0.00    +0.000 A 
ATOM     10  C   UNL     1      12.321  15.425  19.435  0.00  0.00    +0.000 A 
ATOM     11  C   UNL     1      12.303  14.030  19.442  0.00  0.00    +0.000 A 
ATOM     12  C   UNL     1      11.215  13.386  18.836  0.00  0.00    +0.000 A 
ATOM     13  S   UNL     1      10.915  11.710  18.714  0.00  0.00    +0.000 S 
ATOM     14  H   UNL     1       7.684  11.313  17.226  0.00  0.00    +0.000 HD
ENDBRANCH   1   2
BRANCH   1  15
ATOM     15  S   UNL     1       8.198   7.094  17.763  0.00  0.00    +0.000 S 
BRANCH  15  18
ATOM     16  C   UNL     1       5.108   6.195  16.668  0.00  0.00    +0.000 C 
ATOM     17  N   UNL     1       5.757   5.719  17.855  0.00  0.00    +0.000 N 
ATOM     18  C   UNL     1       6.962   6.058  18.456  0.00  0.00    +0.000 A 
ATOM     19  N   UNL     1       7.046   5.493  19.615  0.00  0.00    +0.000 NA
ATOM     20  N   UNL     1       5.904   4.741  19.818  0.00  0.00    +0.000 NA
ATOM     21  C   UNL     1       5.151   4.838  18.746  0.00  0.00    +0.000 A 
BRANCH  21  22
ATOM     22  C   UNL     1       3.869   4.146  18.550  0.00  0.00    +0.000 A 
ATOM     23  C   UNL     1       2.685   4.693  19.055  0.00  0.00    +0.000 A 
ATOM     24  C   UNL     1       1.469   4.028  18.881  0.00  0.00    +0.000 A 
ATOM     25  C   UNL     1       1.438   2.815  18.184  0.00  0.00    +0.000 A 
ATOM     26  C   UNL     1       2.589   2.254  17.697  0.00  0.00    +0.000 A 
ATOM     27  C   UNL     1       3.795   2.911  17.897  0.00  0.00    +0.000 A 
ENDBRANCH  21  22
ENDBRANCH  15  18
ENDBRANCH   1  15
TORSDOF 4
ENDMDL
MODEL 9
REMARK VINA RESULT:      -7.4      7.619     10.236
REMARK  Name = 
REMARK  5 active torsions:
REMARK  status: ('A' for Active; 'I' for Inactive)
REMARK    1  A    between atoms: C_1  and  N_2
REMARK    2  A    between atoms: C_3  and  S_4
REMARK    3  A    between atoms: S_4  and  C_5
REMARK    4  A    between atoms: C_5  and  C_6
REMARK    5  A    between atoms: C_20  and  C_21
REMARK                            x       y       z     vdW  Elec       q    Type
REMARK                         _______ _______ _______ _____ _____    ______ ____
ROOT
ATOM      1  C   UNL     1       0.189   9.999  20.450  0.00  0.00    +0.000 C 
ENDROOT
BRANCH   1   2
ATOM      2  C   UNL     1       1.150   8.827  20.270  0.00  0.00    +0.000 C 
ATOM      3  O   UNL     1       1.468   8.115  21.226  0.00  0.00    +0.000 OA
ATOM      4  N   UNL     1       1.624   8.684  18.976  0.00  0.00    +0.000 N 
ATOM      5  C   UNL     1       2.500   7.689  18.601  0.00  0.00    +0.000 A 
ATOM      6  N   UNL     1       3.253   7.773  17.530  0.00  0.00    +0.000 NA
ATOM      7  C   UNL     1       4.122   6.683  17.504  0.00  0.00    +0.000 A 
ATOM      8  C   UNL     1       5.166   6.464  16.585  0.00  0.00    +0.000 A 
ATOM      9  C   UNL     1       5.970   5.321  16.704  0.00  0.00    +0.000 A 
ATOM     10  C   UNL     1       5.737   4.391  17.711  0.00  0.00    +0.000 A 
ATOM     11  C   UNL     1       4.707   4.582  18.633  0.00  0.00    +0.000 A 
ATOM     12  C   UNL     1       3.925   5.738  18.510  0.00  0.00    +0.000 A 
ATOM     13  S   UNL     1       2.626   6.244  19.496  0.00  0.00    +0.000 S 
ATOM     14  H   UNL     1       1.633   9.491  18.367  0.00  0.00    +0.000 HD
ENDBRANCH   1   2
BRANCH   1  15
ATOM     15  S   UNL     1       0.067  10.956  18.866  0.00  0.00    +0.000 S 
BRANCH  15  18
ATOM     16  C   UNL     1      -2.747  12.594  19.842  0.00  0.00    +0.000 C 
ATOM     17  N   UNL     1      -2.660  11.605  18.808  0.00  0.00    +0.000 N 
ATOM     18  C   UNL     1      -1.610  10.809  18.368  0.00  0.00    +0.000 A 
ATOM     19  N   UNL     1      -2.050   9.932  17.527  0.00  0.00    +0.000 NA
ATOM     20  N   UNL     1      -3.409  10.128  17.363  0.00  0.00    +0.000 NA
ATOM     21  C   UNL     1      -3.768  11.158  18.094  0.00  0.00    +0.000 A 
BRANCH  21  22
ATOM     22  C   UNL     1      -5.127  11.715  18.158  0.00  0.00    +0.000 A 
ATOM     23  C   UNL     1      -5.971  11.402  19.229  0.00  0.00    +0.000 A 
ATOM     24  C   UNL     1      -7.267  11.919  19.281  0.00  0.00    +0.000 A 
ATOM     25  C   UNL     1      -7.714  12.766  18.262  0.00  0.00    +0.000 A 
ATOM     26  C   UNL     1      -6.910  13.072  17.196  0.00  0.00    +0.000 A 
ATOM     27  C   UNL     1      -5.632  12.532  17.142  0.00  0.00    +0.000 A 
ENDBRANCH  21  22
ENDBRANCH  15  18
ENDBRANCH   1  15
TORSDOF 4
ENDMDL
