MODEL 1
REMARK VINA RESULT:      -6.7      0.000      0.000
REMARK  Name = 
REMARK  3 active torsions:
REMARK  status: ('A' for Active; 'I' for Inactive)
REMARK    1  A    between atoms: C_1  and  C_2
REMARK    2  A    between atoms: C_4  and  C_5
REMARK    3  A    between atoms: N_9  and  C_10
REMARK                            x       y       z     vdW  Elec       q    Type
REMARK                         _______ _______ _______ _____ _____    ______ ____
ROOT
ATOM      1  C   UNL     1       2.165   3.670  17.294  0.00  0.00    +0.000 C 
ATOM      2  C   UNL     1       3.502   4.162  17.723  0.00  0.00    +0.000 A 
ATOM      3  C   UNL     1       4.725   3.699  17.278  0.00  0.00    +0.000 A 
ATOM      4  C   UNL     1       5.680   4.608  17.760  0.00  0.00    +0.000 A 
ATOM      5  N   UNL     1       5.106   5.542  18.535  0.00  0.00    +0.000 NA
ATOM      6  N   UNL     1       3.775   5.262  18.536  0.00  0.00    +0.000 N 
ENDROOT
BRANCH   6   7
ATOM      7  C   UNL     1       2.890   6.094  19.286  0.00  0.00    +0.000 A 
ATOM      8  C   UNL     1       2.207   5.584  20.414  0.00  0.00    +0.000 A 
ATOM      9 CL   UNL     1       2.433   3.991  21.070  0.00  0.00    +0.000 Cl
ATOM     10  C   UNL     1       1.328   6.392  21.150  0.00  0.00    +0.000 A 
ATOM     11  C   UNL     1       1.142   7.721  20.801  0.00  0.00    +0.000 A 
ATOM     12 CL   UNL     1       0.078   8.714  21.714  0.00  0.00    +0.000 Cl
ATOM     13  C   UNL     1       1.791   8.240  19.687  0.00  0.00    +0.000 A 
ATOM     14  C   UNL     1       2.623   7.425  18.907  0.00  0.00    +0.000 A 
ATOM     15 CL   UNL     1       3.050   8.104  17.374  0.00  0.00    +0.000 Cl
ENDBRANCH   6   7
BRANCH   4  16
ATOM     16  C   UNL     1       7.117   4.610  17.446  0.00  0.00    +0.000 C 
ATOM     17  N   UNL     1       7.412   4.766  16.122  0.00  0.00    +0.000 N 
ATOM     18  O   UNL     1       7.998   4.451  18.285  0.00  0.00    +0.000 OA
ATOM     19  H   UNL     1       6.653   4.802  15.453  0.00  0.00    +0.000 HD
ATOM     20  H   UNL     1       8.372   4.690  15.818  0.00  0.00    +0.000 HD
ENDBRANCH   4  16
TORSDOF 2
ENDMDL
MODEL 2
REMARK VINA RESULT:      -6.5      0.861      2.337
REMARK  Name = 
REMARK  3 active torsions:
REMARK  status: ('A' for Active; 'I' for Inactive)
REMARK    1  A    between atoms: C_1  and  C_2
REMARK    2  A    between atoms: C_4  and  C_5
REMARK    3  A    between atoms: N_9  and  C_10
REMARK                            x       y       z     vdW  Elec       q    Type
REMARK                         _______ _______ _______ _____ _____    ______ ____
ROOT
ATOM      1  C   UNL     1       2.225   3.442  17.235  0.00  0.00    +0.000 C 
ATOM      2  C   UNL     1       3.540   4.104  17.456  0.00  0.00    +0.000 A 
ATOM      3  C   UNL     1       4.735   3.770  16.848  0.00  0.00    +0.000 A 
ATOM      4  C   UNL     1       5.631   4.802  17.166  0.00  0.00    +0.000 A 
ATOM      5  N   UNL     1       5.063   5.692  17.995  0.00  0.00    +0.000 NA
ATOM      6  N   UNL     1       3.790   5.259  18.196  0.00  0.00    +0.000 N 
ENDROOT
BRANCH   6   7
ATOM      7  C   UNL     1       2.925   6.011  19.048  0.00  0.00    +0.000 A 
ATOM      8  C   UNL     1       2.655   7.371  18.777  0.00  0.00    +0.000 A 
ATOM      9 CL   UNL     1       3.219   8.233  17.378  0.00  0.00    +0.000 Cl
ATOM     10  C   UNL     1       1.814   8.119  19.615  0.00  0.00    +0.000 A 
ATOM     11  C   UNL     1       1.205   7.522  20.708  0.00  0.00    +0.000 A 
ATOM     12 CL   UNL     1       0.163   8.435  21.722  0.00  0.00    +0.000 Cl
ATOM     13  C   UNL     1       1.468   6.190  21.002  0.00  0.00    +0.000 A 
ATOM     14  C   UNL     1       2.355   5.449  20.209  0.00  0.00    +0.000 A 
ATOM     15 CL   UNL     1       2.856   3.950  20.909  0.00  0.00    +0.000 Cl
ENDBRANCH   6   7
BRANCH   4  16
ATOM     16  C   UNL     1       6.998   4.960  16.648  0.00  0.00    +0.000 C 
ATOM     17  N   UNL     1       7.956   4.286  17.349  0.00  0.00    +0.000 N 
ATOM     18  O   UNL     1       7.285   5.664  15.685  0.00  0.00    +0.000 OA
ATOM     19  H   UNL     1       7.689   3.790  18.191  0.00  0.00    +0.000 HD
ATOM     20  H   UNL     1       8.928   4.415  17.108  0.00  0.00    +0.000 HD
ENDBRANCH   4  16
TORSDOF 2
ENDMDL
MODEL 3
REMARK VINA RESULT:      -6.5      2.857      4.338
REMARK  Name = 
REMARK  3 active torsions:
REMARK  status: ('A' for Active; 'I' for Inactive)
REMARK    1  A    between atoms: C_1  and  C_2
REMARK    2  A    between atoms: C_4  and  C_5
REMARK    3  A    between atoms: N_9  and  C_10
REMARK                            x       y       z     vdW  Elec       q    Type
REMARK                         _______ _______ _______ _____ _____    ______ ____
ROOT
ATOM      1  C   UNL     1       7.342   4.681  17.701  0.00  0.00    +0.000 C 
ATOM      2  C   UNL     1       6.549   4.568  16.447  0.00  0.00    +0.000 A 
ATOM      3  C   UNL     1       7.056   4.473  15.165  0.00  0.00    +0.000 A 
ATOM      4  C   UNL     1       5.968   4.141  14.343  0.00  0.00    +0.000 A 
ATOM      5  N   UNL     1       4.826   4.111  15.048  0.00  0.00    +0.000 NA
ATOM      6  N   UNL     1       5.170   4.394  16.333  0.00  0.00    +0.000 N 
ENDROOT
BRANCH   6   7
ATOM      7  C   UNL     1       4.151   4.437  17.333  0.00  0.00    +0.000 A 
ATOM      8  C   UNL     1       3.726   5.672  17.872  0.00  0.00    +0.000 A 
ATOM      9 CL   UNL     1       4.277   7.229  17.334  0.00  0.00    +0.000 Cl
ATOM     10  C   UNL     1       2.733   5.722  18.862  0.00  0.00    +0.000 A 
ATOM     11  C   UNL     1       2.126   4.555  19.303  0.00  0.00    +0.000 A 
ATOM     12 CL   UNL     1       0.899   4.620  20.503  0.00  0.00    +0.000 Cl
ATOM     13  C   UNL     1       2.539   3.329  18.798  0.00  0.00    +0.000 A 
ATOM     14  C   UNL     1       3.574   3.262  17.855  0.00  0.00    +0.000 A 
ATOM     15 CL   UNL     1       4.213   1.673  17.610  0.00  0.00    +0.000 Cl
ENDBRANCH   6   7
BRANCH   4  16
ATOM     16  C   UNL     1       6.026   3.811  12.911  0.00  0.00    +0.000 C 
ATOM     17  N   UNL     1       7.197   4.148  12.295  0.00  0.00    +0.000 N 
ATOM     18  O   UNL     1       5.096   3.306  12.290  0.00  0.00    +0.000 OA
ATOM     19  H   UNL     1       7.903   4.646  12.824  0.00  0.00    +0.000 HD
ATOM     20  H   UNL     1       7.279   4.033  11.295  0.00  0.00    +0.000 HD
ENDBRANCH   4  16
TORSDOF 2
ENDMDL
MODEL 4
REMARK VINA RESULT:      -6.5      2.689      3.764
REMARK  Name = 
REMARK  3 active torsions:
REMARK  status: ('A' for Active; 'I' for Inactive)
REMARK    1  A    between atoms: C_1  and  C_2
REMARK    2  A    between atoms: C_4  and  C_5
REMARK    3  A    between atoms: N_9  and  C_10
REMARK                            x       y       z     vdW  Elec       q    Type
REMARK                         _______ _______ _______ _____ _____    ______ ____
ROOT
ATOM      1  C   UNL     1       7.369   4.922  18.080  0.00  0.00    +0.000 C 
ATOM      2  C   UNL     1       6.654   4.766  16.785  0.00  0.00    +0.000 A 
ATOM      3  C   UNL     1       7.236   4.691  15.534  0.00  0.00    +0.000 A 
ATOM      4  C   UNL     1       6.214   4.305  14.654  0.00  0.00    +0.000 A 
ATOM      5  N   UNL     1       5.036   4.223  15.294  0.00  0.00    +0.000 NA
ATOM      6  N   UNL     1       5.294   4.527  16.594  0.00  0.00    +0.000 N 
ENDROOT
BRANCH   6   7
ATOM      7  C   UNL     1       4.219   4.525  17.536  0.00  0.00    +0.000 A 
ATOM      8  C   UNL     1       3.635   3.309  17.956  0.00  0.00    +0.000 A 
ATOM      9 CL   UNL     1       4.195   1.731  17.495  0.00  0.00    +0.000 Cl
ATOM     10  C   UNL     1       2.573   3.299  18.873  0.00  0.00    +0.000 A 
ATOM     11  C   UNL     1       2.102   4.488  19.409  0.00  0.00    +0.000 A 
ATOM     12 CL   UNL     1       0.813   4.472  20.544  0.00  0.00    +0.000 Cl
ATOM     13  C   UNL     1       2.651   5.696  18.999  0.00  0.00    +0.000 A 
ATOM     14  C   UNL     1       3.670   5.723  18.037  0.00  0.00    +0.000 A 
ATOM     15 CL   UNL     1       3.980   7.288  17.370  0.00  0.00    +0.000 Cl
ENDBRANCH   6   7
BRANCH   4  16
ATOM     16  C   UNL     1       6.367   3.973  13.230  0.00  0.00    +0.000 C 
ATOM     17  N   UNL     1       7.390   4.622  12.600  0.00  0.00    +0.000 N 
ATOM     18  O   UNL     1       5.627   3.204  12.625  0.00  0.00    +0.000 OA
ATOM     19  H   UNL     1       7.919   5.317  13.113  0.00  0.00    +0.000 HD
ATOM     20  H   UNL     1       7.503   4.513  11.602  0.00  0.00    +0.000 HD
ENDBRANCH   4  16
TORSDOF 2
ENDMDL
MODEL 5
REMARK VINA RESULT:      -6.4      3.312      5.789
REMARK  Name = 
REMARK  3 active torsions:
REMARK  status: ('A' for Active; 'I' for Inactive)
REMARK    1  A    between atoms: C_1  and  C_2
REMARK    2  A    between atoms: C_4  and  C_5
REMARK    3  A    between atoms: N_9  and  C_10
REMARK                            x       y       z     vdW  Elec       q    Type
REMARK                         _______ _______ _______ _____ _____    ______ ____
ROOT
ATOM      1  C   UNL     1       2.653   6.961  18.899  0.00  0.00    +0.000 C 
ATOM      2  C   UNL     1       2.990   5.645  19.506  0.00  0.00    +0.000 A 
ATOM      3  C   UNL     1       2.405   5.089  20.628  0.00  0.00    +0.000 A 
ATOM      4  C   UNL     1       2.855   3.761  20.679  0.00  0.00    +0.000 A 
ATOM      5  N   UNL     1       3.739   3.515  19.698  0.00  0.00    +0.000 NA
ATOM      6  N   UNL     1       3.843   4.671  18.989  0.00  0.00    +0.000 N 
ENDROOT
BRANCH   6   7
ATOM      7  C   UNL     1       4.724   4.721  17.866  0.00  0.00    +0.000 A 
ATOM      8  C   UNL     1       4.338   4.165  16.625  0.00  0.00    +0.000 A 
ATOM      9 CL   UNL     1       2.776   3.484  16.290  0.00  0.00    +0.000 Cl
ATOM     10  C   UNL     1       5.201   4.201  15.521  0.00  0.00    +0.000 A 
ATOM     11  C   UNL     1       6.439   4.819  15.620  0.00  0.00    +0.000 A 
ATOM     12 CL   UNL     1       7.487   4.877  14.260  0.00  0.00    +0.000 Cl
ATOM     13  C   UNL     1       6.845   5.359  16.833  0.00  0.00    +0.000 A 
ATOM     14  C   UNL     1       6.018   5.273  17.962  0.00  0.00    +0.000 A 
ATOM     15 CL   UNL     1       6.806   5.651  19.454  0.00  0.00    +0.000 Cl
ENDBRANCH   6   7
BRANCH   4  16
ATOM     16  C   UNL     1       2.413   2.727  21.626  0.00  0.00    +0.000 C 
ATOM     17  N   UNL     1       1.075   2.737  21.899  0.00  0.00    +0.000 N 
ATOM     18  O   UNL     1       3.172   1.929  22.168  0.00  0.00    +0.000 OA
ATOM     19  H   UNL     1       0.500   3.470  21.501  0.00  0.00    +0.000 HD
ATOM     20  H   UNL     1       0.710   2.115  22.605  0.00  0.00    +0.000 HD
ENDBRANCH   4  16
TORSDOF 2
ENDMDL
MODEL 6
REMARK VINA RESULT:      -6.2      2.347      3.511
REMARK  Name = 
REMARK  3 active torsions:
REMARK  status: ('A' for Active; 'I' for Inactive)
REMARK    1  A    between atoms: C_1  and  C_2
REMARK    2  A    between atoms: C_4  and  C_5
REMARK    3  A    between atoms: N_9  and  C_10
REMARK                            x       y       z     vdW  Elec       q    Type
REMARK                         _______ _______ _______ _____ _____    ______ ____
ROOT
ATOM      1  C   UNL     1       7.259   5.145  18.898  0.00  0.00    +0.000 C 
ATOM      2  C   UNL     1       6.724   5.088  17.511  0.00  0.00    +0.000 A 
ATOM      3  C   UNL     1       7.465   5.154  16.346  0.00  0.00    +0.000 A 
ATOM      4  C   UNL     1       6.583   4.816  15.308  0.00  0.00    +0.000 A 
ATOM      5  N   UNL     1       5.338   4.630  15.777  0.00  0.00    +0.000 NA
ATOM      6  N   UNL     1       5.413   4.817  17.122  0.00  0.00    +0.000 N 
ENDROOT
BRANCH   6   7
ATOM      7  C   UNL     1       4.228   4.685  17.909  0.00  0.00    +0.000 A 
ATOM      8  C   UNL     1       3.711   3.408  18.220  0.00  0.00    +0.000 A 
ATOM      9 CL   UNL     1       4.473   1.903  17.803  0.00  0.00    +0.000 Cl
ATOM     10  C   UNL     1       2.543   3.270  18.984  0.00  0.00    +0.000 A 
ATOM     11  C   UNL     1       1.895   4.392  19.479  0.00  0.00    +0.000 A 
ATOM     12 CL   UNL     1       0.474   4.220  20.429  0.00  0.00    +0.000 Cl
ATOM     13  C   UNL     1       2.377   5.659  19.174  0.00  0.00    +0.000 A 
ATOM     14  C   UNL     1       3.507   5.811  18.358  0.00  0.00    +0.000 A 
ATOM     15 CL   UNL     1       3.754   7.420  17.775  0.00  0.00    +0.000 Cl
ENDBRANCH   6   7
BRANCH   4  16
ATOM     16  C   UNL     1       6.933   4.628  13.892  0.00  0.00    +0.000 C 
ATOM     17  N   UNL     1       6.323   3.566  13.289  0.00  0.00    +0.000 N 
ATOM     18  O   UNL     1       7.736   5.334  13.289  0.00  0.00    +0.000 OA
ATOM     19  H   UNL     1       5.739   2.956  13.848  0.00  0.00    +0.000 HD
ATOM     20  H   UNL     1       6.579   3.321  12.344  0.00  0.00    +0.000 HD
ENDBRANCH   4  16
TORSDOF 2
ENDMDL
MODEL 7
REMARK VINA RESULT:      -6.2      2.590      4.113
REMARK  Name = 
REMARK  3 active torsions:
REMARK  status: ('A' for Active; 'I' for Inactive)
REMARK    1  A    between atoms: C_1  and  C_2
REMARK    2  A    between atoms: C_4  and  C_5
REMARK    3  A    between atoms: N_9  and  C_10
REMARK                            x       y       z     vdW  Elec       q    Type
REMARK                         _______ _______ _______ _____ _____    ______ ____
ROOT
ATOM      1  C   UNL     1       6.761   5.075  18.903  0.00  0.00    +0.000 C 
ATOM      2  C   UNL     1       6.324   4.951  17.487  0.00  0.00    +0.000 A 
ATOM      3  C   UNL     1       7.116   5.126  16.369  0.00  0.00    +0.000 A 
ATOM      4  C   UNL     1       6.355   4.674  15.281  0.00  0.00    +0.000 A 
ATOM      5  N   UNL     1       5.122   4.314  15.674  0.00  0.00    +0.000 NA
ATOM      6  N   UNL     1       5.088   4.503  17.020  0.00  0.00    +0.000 N 
ENDROOT
BRANCH   6   7
ATOM      7  C   UNL     1       3.889   4.203  17.735  0.00  0.00    +0.000 A 
ATOM      8  C   UNL     1       3.099   5.240  18.280  0.00  0.00    +0.000 A 
ATOM      9 CL   UNL     1       3.407   6.936  18.063  0.00  0.00    +0.000 Cl
ATOM     10  C   UNL     1       1.925   4.953  18.992  0.00  0.00    +0.000 A 
ATOM     11  C   UNL     1       1.501   3.641  19.142  0.00  0.00    +0.000 A 
ATOM     12 CL   UNL     1       0.054   3.293  20.000  0.00  0.00    +0.000 Cl
ATOM     13  C   UNL     1       2.269   2.604  18.628  0.00  0.00    +0.000 A 
ATOM     14  C   UNL     1       3.477   2.875  17.969  0.00  0.00    +0.000 A 
ATOM     15 CL   UNL     1       4.481   1.488  17.724  0.00  0.00    +0.000 Cl
ENDBRANCH   6   7
BRANCH   4  16
ATOM     16  C   UNL     1       6.813   4.544  13.889  0.00  0.00    +0.000 C 
ATOM     17  N   UNL     1       6.314   3.463  13.223  0.00  0.00    +0.000 N 
ATOM     18  O   UNL     1       7.609   5.314  13.359  0.00  0.00    +0.000 OA
ATOM     19  H   UNL     1       5.732   2.803  13.725  0.00  0.00    +0.000 HD
ATOM     20  H   UNL     1       6.650   3.258  12.293  0.00  0.00    +0.000 HD
ENDBRANCH   4  16
TORSDOF 2
ENDMDL
MODEL 8
REMARK VINA RESULT:      -6.2      2.963      3.845
REMARK  Name = 
REMARK  3 active torsions:
REMARK  status: ('A' for Active; 'I' for Inactive)
REMARK    1  A    between atoms: C_1  and  C_2
REMARK    2  A    between atoms: C_4  and  C_5
REMARK    3  A    between atoms: N_9  and  C_10
REMARK                            x       y       z     vdW  Elec       q    Type
REMARK                         _______ _______ _______ _____ _____    ______ ____
ROOT
ATOM      1  C   UNL     1       3.840   7.478  17.620  0.00  0.00    +0.000 C 
ATOM      2  C   UNL     1       4.324   6.306  16.843  0.00  0.00    +0.000 A 
ATOM      3  C   UNL     1       5.051   6.347  15.669  0.00  0.00    +0.000 A 
ATOM      4  C   UNL     1       5.489   5.034  15.439  0.00  0.00    +0.000 A 
ATOM      5  N   UNL     1       4.998   4.195  16.365  0.00  0.00    +0.000 NA
ATOM      6  N   UNL     1       4.264   4.963  17.215  0.00  0.00    +0.000 N 
ENDROOT
BRANCH   6   7
ATOM      7  C   UNL     1       3.606   4.343  18.321  0.00  0.00    +0.000 A 
ATOM      8  C   UNL     1       2.197   4.248  18.356  0.00  0.00    +0.000 A 
ATOM      9 CL   UNL     1       1.139   4.744  17.071  0.00  0.00    +0.000 Cl
ATOM     10  C   UNL     1       1.543   3.650  19.443  0.00  0.00    +0.000 A 
ATOM     11  C   UNL     1       2.276   3.108  20.489  0.00  0.00    +0.000 A 
ATOM     12 CL   UNL     1       1.473   2.360  21.811  0.00  0.00    +0.000 Cl
ATOM     13  C   UNL     1       3.661   3.203  20.482  0.00  0.00    +0.000 A 
ATOM     14  C   UNL     1       4.323   3.855  19.432  0.00  0.00    +0.000 A 
ATOM     15 CL   UNL     1       5.985   4.212  19.750  0.00  0.00    +0.000 Cl
ENDBRANCH   6   7
BRANCH   4  16
ATOM     16  C   UNL     1       6.402   4.594  14.374  0.00  0.00    +0.000 C 
ATOM     17  N   UNL     1       7.555   5.318  14.275  0.00  0.00    +0.000 N 
ATOM     18  O   UNL     1       6.154   3.674  13.600  0.00  0.00    +0.000 OA
ATOM     19  H   UNL     1       7.678   6.126  14.874  0.00  0.00    +0.000 HD
ATOM     20  H   UNL     1       8.191   5.132  13.513  0.00  0.00    +0.000 HD
ENDBRANCH   4  16
TORSDOF 2
ENDMDL
MODEL 9
REMARK VINA RESULT:      -6.0      2.584      3.714
REMARK  Name = 
REMARK  3 active torsions:
REMARK  status: ('A' for Active; 'I' for Inactive)
REMARK    1  A    between atoms: C_1  and  C_2
REMARK    2  A    between atoms: C_4  and  C_5
REMARK    3  A    between atoms: N_9  and  C_10
REMARK                            x       y       z     vdW  Elec       q    Type
REMARK                         _______ _______ _______ _____ _____    ______ ____
ROOT
ATOM      1  C   UNL     1       6.913   5.465  19.195  0.00  0.00    +0.000 C 
ATOM      2  C   UNL     1       6.235   5.167  17.905  0.00  0.00    +0.000 A 
ATOM      3  C   UNL     1       6.758   5.366  16.641  0.00  0.00    +0.000 A 
ATOM      4  C   UNL     1       5.881   4.722  15.755  0.00  0.00    +0.000 A 
ATOM      5  N   UNL     1       4.822   4.219  16.408  0.00  0.00    +0.000 NA
ATOM      6  N   UNL     1       5.020   4.508  17.722  0.00  0.00    +0.000 N 
ENDROOT
BRANCH   6   7
ATOM      7  C   UNL     1       4.044   4.095  18.680  0.00  0.00    +0.000 A 
ATOM      8  C   UNL     1       3.691   2.732  18.804  0.00  0.00    +0.000 A 
ATOM      9 CL   UNL     1       4.442   1.432  17.930  0.00  0.00    +0.000 Cl
ATOM     10  C   UNL     1       2.727   2.320  19.735  0.00  0.00    +0.000 A 
ATOM     11  C   UNL     1       2.128   3.245  20.578  0.00  0.00    +0.000 A 
ATOM     12 CL   UNL     1       0.960   2.735  21.730  0.00  0.00    +0.000 Cl
ATOM     13  C   UNL     1       2.449   4.592  20.464  0.00  0.00    +0.000 A 
ATOM     14  C   UNL     1       3.364   5.024  19.494  0.00  0.00    +0.000 A 
ATOM     15 CL   UNL     1       3.374   6.734  19.234  0.00  0.00    +0.000 Cl
ENDBRANCH   6   7
BRANCH   4  16
ATOM     16  C   UNL     1       6.076   4.550  14.307  0.00  0.00    +0.000 C 
ATOM     17  N   UNL     1       7.204   5.136  13.810  0.00  0.00    +0.000 N 
ATOM     18  O   UNL     1       5.284   3.961  13.578  0.00  0.00    +0.000 OA
ATOM     19  H   UNL     1       7.783   5.690  14.430  0.00  0.00    +0.000 HD
ATOM     20  H   UNL     1       7.361   5.136  12.812  0.00  0.00    +0.000 HD
ENDBRANCH   4  16
TORSDOF 2
ENDMDL
