MODEL 1
REMARK VINA RESULT:      -6.9      0.000      0.000
REMARK  Name = 
REMARK  16 active torsions:
REMARK  status: ('A' for Active; 'I' for Inactive)
REMARK    1  A    between atoms: C_1  and  C_2
REMARK    2  A    between atoms: C_2  and  N_3
REMARK    3  A    between atoms: N_3  and  C_4
REMARK    4  A    between atoms: C_4  and  C_5
REMARK    5  A    between atoms: C_6  and  C_8
REMARK    6  A    between atoms: C_8  and  C_9
REMARK    7  A    between atoms: C_8  and  C_10
REMARK    8  A    between atoms: C_13  and  C_14
REMARK    9  A    between atoms: C_14  and  C_15
REMARK   10  A    between atoms: C_15  and  C_16
REMARK   11  A    between atoms: C_15  and  N_17
REMARK   12  A    between atoms: C_19  and  C_20
REMARK   13  A    between atoms: C_21  and  C_22
REMARK   14  A    between atoms: C_22  and  N_23
REMARK   15  A    between atoms: N_23  and  C_24
REMARK   16  A    between atoms: N_23  and  C_25
REMARK                            x       y       z     vdW  Elec       q    Type
REMARK                         _______ _______ _______ _____ _____    ______ ____
ROOT
ATOM      1  C   UNL     1       3.358   4.125  20.546  0.00  0.00    +0.000 C 
ATOM      2  C   UNL     1       3.469   2.619  20.328  0.00  0.00    +0.000 C 
ATOM      3  C   UNL     1       3.952   2.500  18.903  0.00  0.00    +0.000 C 
ATOM      4  C   UNL     1       4.834   3.731  18.744  0.00  0.00    +0.000 C 
ATOM      5  O   UNL     1       4.214   4.740  19.551  0.00  0.00    +0.000 OA
ENDROOT
BRANCH   1   6
ATOM      6  C   UNL     1       1.933   4.701  20.388  0.00  0.00    +0.000 C 
ATOM      7  C   UNL     1       0.911   3.562  20.306  0.00  0.00    +0.000 C 
BRANCH   6   9
ATOM      8  N   UNL     1       2.017   6.907  19.164  0.00  0.00    +0.000 N 
ATOM      9  C   UNL     1       1.843   5.526  19.104  0.00  0.00    +0.000 C 
ATOM     10  O   UNL     1       1.627   4.951  18.032  0.00  0.00    +0.000 OA
BRANCH   8  12
ATOM     11  C   UNL     1       2.561   9.083  18.049  0.00  0.00    +0.000 C 
ATOM     12  C   UNL     1       2.096   7.644  17.895  0.00  0.00    +0.000 C 
ENDBRANCH   8  12
BRANCH   8  13
ATOM     13  C   UNL     1       2.072   7.709  20.391  0.00  0.00    +0.000 C 
ATOM     14  C   UNL     1       0.699   8.136  20.891  0.00  0.00    +0.000 C 
ENDBRANCH   8  13
ENDBRANCH   6   9
ENDBRANCH   1   6
BRANCH   4  15
ATOM     15  C   UNL     1       4.931   4.184  17.283  0.00  0.00    +0.000 C 
BRANCH  15  16
ATOM     16  C   UNL     1       6.334   4.519  16.727  0.00  0.00    +0.000 C 
ATOM     17  C   UNL     1       6.588   4.049  15.293  0.00  0.00    +0.000 C 
BRANCH  16  18
ATOM     18  N   UNL     1       6.705   5.912  16.930  0.00  0.00    +0.000 N 
ATOM     19  C   UNL     1       7.681   6.432  17.725  0.00  0.00    +0.000 A 
ATOM     20  C   UNL     1       7.524   7.787  17.596  0.00  0.00    +0.000 A 
ATOM     21  N   UNL     1       6.485   8.055  16.748  0.00  0.00    +0.000 NA
ATOM     22  N   UNL     1       5.988   6.893  16.337  0.00  0.00    +0.000 NA
BRANCH  20  23
ATOM     23  C   UNL     1       8.275   8.805  18.233  0.00  0.00    +0.000 C 
ATOM     24  C   UNL     1       8.863   9.668  18.819  0.00  0.00    +0.000 C 
BRANCH  24  25
ATOM     25  C   UNL     1       9.519  10.738  19.593  0.00  0.00    +0.000 C 
BRANCH  25  26
ATOM     26  N   UNL     1      10.835  11.114  19.052  0.00  0.00    +0.000 NA
ATOM     27  C   UNL     1      10.721  11.795  17.759  0.00  0.00    +0.000 C 
ATOM     28  C   UNL     1      11.532  11.990  20.000  0.00  0.00    +0.000 C 
ENDBRANCH  25  26
ENDBRANCH  24  25
ENDBRANCH  20  23
ENDBRANCH  16  18
ENDBRANCH  15  16
ENDBRANCH   4  15
TORSDOF 10
ENDMDL
MODEL 2
REMARK VINA RESULT:      -6.6      3.290      7.645
REMARK  Name = 
REMARK  16 active torsions:
REMARK  status: ('A' for Active; 'I' for Inactive)
REMARK    1  A    between atoms: C_1  and  C_2
REMARK    2  A    between atoms: C_2  and  N_3
REMARK    3  A    between atoms: N_3  and  C_4
REMARK    4  A    between atoms: C_4  and  C_5
REMARK    5  A    between atoms: C_6  and  C_8
REMARK    6  A    between atoms: C_8  and  C_9
REMARK    7  A    between atoms: C_8  and  C_10
REMARK    8  A    between atoms: C_13  and  C_14
REMARK    9  A    between atoms: C_14  and  C_15
REMARK   10  A    between atoms: C_15  and  C_16
REMARK   11  A    between atoms: C_15  and  N_17
REMARK   12  A    between atoms: C_19  and  C_20
REMARK   13  A    between atoms: C_21  and  C_22
REMARK   14  A    between atoms: C_22  and  N_23
REMARK   15  A    between atoms: N_23  and  C_24
REMARK   16  A    between atoms: N_23  and  C_25
REMARK                            x       y       z     vdW  Elec       q    Type
REMARK                         _______ _______ _______ _____ _____    ______ ____
ROOT
ATOM      1  C   UNL     1       2.103   3.089  17.957  0.00  0.00    +0.000 C 
ATOM      2  C   UNL     1       1.321   2.514  19.133  0.00  0.00    +0.000 C 
ATOM      3  C   UNL     1       1.437   3.581  20.194  0.00  0.00    +0.000 C 
ATOM      4  C   UNL     1       1.462   4.865  19.377  0.00  0.00    +0.000 C 
ATOM      5  O   UNL     1       2.149   4.523  18.167  0.00  0.00    +0.000 OA
ENDROOT
BRANCH   1   6
ATOM      6  C   UNL     1       3.552   2.569  17.821  0.00  0.00    +0.000 C 
ATOM      7  C   UNL     1       3.697   1.227  18.547  0.00  0.00    +0.000 C 
BRANCH   6   9
ATOM      8  N   UNL     1       5.100   4.554  17.649  0.00  0.00    +0.000 N 
ATOM      9  C   UNL     1       4.526   3.567  18.446  0.00  0.00    +0.000 C 
ATOM     10  O   UNL     1       4.780   3.486  19.652  0.00  0.00    +0.000 OA
BRANCH   8  12
ATOM     11  C   UNL     1       6.323   6.724  17.389  0.00  0.00    +0.000 C 
ATOM     12  C   UNL     1       5.894   5.598  18.314  0.00  0.00    +0.000 C 
ENDBRANCH   8  12
BRANCH   8  13
ATOM     13  C   UNL     1       5.033   4.616  16.185  0.00  0.00    +0.000 C 
ATOM     14  C   UNL     1       6.069   3.737  15.499  0.00  0.00    +0.000 C 
ENDBRANCH   8  13
ENDBRANCH   6   9
ENDBRANCH   1   6
BRANCH   4  15
ATOM     15  C   UNL     1       2.183   6.000  20.112  0.00  0.00    +0.000 C 
BRANCH  15  16
ATOM     16  C   UNL     1       2.525   7.274  19.307  0.00  0.00    +0.000 C 
ATOM     17  C   UNL     1       2.612   7.076  17.792  0.00  0.00    +0.000 C 
BRANCH  16  18
ATOM     18  N   UNL     1       1.695   8.414  19.672  0.00  0.00    +0.000 N 
ATOM     19  C   UNL     1       1.163   8.733  20.885  0.00  0.00    +0.000 A 
ATOM     20  C   UNL     1       0.409   9.848  20.630  0.00  0.00    +0.000 A 
ATOM     21  N   UNL     1       0.497  10.175  19.305  0.00  0.00    +0.000 NA
ATOM     22  N   UNL     1       1.296   9.288  18.722  0.00  0.00    +0.000 NA
BRANCH  20  23
ATOM     23  C   UNL     1      -0.380  10.583  21.549  0.00  0.00    +0.000 C 
ATOM     24  C   UNL     1      -1.021  11.166  22.374  0.00  0.00    +0.000 C 
BRANCH  24  25
ATOM     25  C   UNL     1      -1.785  11.826  23.450  0.00  0.00    +0.000 C 
BRANCH  25  26
ATOM     26  N   UNL     1      -3.220  11.945  23.146  0.00  0.00    +0.000 NA
ATOM     27  C   UNL     1      -3.972  12.516  24.266  0.00  0.00    +0.000 C 
ATOM     28  C   UNL     1      -3.410  12.783  21.958  0.00  0.00    +0.000 C 
ENDBRANCH  25  26
ENDBRANCH  24  25
ENDBRANCH  20  23
ENDBRANCH  16  18
ENDBRANCH  15  16
ENDBRANCH   4  15
TORSDOF 10
ENDMDL
MODEL 3
REMARK VINA RESULT:      -6.6      3.319      7.931
REMARK  Name = 
REMARK  16 active torsions:
REMARK  status: ('A' for Active; 'I' for Inactive)
REMARK    1  A    between atoms: C_1  and  C_2
REMARK    2  A    between atoms: C_2  and  N_3
REMARK    3  A    between atoms: N_3  and  C_4
REMARK    4  A    between atoms: C_4  and  C_5
REMARK    5  A    between atoms: C_6  and  C_8
REMARK    6  A    between atoms: C_8  and  C_9
REMARK    7  A    between atoms: C_8  and  C_10
REMARK    8  A    between atoms: C_13  and  C_14
REMARK    9  A    between atoms: C_14  and  C_15
REMARK   10  A    between atoms: C_15  and  C_16
REMARK   11  A    between atoms: C_15  and  N_17
REMARK   12  A    between atoms: C_19  and  C_20
REMARK   13  A    between atoms: C_21  and  C_22
REMARK   14  A    between atoms: C_22  and  N_23
REMARK   15  A    between atoms: N_23  and  C_24
REMARK   16  A    between atoms: N_23  and  C_25
REMARK                            x       y       z     vdW  Elec       q    Type
REMARK                         _______ _______ _______ _____ _____    ______ ____
ROOT
ATOM      1  C   UNL     1       2.478   3.597  17.490  0.00  0.00    +0.000 C 
ATOM      2  C   UNL     1       1.342   3.281  18.458  0.00  0.00    +0.000 C 
ATOM      3  C   UNL     1       1.401   4.412  19.455  0.00  0.00    +0.000 C 
ATOM      4  C   UNL     1       1.863   5.587  18.604  0.00  0.00    +0.000 C 
ATOM      5  O   UNL     1       2.742   5.015  17.628  0.00  0.00    +0.000 OA
ENDROOT
BRANCH   1   6
ATOM      6  C   UNL     1       3.791   2.827  17.753  0.00  0.00    +0.000 C 
ATOM      7  C   UNL     1       3.488   1.495  18.450  0.00  0.00    +0.000 C 
BRANCH   6   9
ATOM      8  N   UNL     1       5.657   4.493  18.087  0.00  0.00    +0.000 N 
ATOM      9  C   UNL     1       4.706   3.651  18.659  0.00  0.00    +0.000 C 
ATOM     10  O   UNL     1       4.579   3.562  19.884  0.00  0.00    +0.000 OA
BRANCH   8  12
ATOM     11  C   UNL     1       7.881   5.495  18.655  0.00  0.00    +0.000 C 
ATOM     12  C   UNL     1       6.399   5.395  18.979  0.00  0.00    +0.000 C 
ENDBRANCH   8  12
BRANCH   8  13
ATOM     13  C   UNL     1       6.031   4.520  16.669  0.00  0.00    +0.000 C 
ATOM     14  C   UNL     1       5.501   5.742  15.932  0.00  0.00    +0.000 C 
ENDBRANCH   8  13
ENDBRANCH   6   9
ENDBRANCH   1   6
BRANCH   4  15
ATOM     15  C   UNL     1       2.588   6.650  19.436  0.00  0.00    +0.000 C 
BRANCH  15  16
ATOM     16  C   UNL     1       2.213   8.130  19.195  0.00  0.00    +0.000 C 
ATOM     17  C   UNL     1       1.705   8.445  17.786  0.00  0.00    +0.000 C 
BRANCH  16  18
ATOM     18  N   UNL     1       1.348   8.671  20.233  0.00  0.00    +0.000 N 
ATOM     19  C   UNL     1       0.635   9.832  20.236  0.00  0.00    +0.000 A 
ATOM     20  C   UNL     1       0.081   9.875  21.488  0.00  0.00    +0.000 A 
ATOM     21  N   UNL     1       0.457   8.769  22.200  0.00  0.00    +0.000 NA
ATOM     22  N   UNL     1       1.235   8.029  21.417  0.00  0.00    +0.000 NA
BRANCH  20  23
ATOM     23  C   UNL     1      -0.746  10.889  22.030  0.00  0.00    +0.000 C 
ATOM     24  C   UNL     1      -1.466  11.702  22.532  0.00  0.00    +0.000 C 
BRANCH  24  25
ATOM     25  C   UNL     1      -2.389  12.640  23.199  0.00  0.00    +0.000 C 
BRANCH  25  26
ATOM     26  N   UNL     1      -3.315  13.298  22.263  0.00  0.00    +0.000 NA
ATOM     27  C   UNL     1      -3.115  12.844  20.884  0.00  0.00    +0.000 C 
ATOM     28  C   UNL     1      -4.700  13.034  22.664  0.00  0.00    +0.000 C 
ENDBRANCH  25  26
ENDBRANCH  24  25
ENDBRANCH  20  23
ENDBRANCH  16  18
ENDBRANCH  15  16
ENDBRANCH   4  15
TORSDOF 10
ENDMDL
MODEL 4
REMARK VINA RESULT:      -6.5      1.011      1.235
REMARK  Name = 
REMARK  16 active torsions:
REMARK  status: ('A' for Active; 'I' for Inactive)
REMARK    1  A    between atoms: C_1  and  C_2
REMARK    2  A    between atoms: C_2  and  N_3
REMARK    3  A    between atoms: N_3  and  C_4
REMARK    4  A    between atoms: C_4  and  C_5
REMARK    5  A    between atoms: C_6  and  C_8
REMARK    6  A    between atoms: C_8  and  C_9
REMARK    7  A    between atoms: C_8  and  C_10
REMARK    8  A    between atoms: C_13  and  C_14
REMARK    9  A    between atoms: C_14  and  C_15
REMARK   10  A    between atoms: C_15  and  C_16
REMARK   11  A    between atoms: C_15  and  N_17
REMARK   12  A    between atoms: C_19  and  C_20
REMARK   13  A    between atoms: C_21  and  C_22
REMARK   14  A    between atoms: C_22  and  N_23
REMARK   15  A    between atoms: N_23  and  C_24
REMARK   16  A    between atoms: N_23  and  C_25
REMARK                            x       y       z     vdW  Elec       q    Type
REMARK                         _______ _______ _______ _____ _____    ______ ____
ROOT
ATOM      1  C   UNL     1       3.086   2.926  19.695  0.00  0.00    +0.000 C 
ATOM      2  C   UNL     1       3.137   2.037  18.455  0.00  0.00    +0.000 C 
ATOM      3  C   UNL     1       3.931   2.853  17.465  0.00  0.00    +0.000 C 
ATOM      4  C   UNL     1       4.912   3.601  18.357  0.00  0.00    +0.000 C 
ATOM      5  O   UNL     1       4.195   3.852  19.572  0.00  0.00    +0.000 OA
ENDROOT
BRANCH   1   6
ATOM      6  C   UNL     1       1.784   3.741  19.858  0.00  0.00    +0.000 C 
ATOM      7  C   UNL     1       0.567   2.826  19.682  0.00  0.00    +0.000 C 
BRANCH   6   9
ATOM      8  N   UNL     1       1.983   6.159  19.165  0.00  0.00    +0.000 N 
ATOM      9  C   UNL     1       1.721   4.841  18.799  0.00  0.00    +0.000 C 
ATOM     10  O   UNL     1       1.447   4.540  17.633  0.00  0.00    +0.000 OA
BRANCH   8  12
ATOM     11  C   UNL     1       3.505   7.616  17.811  0.00  0.00    +0.000 C 
ATOM     12  C   UNL     1       2.083   7.162  18.094  0.00  0.00    +0.000 C 
ENDBRANCH   8  12
BRANCH   8  13
ATOM     13  C   UNL     1       2.113   6.654  20.540  0.00  0.00    +0.000 C 
ATOM     14  C   UNL     1       1.317   7.926  20.798  0.00  0.00    +0.000 C 
ENDBRANCH   8  13
ENDBRANCH   6   9
ENDBRANCH   1   6
BRANCH   4  15
ATOM     15  C   UNL     1       5.383   4.913  17.720  0.00  0.00    +0.000 C 
BRANCH  15  16
ATOM     16  C   UNL     1       6.898   5.089  17.472  0.00  0.00    +0.000 C 
ATOM     17  C   UNL     1       7.424   4.429  16.195  0.00  0.00    +0.000 C 
BRANCH  16  18
ATOM     18  N   UNL     1       7.337   6.471  17.606  0.00  0.00    +0.000 N 
ATOM     19  C   UNL     1       8.110   7.034  18.575  0.00  0.00    +0.000 A 
ATOM     20  C   UNL     1       8.129   8.365  18.250  0.00  0.00    +0.000 A 
ATOM     21  N   UNL     1       7.388   8.576  17.120  0.00  0.00    +0.000 NA
ATOM     22  N   UNL     1       6.907   7.402  16.726  0.00  0.00    +0.000 NA
BRANCH  20  23
ATOM     23  C   UNL     1       8.779   9.413  18.946  0.00  0.00    +0.000 C 
ATOM     24  C   UNL     1       9.276  10.338  19.520  0.00  0.00    +0.000 C 
BRANCH  24  25
ATOM     25  C   UNL     1       9.825  11.529  20.196  0.00  0.00    +0.000 C 
BRANCH  25  26
ATOM     26  N   UNL     1      10.626  12.379  19.302  0.00  0.00    +0.000 NA
ATOM     27  C   UNL     1      11.036  13.626  19.953  0.00  0.00    +0.000 C 
ATOM     28  C   UNL     1      11.819  11.651  18.856  0.00  0.00    +0.000 C 
ENDBRANCH  25  26
ENDBRANCH  24  25
ENDBRANCH  20  23
ENDBRANCH  16  18
ENDBRANCH  15  16
ENDBRANCH   4  15
TORSDOF 10
ENDMDL
MODEL 5
REMARK VINA RESULT:      -6.5      1.453      3.330
REMARK  Name = 
REMARK  16 active torsions:
REMARK  status: ('A' for Active; 'I' for Inactive)
REMARK    1  A    between atoms: C_1  and  C_2
REMARK    2  A    between atoms: C_2  and  N_3
REMARK    3  A    between atoms: N_3  and  C_4
REMARK    4  A    between atoms: C_4  and  C_5
REMARK    5  A    between atoms: C_6  and  C_8
REMARK    6  A    between atoms: C_8  and  C_9
REMARK    7  A    between atoms: C_8  and  C_10
REMARK    8  A    between atoms: C_13  and  C_14
REMARK    9  A    between atoms: C_14  and  C_15
REMARK   10  A    between atoms: C_15  and  C_16
REMARK   11  A    between atoms: C_15  and  N_17
REMARK   12  A    between atoms: C_19  and  C_20
REMARK   13  A    between atoms: C_21  and  C_22
REMARK   14  A    between atoms: C_22  and  N_23
REMARK   15  A    between atoms: N_23  and  C_24
REMARK   16  A    between atoms: N_23  and  C_25
REMARK                            x       y       z     vdW  Elec       q    Type
REMARK                         _______ _______ _______ _____ _____    ______ ____
ROOT
ATOM      1  C   UNL     1       2.093   5.788  18.112  0.00  0.00    +0.000 C 
ATOM      2  C   UNL     1       2.800   7.094  17.759  0.00  0.00    +0.000 C 
ATOM      3  C   UNL     1       4.226   6.669  17.509  0.00  0.00    +0.000 C 
ATOM      4  C   UNL     1       4.063   5.278  16.913  0.00  0.00    +0.000 C 
ATOM      5  O   UNL     1       2.914   4.725  17.565  0.00  0.00    +0.000 OA
ENDROOT
BRANCH   1   6
ATOM      6  C   UNL     1       1.910   5.536  19.625  0.00  0.00    +0.000 C 
ATOM      7  C   UNL     1       2.051   6.853  20.398  0.00  0.00    +0.000 C 
BRANCH   6   9
ATOM      8  N   UNL     1       2.651   3.223  20.312  0.00  0.00    +0.000 N 
ATOM      9  C   UNL     1       2.979   4.563  20.125  0.00  0.00    +0.000 C 
ATOM     10  O   UNL     1       4.120   4.983  20.345  0.00  0.00    +0.000 OA
BRANCH   8  12
ATOM     11  C   UNL     1       4.366   1.642  19.401  0.00  0.00    +0.000 C 
ATOM     12  C   UNL     1       3.740   2.287  20.626  0.00  0.00    +0.000 C 
ENDBRANCH   8  12
BRANCH   8  13
ATOM     13  C   UNL     1       1.295   2.663  20.282  0.00  0.00    +0.000 C 
ATOM     14  C   UNL     1       0.848   2.245  18.888  0.00  0.00    +0.000 C 
ENDBRANCH   8  13
ENDBRANCH   6   9
ENDBRANCH   1   6
BRANCH   4  15
ATOM     15  C   UNL     1       5.298   4.402  17.149  0.00  0.00    +0.000 C 
BRANCH  15  16
ATOM     16  C   UNL     1       6.648   4.894  16.579  0.00  0.00    +0.000 C 
ATOM     17  C   UNL     1       6.646   5.186  15.076  0.00  0.00    +0.000 C 
BRANCH  16  18
ATOM     18  N   UNL     1       7.229   5.980  17.356  0.00  0.00    +0.000 N 
ATOM     19  C   UNL     1       7.431   7.278  16.998  0.00  0.00    +0.000 A 
ATOM     20  C   UNL     1       8.083   7.819  18.074  0.00  0.00    +0.000 A 
ATOM     21  N   UNL     1       8.258   6.865  19.038  0.00  0.00    +0.000 NA
ATOM     22  N   UNL     1       7.724   5.733  18.590  0.00  0.00    +0.000 NA
BRANCH  20  23
ATOM     23  C   UNL     1       8.549   9.149  18.220  0.00  0.00    +0.000 C 
ATOM     24  C   UNL     1       8.926  10.283  18.279  0.00  0.00    +0.000 C 
BRANCH  24  25
ATOM     25  C   UNL     1       9.380  11.686  18.266  0.00  0.00    +0.000 C 
BRANCH  25  26
ATOM     26  N   UNL     1      10.346  11.988  19.334  0.00  0.00    +0.000 NA
ATOM     27  C   UNL     1      11.706  11.577  18.975  0.00  0.00    +0.000 C 
ATOM     28  C   UNL     1      10.335  13.425  19.626  0.00  0.00    +0.000 C 
ENDBRANCH  25  26
ENDBRANCH  24  25
ENDBRANCH  20  23
ENDBRANCH  16  18
ENDBRANCH  15  16
ENDBRANCH   4  15
TORSDOF 10
ENDMDL
MODEL 6
REMARK VINA RESULT:      -6.5      3.385      7.484
REMARK  Name = 
REMARK  16 active torsions:
REMARK  status: ('A' for Active; 'I' for Inactive)
REMARK    1  A    between atoms: C_1  and  C_2
REMARK    2  A    between atoms: C_2  and  N_3
REMARK    3  A    between atoms: N_3  and  C_4
REMARK    4  A    between atoms: C_4  and  C_5
REMARK    5  A    between atoms: C_6  and  C_8
REMARK    6  A    between atoms: C_8  and  C_9
REMARK    7  A    between atoms: C_8  and  C_10
REMARK    8  A    between atoms: C_13  and  C_14
REMARK    9  A    between atoms: C_14  and  C_15
REMARK   10  A    between atoms: C_15  and  C_16
REMARK   11  A    between atoms: C_15  and  N_17
REMARK   12  A    between atoms: C_19  and  C_20
REMARK   13  A    between atoms: C_21  and  C_22
REMARK   14  A    between atoms: C_22  and  N_23
REMARK   15  A    between atoms: N_23  and  C_24
REMARK   16  A    between atoms: N_23  and  C_25
REMARK                            x       y       z     vdW  Elec       q    Type
REMARK                         _______ _______ _______ _____ _____    ______ ____
ROOT
ATOM      1  C   UNL     1       2.470   3.618  17.404  0.00  0.00    +0.000 C 
ATOM      2  C   UNL     1       1.438   3.201  18.447  0.00  0.00    +0.000 C 
ATOM      3  C   UNL     1       1.547   4.273  19.503  0.00  0.00    +0.000 C 
ATOM      4  C   UNL     1       1.889   5.513  18.689  0.00  0.00    +0.000 C 
ATOM      5  O   UNL     1       2.697   5.035  17.606  0.00  0.00    +0.000 OA
ENDROOT
BRANCH   1   6
ATOM      6  C   UNL     1       3.828   2.887  17.503  0.00  0.00    +0.000 C 
ATOM      7  C   UNL     1       3.762   1.801  18.583  0.00  0.00    +0.000 C 
BRANCH   6   9
ATOM      8  N   UNL     1       5.476   4.699  16.896  0.00  0.00    +0.000 N 
ATOM      9  C   UNL     1       4.928   3.879  17.879  0.00  0.00    +0.000 C 
ATOM     10  O   UNL     1       5.306   3.943  19.053  0.00  0.00    +0.000 OA
BRANCH   8  12
ATOM     11  C   UNL     1       5.817   7.156  17.245  0.00  0.00    +0.000 C 
ATOM     12  C   UNL     1       6.404   5.756  17.322  0.00  0.00    +0.000 C 
ENDBRANCH   8  12
BRANCH   8  13
ATOM     13  C   UNL     1       5.254   4.566  15.452  0.00  0.00    +0.000 C 
ATOM     14  C   UNL     1       6.304   3.708  14.759  0.00  0.00    +0.000 C 
ENDBRANCH   8  13
ENDBRANCH   6   9
ENDBRANCH   1   6
BRANCH   4  15
ATOM     15  C   UNL     1       2.649   6.554  19.518  0.00  0.00    +0.000 C 
BRANCH  15  16
ATOM     16  C   UNL     1       2.330   8.045  19.266  0.00  0.00    +0.000 C 
ATOM     17  C   UNL     1       1.926   8.385  17.829  0.00  0.00    +0.000 C 
BRANCH  16  18
ATOM     18  N   UNL     1       1.411   8.601  20.249  0.00  0.00    +0.000 N 
ATOM     19  C   UNL     1       0.893   9.858  20.323  0.00  0.00    +0.000 A 
ATOM     20  C   UNL     1       0.168   9.848  21.486  0.00  0.00    +0.000 A 
ATOM     21  N   UNL     1       0.256   8.618  22.077  0.00  0.00    +0.000 NA
ATOM     22  N   UNL     1       1.021   7.852  21.305  0.00  0.00    +0.000 NA
BRANCH  20  23
ATOM     23  C   UNL     1      -0.565  10.919  22.053  0.00  0.00    +0.000 C 
ATOM     24  C   UNL     1      -1.133  11.864  22.520  0.00  0.00    +0.000 C 
BRANCH  24  25
ATOM     25  C   UNL     1      -1.758  13.072  23.089  0.00  0.00    +0.000 C 
BRANCH  25  26
ATOM     26  N   UNL     1      -0.775  14.047  23.588  0.00  0.00    +0.000 NA
ATOM     27  C   UNL     1      -0.148  14.800  22.499  0.00  0.00    +0.000 C 
ATOM     28  C   UNL     1      -1.426  14.983  24.511  0.00  0.00    +0.000 C 
ENDBRANCH  25  26
ENDBRANCH  24  25
ENDBRANCH  20  23
ENDBRANCH  16  18
ENDBRANCH  15  16
ENDBRANCH   4  15
TORSDOF 10
ENDMDL
MODEL 7
REMARK VINA RESULT:      -6.4      3.823      8.662
REMARK  Name = 
REMARK  16 active torsions:
REMARK  status: ('A' for Active; 'I' for Inactive)
REMARK    1  A    between atoms: C_1  and  C_2
REMARK    2  A    between atoms: C_2  and  N_3
REMARK    3  A    between atoms: N_3  and  C_4
REMARK    4  A    between atoms: C_4  and  C_5
REMARK    5  A    between atoms: C_6  and  C_8
REMARK    6  A    between atoms: C_8  and  C_9
REMARK    7  A    between atoms: C_8  and  C_10
REMARK    8  A    between atoms: C_13  and  C_14
REMARK    9  A    between atoms: C_14  and  C_15
REMARK   10  A    between atoms: C_15  and  C_16
REMARK   11  A    between atoms: C_15  and  N_17
REMARK   12  A    between atoms: C_19  and  C_20
REMARK   13  A    between atoms: C_21  and  C_22
REMARK   14  A    between atoms: C_22  and  N_23
REMARK   15  A    between atoms: N_23  and  C_24
REMARK   16  A    between atoms: N_23  and  C_25
REMARK                            x       y       z     vdW  Elec       q    Type
REMARK                         _______ _______ _______ _____ _____    ______ ____
ROOT
ATOM      1  C   UNL     1       2.241   4.176  18.446  0.00  0.00    +0.000 C 
ATOM      2  C   UNL     1       1.259   3.683  19.504  0.00  0.00    +0.000 C 
ATOM      3  C   UNL     1       1.289   4.771  20.550  0.00  0.00    +0.000 C 
ATOM      4  C   UNL     1       1.517   6.027  19.723  0.00  0.00    +0.000 C 
ATOM      5  O   UNL     1       2.349   5.610  18.634  0.00  0.00    +0.000 OA
ENDROOT
BRANCH   1   6
ATOM      6  C   UNL     1       3.656   3.563  18.535  0.00  0.00    +0.000 C 
ATOM      7  C   UNL     1       3.741   2.610  19.733  0.00  0.00    +0.000 C 
BRANCH   6   9
ATOM      8  N   UNL     1       5.390   5.150  17.615  0.00  0.00    +0.000 N 
ATOM      9  C   UNL     1       4.694   4.671  18.722  0.00  0.00    +0.000 C 
ATOM     10  O   UNL     1       4.889   5.128  19.853  0.00  0.00    +0.000 OA
BRANCH   8  12
ATOM     11  C   UNL     1       7.675   5.986  18.212  0.00  0.00    +0.000 C 
ATOM     12  C   UNL     1       6.251   6.327  17.803  0.00  0.00    +0.000 C 
ENDBRANCH   8  12
BRANCH   8  13
ATOM     13  C   UNL     1       5.390   4.546  16.279  0.00  0.00    +0.000 C 
ATOM     14  C   UNL     1       5.408   5.573  15.155  0.00  0.00    +0.000 C 
ENDBRANCH   8  13
ENDBRANCH   6   9
ENDBRANCH   1   6
BRANCH   4  15
ATOM     15  C   UNL     1       2.195   7.136  20.534  0.00  0.00    +0.000 C 
BRANCH  15  16
ATOM     16  C   UNL     1       1.813   8.599  20.212  0.00  0.00    +0.000 C 
ATOM     17  C   UNL     1       1.223   8.819  18.817  0.00  0.00    +0.000 C 
BRANCH  16  18
ATOM     18  N   UNL     1       1.014   9.219  21.259  0.00  0.00    +0.000 N 
ATOM     19  C   UNL     1      -0.131   9.948  21.146  0.00  0.00    +0.000 A 
ATOM     20  C   UNL     1      -0.393  10.351  22.428  0.00  0.00    +0.000 A 
ATOM     21  N   UNL     1       0.570   9.871  23.272  0.00  0.00    +0.000 NA
ATOM     22  N   UNL     1       1.432   9.169  22.544  0.00  0.00    +0.000 NA
BRANCH  20  23
ATOM     23  C   UNL     1      -1.468  11.158  22.874  0.00  0.00    +0.000 C 
ATOM     24  C   UNL     1      -2.353  11.890  23.214  0.00  0.00    +0.000 C 
BRANCH  24  25
ATOM     25  C   UNL     1      -3.401  12.857  23.591  0.00  0.00    +0.000 C 
BRANCH  25  26
ATOM     26  N   UNL     1      -4.740  12.464  23.124  0.00  0.00    +0.000 NA
ATOM     27  C   UNL     1      -5.767  12.702  24.141  0.00  0.00    +0.000 C 
ATOM     28  C   UNL     1      -5.081  13.208  21.907  0.00  0.00    +0.000 C 
ENDBRANCH  25  26
ENDBRANCH  24  25
ENDBRANCH  20  23
ENDBRANCH  16  18
ENDBRANCH  15  16
ENDBRANCH   4  15
TORSDOF 10
ENDMDL
MODEL 8
REMARK VINA RESULT:      -6.4      1.831      2.626
REMARK  Name = 
REMARK  16 active torsions:
REMARK  status: ('A' for Active; 'I' for Inactive)
REMARK    1  A    between atoms: C_1  and  C_2
REMARK    2  A    between atoms: C_2  and  N_3
REMARK    3  A    between atoms: N_3  and  C_4
REMARK    4  A    between atoms: C_4  and  C_5
REMARK    5  A    between atoms: C_6  and  C_8
REMARK    6  A    between atoms: C_8  and  C_9
REMARK    7  A    between atoms: C_8  and  C_10
REMARK    8  A    between atoms: C_13  and  C_14
REMARK    9  A    between atoms: C_14  and  C_15
REMARK   10  A    between atoms: C_15  and  C_16
REMARK   11  A    between atoms: C_15  and  N_17
REMARK   12  A    between atoms: C_19  and  C_20
REMARK   13  A    between atoms: C_21  and  C_22
REMARK   14  A    between atoms: C_22  and  N_23
REMARK   15  A    between atoms: N_23  and  C_24
REMARK   16  A    between atoms: N_23  and  C_25
REMARK                            x       y       z     vdW  Elec       q    Type
REMARK                         _______ _______ _______ _____ _____    ______ ____
ROOT
ATOM      1  C   UNL     1       2.671   6.277  19.700  0.00  0.00    +0.000 C 
ATOM      2  C   UNL     1       1.926   4.945  19.691  0.00  0.00    +0.000 C 
ATOM      3  C   UNL     1       2.549   4.197  18.537  0.00  0.00    +0.000 C 
ATOM      4  C   UNL     1       3.991   4.682  18.562  0.00  0.00    +0.000 C 
ATOM      5  O   UNL     1       3.919   6.045  18.999  0.00  0.00    +0.000 OA
ENDROOT
BRANCH   1   6
ATOM      6  C   UNL     1       1.930   7.441  19.005  0.00  0.00    +0.000 C 
ATOM      7  C   UNL     1       2.863   8.134  18.006  0.00  0.00    +0.000 C 
BRANCH   6   9
ATOM      8  N   UNL     1       0.757   9.585  19.636  0.00  0.00    +0.000 N 
ATOM      9  C   UNL     1       1.483   8.469  20.045  0.00  0.00    +0.000 C 
ATOM     10  O   UNL     1       1.767   8.287  21.233  0.00  0.00    +0.000 OA
BRANCH   8  12
ATOM     11  C   UNL     1       0.635  11.910  20.559  0.00  0.00    +0.000 C 
ATOM     12  C   UNL     1       0.198  10.459  20.677  0.00  0.00    +0.000 C 
ENDBRANCH   8  12
BRANCH   8  13
ATOM     13  C   UNL     1       0.546  10.004  18.246  0.00  0.00    +0.000 C 
ATOM     14  C   UNL     1      -0.908   9.916  17.806  0.00  0.00    +0.000 C 
ENDBRANCH   8  13
ENDBRANCH   6   9
ENDBRANCH   1   6
BRANCH   4  15
ATOM     15  C   UNL     1       4.655   4.585  17.184  0.00  0.00    +0.000 C 
BRANCH  15  16
ATOM     16  C   UNL     1       6.193   4.717  17.117  0.00  0.00    +0.000 C 
ATOM     17  C   UNL     1       6.857   3.948  15.972  0.00  0.00    +0.000 C 
BRANCH  16  18
ATOM     18  N   UNL     1       6.647   6.098  17.197  0.00  0.00    +0.000 N 
ATOM     19  C   UNL     1       7.623   6.635  17.980  0.00  0.00    +0.000 A 
ATOM     20  C   UNL     1       7.561   7.977  17.710  0.00  0.00    +0.000 A 
ATOM     21  N   UNL     1       6.577   8.221  16.792  0.00  0.00    +0.000 NA
ATOM     22  N   UNL     1       6.021   7.055  16.477  0.00  0.00    +0.000 NA
BRANCH  20  23
ATOM     23  C   UNL     1       8.352   9.007  18.275  0.00  0.00    +0.000 C 
ATOM     24  C   UNL     1       9.062   9.831  18.776  0.00  0.00    +0.000 C 
BRANCH  24  25
ATOM     25  C   UNL     1       9.981  10.781  19.430  0.00  0.00    +0.000 C 
BRANCH  25  26
ATOM     26  N   UNL     1       9.283  11.902  20.079  0.00  0.00    +0.000 NA
ATOM     27  C   UNL     1       9.080  11.665  21.511  0.00  0.00    +0.000 C 
ATOM     28  C   UNL     1      10.049  13.139  19.897  0.00  0.00    +0.000 C 
ENDBRANCH  25  26
ENDBRANCH  24  25
ENDBRANCH  20  23
ENDBRANCH  16  18
ENDBRANCH  15  16
ENDBRANCH   4  15
TORSDOF 10
ENDMDL
MODEL 9
REMARK VINA RESULT:      -6.3      3.439      8.141
REMARK  Name = 
REMARK  16 active torsions:
REMARK  status: ('A' for Active; 'I' for Inactive)
REMARK    1  A    between atoms: C_1  and  C_2
REMARK    2  A    between atoms: C_2  and  N_3
REMARK    3  A    between atoms: N_3  and  C_4
REMARK    4  A    between atoms: C_4  and  C_5
REMARK    5  A    between atoms: C_6  and  C_8
REMARK    6  A    between atoms: C_8  and  C_9
REMARK    7  A    between atoms: C_8  and  C_10
REMARK    8  A    between atoms: C_13  and  C_14
REMARK    9  A    between atoms: C_14  and  C_15
REMARK   10  A    between atoms: C_15  and  C_16
REMARK   11  A    between atoms: C_15  and  N_17
REMARK   12  A    between atoms: C_19  and  C_20
REMARK   13  A    between atoms: C_21  and  C_22
REMARK   14  A    between atoms: C_22  and  N_23
REMARK   15  A    between atoms: N_23  and  C_24
REMARK   16  A    between atoms: N_23  and  C_25
REMARK                            x       y       z     vdW  Elec       q    Type
REMARK                         _______ _______ _______ _____ _____    ______ ____
ROOT
ATOM      1  C   UNL     1       3.271   4.089  17.566  0.00  0.00    +0.000 C 
ATOM      2  C   UNL     1       1.897   3.537  17.933  0.00  0.00    +0.000 C 
ATOM      3  C   UNL     1       1.419   4.466  19.022  0.00  0.00    +0.000 C 
ATOM      4  C   UNL     1       2.025   5.801  18.614  0.00  0.00    +0.000 C 
ATOM      5  O   UNL     1       3.279   5.471  18.006  0.00  0.00    +0.000 OA
ENDROOT
BRANCH   1   6
ATOM      6  C   UNL     1       4.463   3.360  18.224  0.00  0.00    +0.000 C 
ATOM      7  C   UNL     1       4.107   2.962  19.661  0.00  0.00    +0.000 C 
BRANCH   6   9
ATOM      8  N   UNL     1       6.206   4.775  17.071  0.00  0.00    +0.000 N 
ATOM      9  C   UNL     1       5.682   4.282  18.264  0.00  0.00    +0.000 C 
ATOM     10  O   UNL     1       6.175   4.581  19.355  0.00  0.00    +0.000 OA
BRANCH   8  12
ATOM     11  C   UNL     1       6.742   7.214  17.264  0.00  0.00    +0.000 C 
ATOM     12  C   UNL     1       7.265   5.790  17.155  0.00  0.00    +0.000 C 
ENDBRANCH   8  12
BRANCH   8  13
ATOM     13  C   UNL     1       5.834   4.326  15.725  0.00  0.00    +0.000 C 
ATOM     14  C   UNL     1       6.906   4.606  14.681  0.00  0.00    +0.000 C 
ENDBRANCH   8  13
ENDBRANCH   6   9
ENDBRANCH   1   6
BRANCH   4  15
ATOM     15  C   UNL     1       2.228   6.732  19.814  0.00  0.00    +0.000 C 
BRANCH  15  16
ATOM     16  C   UNL     1       2.034   8.249  19.588  0.00  0.00    +0.000 C 
ATOM     17  C   UNL     1       1.518   8.634  18.199  0.00  0.00    +0.000 C 
BRANCH  16  18
ATOM     18  N   UNL     1       1.283   8.890  20.658  0.00  0.00    +0.000 N 
ATOM     19  C   UNL     1       0.255   9.778  20.571  0.00  0.00    +0.000 A 
ATOM     20  C   UNL     1      -0.004  10.111  21.874  0.00  0.00    +0.000 A 
ATOM     21  N   UNL     1       0.847   9.435  22.704  0.00  0.00    +0.000 NA
ATOM     22  N   UNL     1       1.636   8.680  21.946  0.00  0.00    +0.000 NA
BRANCH  20  23
ATOM     23  C   UNL     1      -0.976  11.023  22.353  0.00  0.00    +0.000 C 
ATOM     24  C   UNL     1      -1.795  11.762  22.817  0.00  0.00    +0.000 C 
BRANCH  24  25
ATOM     25  C   UNL     1      -2.808  12.622  23.458  0.00  0.00    +0.000 C 
BRANCH  25  26
ATOM     26  N   UNL     1      -3.488  13.516  22.507  0.00  0.00    +0.000 NA
ATOM     27  C   UNL     1      -2.537  14.318  21.733  0.00  0.00    +0.000 C 
ATOM     28  C   UNL     1      -4.318  12.729  21.589  0.00  0.00    +0.000 C 
ENDBRANCH  25  26
ENDBRANCH  24  25
ENDBRANCH  20  23
ENDBRANCH  16  18
ENDBRANCH  15  16
ENDBRANCH   4  15
TORSDOF 10
ENDMDL
