MODEL 1
REMARK VINA RESULT:      -8.0      0.000      0.000
REMARK  Name = 
REMARK  10 active torsions:
REMARK  status: ('A' for Active; 'I' for Inactive)
REMARK    1  A    between atoms: C_1  and  C_2
REMARK    2  A    between atoms: C_3  and  C_4
REMARK    3  A    between atoms: C_4  and  S_5
REMARK    4  A    between atoms: S_5  and  C_6
REMARK    5  A    between atoms: C_18  and  S_19
REMARK    6  A    between atoms: S_19  and  C_20
REMARK    7  A    between atoms: C_20  and  C_21
REMARK    8  A    between atoms: C_21  and  O_22
REMARK    9  A    between atoms: O_22  and  C_23
REMARK   10  A    between atoms: N_25  and  C_26
REMARK                            x       y       z     vdW  Elec       q    Type
REMARK                         _______ _______ _______ _____ _____    ______ ____
ROOT
ATOM      1  C   UNL     1       2.050   5.154  20.690  0.00  0.00    +0.000 C 
ATOM      2  C   UNL     1       2.302   6.300  19.752  0.00  0.00    +0.000 A 
ATOM      3  C   UNL     1       1.715   7.574  20.039  0.00  0.00    +0.000 A 
ATOM      4  C   UNL     1       1.888   8.630  19.126  0.00  0.00    +0.000 A 
ATOM      5  C   UNL     1       2.639   8.467  17.972  0.00  0.00    +0.000 A 
ATOM      6  C   UNL     1       3.253   7.242  17.714  0.00  0.00    +0.000 A 
ATOM      7  C   UNL     1       3.104   6.143  18.583  0.00  0.00    +0.000 A 
ENDROOT
BRANCH   3   8
ATOM      8  C   UNL     1       0.851   7.864  21.264  0.00  0.00    +0.000 C 
BRANCH   8   9
ATOM      9  S   UNL     1       1.403   9.287  22.266  0.00  0.00    +0.000 S 
BRANCH   9  10
ATOM     10  C   UNL     1      -0.037  10.248  22.235  0.00  0.00    +0.000 A 
ATOM     11  N   UNL     1      -0.820  10.534  23.246  0.00  0.00    +0.000 NA
ATOM     12  C   UNL     1      -1.688  11.486  22.758  0.00  0.00    +0.000 A 
ATOM     13  C   UNL     1      -2.690  12.211  23.420  0.00  0.00    +0.000 A 
ATOM     14  C   UNL     1      -3.364  13.219  22.721  0.00  0.00    +0.000 A 
ATOM     15  C   UNL     1      -3.074  13.478  21.380  0.00  0.00    +0.000 A 
ATOM     16  C   UNL     1      -2.118  12.727  20.684  0.00  0.00    +0.000 A 
ATOM     17  C   UNL     1      -1.438  11.747  21.412  0.00  0.00    +0.000 A 
ATOM     18  N   UNL     1      -0.424  10.879  21.088  0.00  0.00    +0.000 N 
ATOM     19  H   UNL     1       0.031  10.793  20.191  0.00  0.00    +0.000 HD
ENDBRANCH   9  10
ENDBRANCH   8   9
ENDBRANCH   3   8
BRANCH   7  20
ATOM     20  S   UNL     1       4.122   4.728  18.059  0.00  0.00    +0.000 S 
BRANCH  20  21
ATOM     21  C   UNL     1       5.455   4.580  19.288  0.00  0.00    +0.000 C 
BRANCH  21  22
ATOM     22  C   UNL     1       6.663   5.489  19.027  0.00  0.00    +0.000 C 
BRANCH  22  23
ATOM     23  O   UNL     1       6.535   6.108  17.719  0.00  0.00    +0.000 OA
BRANCH  23  24
ATOM     24  C   UNL     1       6.972   5.324  16.691  0.00  0.00    +0.000 C 
ATOM     25  O   UNL     1       7.800   4.435  16.841  0.00  0.00    +0.000 OA
ATOM     26  N   UNL     1       6.363   5.678  15.517  0.00  0.00    +0.000 N 
ATOM     27  H   UNL     1       5.838   6.541  15.533  0.00  0.00    +0.000 HD
BRANCH  26  28
ATOM     28  C   UNL     1       6.515   5.000  14.284  0.00  0.00    +0.000 A 
ATOM     29  C   UNL     1       5.687   3.935  13.899  0.00  0.00    +0.000 A 
ATOM     30  C   UNL     1       5.898   3.257  12.695  0.00  0.00    +0.000 A 
ATOM     31  C   UNL     1       6.937   3.641  11.857  0.00  0.00    +0.000 A 
ATOM     32  C   UNL     1       7.746   4.720  12.210  0.00  0.00    +0.000 A 
ATOM     33  C   UNL     1       7.527   5.411  13.412  0.00  0.00    +0.000 A 
ENDBRANCH  26  28
ENDBRANCH  23  24
ENDBRANCH  22  23
ENDBRANCH  21  22
ENDBRANCH  20  21
ENDBRANCH   7  20
TORSDOF 9
ENDMDL
MODEL 2
REMARK VINA RESULT:      -8.0      2.417      3.665
REMARK  Name = 
REMARK  10 active torsions:
REMARK  status: ('A' for Active; 'I' for Inactive)
REMARK    1  A    between atoms: C_1  and  C_2
REMARK    2  A    between atoms: C_3  and  C_4
REMARK    3  A    between atoms: C_4  and  S_5
REMARK    4  A    between atoms: S_5  and  C_6
REMARK    5  A    between atoms: C_18  and  S_19
REMARK    6  A    between atoms: S_19  and  C_20
REMARK    7  A    between atoms: C_20  and  C_21
REMARK    8  A    between atoms: C_21  and  O_22
REMARK    9  A    between atoms: O_22  and  C_23
REMARK   10  A    between atoms: N_25  and  C_26
REMARK                            x       y       z     vdW  Elec       q    Type
REMARK                         _______ _______ _______ _____ _____    ______ ____
ROOT
ATOM      1  C   UNL     1       0.638   8.415  21.404  0.00  0.00    +0.000 C 
ATOM      2  C   UNL     1       1.398   8.235  20.120  0.00  0.00    +0.000 A 
ATOM      3  C   UNL     1       1.490   9.334  19.207  0.00  0.00    +0.000 A 
ATOM      4  C   UNL     1       2.136   9.147  17.972  0.00  0.00    +0.000 A 
ATOM      5  C   UNL     1       2.709   7.930  17.638  0.00  0.00    +0.000 A 
ATOM      6  C   UNL     1       2.665   6.873  18.544  0.00  0.00    +0.000 A 
ATOM      7  C   UNL     1       2.018   6.993  19.790  0.00  0.00    +0.000 A 
ENDROOT
BRANCH   3   8
ATOM      8  C   UNL     1       0.878  10.710  19.457  0.00  0.00    +0.000 C 
BRANCH   8   9
ATOM      9  S   UNL     1      -0.694  11.017  18.579  0.00  0.00    +0.000 S 
BRANCH   9  10
ATOM     10  C   UNL     1      -1.603  11.761  19.849  0.00  0.00    +0.000 A 
ATOM     11  N   UNL     1      -2.728  12.424  19.735  0.00  0.00    +0.000 NA
ATOM     12  C   UNL     1      -3.151  12.623  21.030  0.00  0.00    +0.000 A 
ATOM     13  C   UNL     1      -4.334  13.205  21.508  0.00  0.00    +0.000 A 
ATOM     14  C   UNL     1      -4.586  13.181  22.886  0.00  0.00    +0.000 A 
ATOM     15  C   UNL     1      -3.665  12.622  23.773  0.00  0.00    +0.000 A 
ATOM     16  C   UNL     1      -2.452  12.087  23.322  0.00  0.00    +0.000 A 
ATOM     17  C   UNL     1      -2.237  12.096  21.940  0.00  0.00    +0.000 A 
ATOM     18  N   UNL     1      -1.218  11.620  21.151  0.00  0.00    +0.000 N 
ATOM     19  H   UNL     1      -0.381  11.153  21.466  0.00  0.00    +0.000 HD
ENDBRANCH   9  10
ENDBRANCH   8   9
ENDBRANCH   3   8
BRANCH   7  20
ATOM     20  S   UNL     1       2.236   5.501  20.810  0.00  0.00    +0.000 S 
BRANCH  20  21
ATOM     21  C   UNL     1       1.008   4.298  20.218  0.00  0.00    +0.000 C 
BRANCH  21  22
ATOM     22  C   UNL     1       1.429   2.831  20.375  0.00  0.00    +0.000 C 
BRANCH  22  23
ATOM     23  O   UNL     1       2.000   2.351  19.128  0.00  0.00    +0.000 OA
BRANCH  23  24
ATOM     24  C   UNL     1       3.328   2.626  18.986  0.00  0.00    +0.000 C 
ATOM     25  O   UNL     1       4.191   2.114  19.688  0.00  0.00    +0.000 OA
ATOM     26  N   UNL     1       3.533   3.528  17.976  0.00  0.00    +0.000 N 
ATOM     27  H   UNL     1       2.706   3.982  17.614  0.00  0.00    +0.000 HD
BRANCH  26  28
ATOM     28  C   UNL     1       4.799   3.947  17.502  0.00  0.00    +0.000 A 
ATOM     29  C   UNL     1       5.193   3.798  16.164  0.00  0.00    +0.000 A 
ATOM     30  C   UNL     1       6.470   4.180  15.743  0.00  0.00    +0.000 A 
ATOM     31  C   UNL     1       7.366   4.722  16.654  0.00  0.00    +0.000 A 
ATOM     32  C   UNL     1       6.977   4.908  17.979  0.00  0.00    +0.000 A 
ATOM     33  C   UNL     1       5.690   4.539  18.401  0.00  0.00    +0.000 A 
ENDBRANCH  26  28
ENDBRANCH  23  24
ENDBRANCH  22  23
ENDBRANCH  21  22
ENDBRANCH  20  21
ENDBRANCH   7  20
TORSDOF 9
ENDMDL
MODEL 3
REMARK VINA RESULT:      -7.8      2.689      3.443
REMARK  Name = 
REMARK  10 active torsions:
REMARK  status: ('A' for Active; 'I' for Inactive)
REMARK    1  A    between atoms: C_1  and  C_2
REMARK    2  A    between atoms: C_3  and  C_4
REMARK    3  A    between atoms: C_4  and  S_5
REMARK    4  A    between atoms: S_5  and  C_6
REMARK    5  A    between atoms: C_18  and  S_19
REMARK    6  A    between atoms: S_19  and  C_20
REMARK    7  A    between atoms: C_20  and  C_21
REMARK    8  A    between atoms: C_21  and  O_22
REMARK    9  A    between atoms: O_22  and  C_23
REMARK   10  A    between atoms: N_25  and  C_26
REMARK                            x       y       z     vdW  Elec       q    Type
REMARK                         _______ _______ _______ _____ _____    ______ ____
ROOT
ATOM      1  C   UNL     1       1.067   7.588  21.357  0.00  0.00    +0.000 C 
ATOM      2  C   UNL     1       1.682   7.870  20.015  0.00  0.00    +0.000 A 
ATOM      3  C   UNL     1       1.385   9.108  19.361  0.00  0.00    +0.000 A 
ATOM      4  C   UNL     1       1.900   9.344  18.073  0.00  0.00    +0.000 A 
ATOM      5  C   UNL     1       2.711   8.414  17.442  0.00  0.00    +0.000 A 
ATOM      6  C   UNL     1       3.043   7.229  18.096  0.00  0.00    +0.000 A 
ATOM      7  C   UNL     1       2.545   6.928  19.380  0.00  0.00    +0.000 A 
ENDROOT
BRANCH   3   8
ATOM      8  C   UNL     1       0.487  10.194  19.948  0.00  0.00    +0.000 C 
BRANCH   8   9
ATOM      9  S   UNL     1      -0.590  11.031  18.733  0.00  0.00    +0.000 S 
BRANCH   9  10
ATOM     10  C   UNL     1       0.031  12.642  18.848  0.00  0.00    +0.000 A 
ATOM     11  N   UNL     1       1.287  13.013  18.791  0.00  0.00    +0.000 NA
ATOM     12  C   UNL     1       1.243  14.387  18.713  0.00  0.00    +0.000 A 
ATOM     13  C   UNL     1       2.287  15.310  18.550  0.00  0.00    +0.000 A 
ATOM     14  C   UNL     1       1.968  16.663  18.378  0.00  0.00    +0.000 A 
ATOM     15  C   UNL     1       0.640  17.094  18.403  0.00  0.00    +0.000 A 
ATOM     16  C   UNL     1      -0.413  16.197  18.621  0.00  0.00    +0.000 A 
ATOM     17  C   UNL     1      -0.070  14.849  18.760  0.00  0.00    +0.000 A 
ATOM     18  N   UNL     1      -0.818  13.708  18.926  0.00  0.00    +0.000 N 
ATOM     19  H   UNL     1      -1.824  13.652  18.988  0.00  0.00    +0.000 HD
ENDBRANCH   9  10
ENDBRANCH   8   9
ENDBRANCH   3   8
BRANCH   7  20
ATOM     20  S   UNL     1       3.251   5.382  20.031  0.00  0.00    +0.000 S 
BRANCH  20  21
ATOM     21  C   UNL     1       3.733   4.394  18.582  0.00  0.00    +0.000 C 
BRANCH  21  22
ATOM     22  C   UNL     1       5.206   3.969  18.565  0.00  0.00    +0.000 C 
BRANCH  22  23
ATOM     23  O   UNL     1       6.027   5.067  18.088  0.00  0.00    +0.000 OA
BRANCH  23  24
ATOM     24  C   UNL     1       6.749   4.773  16.968  0.00  0.00    +0.000 C 
ATOM     25  O   UNL     1       7.896   4.349  17.010  0.00  0.00    +0.000 OA
ATOM     26  N   UNL     1       6.015   5.017  15.838  0.00  0.00    +0.000 N 
ATOM     27  H   UNL     1       5.152   5.526  15.972  0.00  0.00    +0.000 HD
BRANCH  26  28
ATOM     28  C   UNL     1       6.430   4.722  14.517  0.00  0.00    +0.000 A 
ATOM     29  C   UNL     1       7.493   5.391  13.891  0.00  0.00    +0.000 A 
ATOM     30  C   UNL     1       7.843   5.107  12.568  0.00  0.00    +0.000 A 
ATOM     31  C   UNL     1       7.138   4.145  11.857  0.00  0.00    +0.000 A 
ATOM     32  C   UNL     1       6.102   3.448  12.477  0.00  0.00    +0.000 A 
ATOM     33  C   UNL     1       5.758   3.722  13.811  0.00  0.00    +0.000 A 
ENDBRANCH  26  28
ENDBRANCH  23  24
ENDBRANCH  22  23
ENDBRANCH  21  22
ENDBRANCH  20  21
ENDBRANCH   7  20
TORSDOF 9
ENDMDL
MODEL 4
REMARK VINA RESULT:      -7.8      3.628      4.628
REMARK  Name = 
REMARK  10 active torsions:
REMARK  status: ('A' for Active; 'I' for Inactive)
REMARK    1  A    between atoms: C_1  and  C_2
REMARK    2  A    between atoms: C_3  and  C_4
REMARK    3  A    between atoms: C_4  and  S_5
REMARK    4  A    between atoms: S_5  and  C_6
REMARK    5  A    between atoms: C_18  and  S_19
REMARK    6  A    between atoms: S_19  and  C_20
REMARK    7  A    between atoms: C_20  and  C_21
REMARK    8  A    between atoms: C_21  and  O_22
REMARK    9  A    between atoms: O_22  and  C_23
REMARK   10  A    between atoms: N_25  and  C_26
REMARK                            x       y       z     vdW  Elec       q    Type
REMARK                         _______ _______ _______ _____ _____    ______ ____
ROOT
ATOM      1  C   UNL     1       0.437   8.311  21.418  0.00  0.00    +0.000 C 
ATOM      2  C   UNL     1       1.204   8.359  20.127  0.00  0.00    +0.000 A 
ATOM      3  C   UNL     1       1.128   9.536  19.317  0.00  0.00    +0.000 A 
ATOM      4  C   UNL     1       1.786   9.558  18.074  0.00  0.00    +0.000 A 
ATOM      5  C   UNL     1       2.527   8.471  17.635  0.00  0.00    +0.000 A 
ATOM      6  C   UNL     1       2.644   7.342  18.443  0.00  0.00    +0.000 A 
ATOM      7  C   UNL     1       1.996   7.255  19.691  0.00  0.00    +0.000 A 
ENDROOT
BRANCH   3   8
ATOM      8  C   UNL     1       0.324  10.781  19.686  0.00  0.00    +0.000 C 
BRANCH   8   9
ATOM      9  S   UNL     1       1.172  11.924  20.831  0.00  0.00    +0.000 S 
BRANCH   9  10
ATOM     10  C   UNL     1       1.374  13.291  19.789  0.00  0.00    +0.000 A 
ATOM     11  N   UNL     1       0.662  14.391  19.779  0.00  0.00    +0.000 NA
ATOM     12  C   UNL     1       1.342  15.240  18.934  0.00  0.00    +0.000 A 
ATOM     13  C   UNL     1       1.084  16.580  18.610  0.00  0.00    +0.000 A 
ATOM     14  C   UNL     1       2.003  17.268  17.808  0.00  0.00    +0.000 A 
ATOM     15  C   UNL     1       3.137  16.626  17.308  0.00  0.00    +0.000 A 
ATOM     16  C   UNL     1       3.385  15.273  17.572  0.00  0.00    +0.000 A 
ATOM     17  C   UNL     1       2.468  14.617  18.400  0.00  0.00    +0.000 A 
ATOM     18  N   UNL     1       2.415  13.342  18.907  0.00  0.00    +0.000 N 
ATOM     19  H   UNL     1       3.082  12.602  18.747  0.00  0.00    +0.000 HD
ENDBRANCH   9  10
ENDBRANCH   8   9
ENDBRANCH   3   8
BRANCH   7  20
ATOM     20  S   UNL     1       2.437   5.726  20.574  0.00  0.00    +0.000 S 
BRANCH  20  21
ATOM     21  C   UNL     1       1.069   4.563  20.290  0.00  0.00    +0.000 C 
BRANCH  21  22
ATOM     22  C   UNL     1       1.500   3.192  19.754  0.00  0.00    +0.000 C 
BRANCH  22  23
ATOM     23  O   UNL     1       1.702   3.270  18.318  0.00  0.00    +0.000 OA
BRANCH  23  24
ATOM     24  C   UNL     1       2.995   3.073  17.930  0.00  0.00    +0.000 C 
ATOM     25  O   UNL     1       3.555   1.988  18.014  0.00  0.00    +0.000 OA
ATOM     26  N   UNL     1       3.543   4.234  17.452  0.00  0.00    +0.000 N 
ATOM     27  H   UNL     1       3.005   5.075  17.612  0.00  0.00    +0.000 HD
BRANCH  26  28
ATOM     28  C   UNL     1       4.829   4.351  16.875  0.00  0.00    +0.000 A 
ATOM     29  C   UNL     1       5.996   4.463  17.646  0.00  0.00    +0.000 A 
ATOM     30  C   UNL     1       7.246   4.626  17.041  0.00  0.00    +0.000 A 
ATOM     31  C   UNL     1       7.345   4.673  15.657  0.00  0.00    +0.000 A 
ATOM     32  C   UNL     1       6.198   4.528  14.877  0.00  0.00    +0.000 A 
ATOM     33  C   UNL     1       4.943   4.349  15.483  0.00  0.00    +0.000 A 
ENDBRANCH  26  28
ENDBRANCH  23  24
ENDBRANCH  22  23
ENDBRANCH  21  22
ENDBRANCH  20  21
ENDBRANCH   7  20
TORSDOF 9
ENDMDL
MODEL 5
REMARK VINA RESULT:      -7.7      3.681     10.593
REMARK  Name = 
REMARK  10 active torsions:
REMARK  status: ('A' for Active; 'I' for Inactive)
REMARK    1  A    between atoms: C_1  and  C_2
REMARK    2  A    between atoms: C_3  and  C_4
REMARK    3  A    between atoms: C_4  and  S_5
REMARK    4  A    between atoms: S_5  and  C_6
REMARK    5  A    between atoms: C_18  and  S_19
REMARK    6  A    between atoms: S_19  and  C_20
REMARK    7  A    between atoms: C_20  and  C_21
REMARK    8  A    between atoms: C_21  and  O_22
REMARK    9  A    between atoms: O_22  and  C_23
REMARK   10  A    between atoms: N_25  and  C_26
REMARK                            x       y       z     vdW  Elec       q    Type
REMARK                         _______ _______ _______ _____ _____    ______ ____
ROOT
ATOM      1  C   UNL     1       2.553   5.625  20.579  0.00  0.00    +0.000 C 
ATOM      2  C   UNL     1       2.434   6.751  19.592  0.00  0.00    +0.000 A 
ATOM      3  C   UNL     1       3.067   6.626  18.314  0.00  0.00    +0.000 A 
ATOM      4  C   UNL     1       3.020   7.707  17.416  0.00  0.00    +0.000 A 
ATOM      5  C   UNL     1       2.347   8.877  17.735  0.00  0.00    +0.000 A 
ATOM      6  C   UNL     1       1.688   8.984  18.958  0.00  0.00    +0.000 A 
ATOM      7  C   UNL     1       1.712   7.941  19.906  0.00  0.00    +0.000 A 
ENDROOT
BRANCH   3   8
ATOM      8  C   UNL     1       3.854   5.397  17.864  0.00  0.00    +0.000 C 
BRANCH   8   9
ATOM      9  S   UNL     1       5.669   5.602  17.894  0.00  0.00    +0.000 S 
BRANCH   9  10
ATOM     10  C   UNL     1       6.063   4.980  16.328  0.00  0.00    +0.000 A 
ATOM     11  N   UNL     1       5.372   4.118  15.622  0.00  0.00    +0.000 NA
ATOM     12  C   UNL     1       5.980   4.113  14.385  0.00  0.00    +0.000 A 
ATOM     13  C   UNL     1       5.616   3.439  13.210  0.00  0.00    +0.000 A 
ATOM     14  C   UNL     1       6.337   3.696  12.037  0.00  0.00    +0.000 A 
ATOM     15  C   UNL     1       7.421   4.576  12.041  0.00  0.00    +0.000 A 
ATOM     16  C   UNL     1       7.835   5.216  13.216  0.00  0.00    +0.000 A 
ATOM     17  C   UNL     1       7.080   4.967  14.366  0.00  0.00    +0.000 A 
ATOM     18  N   UNL     1       7.153   5.446  15.651  0.00  0.00    +0.000 N 
ATOM     19  H   UNL     1       7.824   6.108  16.010  0.00  0.00    +0.000 HD
ENDBRANCH   9  10
ENDBRANCH   8   9
ENDBRANCH   3   8
BRANCH   7  20
ATOM     20  S   UNL     1       0.659   8.312  21.343  0.00  0.00    +0.000 S 
BRANCH  20  21
ATOM     21  C   UNL     1      -0.356   9.746  20.872  0.00  0.00    +0.000 C 
BRANCH  21  22
ATOM     22  C   UNL     1      -0.051  11.026  21.660  0.00  0.00    +0.000 C 
BRANCH  22  23
ATOM     23  O   UNL     1       1.238  11.556  21.251  0.00  0.00    +0.000 OA
BRANCH  23  24
ATOM     24  C   UNL     1       1.162  12.497  20.267  0.00  0.00    +0.000 C 
ATOM     25  O   UNL     1       0.181  12.626  19.546  0.00  0.00    +0.000 OA
ATOM     26  N   UNL     1       2.310  13.242  20.216  0.00  0.00    +0.000 N 
ATOM     27  H   UNL     1       3.087  12.895  20.762  0.00  0.00    +0.000 HD
BRANCH  26  28
ATOM     28  C   UNL     1       2.517  14.364  19.379  0.00  0.00    +0.000 A 
ATOM     29  C   UNL     1       3.348  14.322  18.249  0.00  0.00    +0.000 A 
ATOM     30  C   UNL     1       3.567  15.464  17.473  0.00  0.00    +0.000 A 
ATOM     31  C   UNL     1       2.953  16.661  17.815  0.00  0.00    +0.000 A 
ATOM     32  C   UNL     1       2.097  16.710  18.914  0.00  0.00    +0.000 A 
ATOM     33  C   UNL     1       1.864  15.560  19.687  0.00  0.00    +0.000 A 
ENDBRANCH  26  28
ENDBRANCH  23  24
ENDBRANCH  22  23
ENDBRANCH  21  22
ENDBRANCH  20  21
ENDBRANCH   7  20
TORSDOF 9
ENDMDL
MODEL 6
REMARK VINA RESULT:      -7.7      3.774      5.475
REMARK  Name = 
REMARK  10 active torsions:
REMARK  status: ('A' for Active; 'I' for Inactive)
REMARK    1  A    between atoms: C_1  and  C_2
REMARK    2  A    between atoms: C_3  and  C_4
REMARK    3  A    between atoms: C_4  and  S_5
REMARK    4  A    between atoms: S_5  and  C_6
REMARK    5  A    between atoms: C_18  and  S_19
REMARK    6  A    between atoms: S_19  and  C_20
REMARK    7  A    between atoms: C_20  and  C_21
REMARK    8  A    between atoms: C_21  and  O_22
REMARK    9  A    between atoms: O_22  and  C_23
REMARK   10  A    between atoms: N_25  and  C_26
REMARK                            x       y       z     vdW  Elec       q    Type
REMARK                         _______ _______ _______ _____ _____    ______ ____
ROOT
ATOM      1  C   UNL     1       4.014   7.273  16.702  0.00  0.00    +0.000 C 
ATOM      2  C   UNL     1       3.473   6.640  17.953  0.00  0.00    +0.000 A 
ATOM      3  C   UNL     1       2.494   7.347  18.721  0.00  0.00    +0.000 A 
ATOM      4  C   UNL     1       2.039   6.791  19.931  0.00  0.00    +0.000 A 
ATOM      5  C   UNL     1       2.500   5.561  20.374  0.00  0.00    +0.000 A 
ATOM      6  C   UNL     1       3.416   4.847  19.604  0.00  0.00    +0.000 A 
ATOM      7  C   UNL     1       3.920   5.358  18.392  0.00  0.00    +0.000 A 
ENDROOT
BRANCH   3   8
ATOM      8  C   UNL     1       1.933   8.716  18.345  0.00  0.00    +0.000 C 
BRANCH   8   9
ATOM      9  S   UNL     1       1.036   9.568  19.688  0.00  0.00    +0.000 S 
BRANCH   9  10
ATOM     10  C   UNL     1      -0.319  10.177  18.800  0.00  0.00    +0.000 A 
ATOM     11  N   UNL     1      -0.668   9.865  17.576  0.00  0.00    +0.000 NA
ATOM     12  C   UNL     1      -1.910  10.438  17.410  0.00  0.00    +0.000 A 
ATOM     13  C   UNL     1      -2.795  10.361  16.324  0.00  0.00    +0.000 A 
ATOM     14  C   UNL     1      -4.063  10.942  16.449  0.00  0.00    +0.000 A 
ATOM     15  C   UNL     1      -4.431  11.616  17.615  0.00  0.00    +0.000 A 
ATOM     16  C   UNL     1      -3.542  11.753  18.688  0.00  0.00    +0.000 A 
ATOM     17  C   UNL     1      -2.294  11.138  18.551  0.00  0.00    +0.000 A 
ATOM     18  N   UNL     1      -1.216  11.017  19.394  0.00  0.00    +0.000 N 
ATOM     19  H   UNL     1      -1.138  11.389  20.329  0.00  0.00    +0.000 HD
ENDBRANCH   9  10
ENDBRANCH   8   9
ENDBRANCH   3   8
BRANCH   7  20
ATOM     20  S   UNL     1       4.991   4.154  17.546  0.00  0.00    +0.000 S 
BRANCH  20  21
ATOM     21  C   UNL     1       6.675   4.837  17.612  0.00  0.00    +0.000 C 
BRANCH  21  22
ATOM     22  C   UNL     1       6.889   5.894  18.702  0.00  0.00    +0.000 C 
BRANCH  22  23
ATOM     23  O   UNL     1       8.191   6.515  18.532  0.00  0.00    +0.000 OA
BRANCH  23  24
ATOM     24  C   UNL     1       8.134   7.844  18.227  0.00  0.00    +0.000 C 
ATOM     25  O   UNL     1       7.420   8.291  17.338  0.00  0.00    +0.000 OA
ATOM     26  N   UNL     1       8.969   8.566  19.037  0.00  0.00    +0.000 N 
ATOM     27  H   UNL     1       9.615   8.027  19.599  0.00  0.00    +0.000 HD
BRANCH  26  28
ATOM     28  C   UNL     1       9.071   9.977  19.052  0.00  0.00    +0.000 A 
ATOM     29  C   UNL     1       9.375  10.701  20.215  0.00  0.00    +0.000 A 
ATOM     30  C   UNL     1       9.420  12.098  20.203  0.00  0.00    +0.000 A 
ATOM     31  C   UNL     1       9.168  12.788  19.025  0.00  0.00    +0.000 A 
ATOM     32  C   UNL     1       8.899  12.081  17.854  0.00  0.00    +0.000 A 
ATOM     33  C   UNL     1       8.868  10.677  17.861  0.00  0.00    +0.000 A 
ENDBRANCH  26  28
ENDBRANCH  23  24
ENDBRANCH  22  23
ENDBRANCH  21  22
ENDBRANCH  20  21
ENDBRANCH   7  20
TORSDOF 9
ENDMDL
MODEL 7
REMARK VINA RESULT:      -7.6      2.935      4.446
REMARK  Name = 
REMARK  10 active torsions:
REMARK  status: ('A' for Active; 'I' for Inactive)
REMARK    1  A    between atoms: C_1  and  C_2
REMARK    2  A    between atoms: C_3  and  C_4
REMARK    3  A    between atoms: C_4  and  S_5
REMARK    4  A    between atoms: S_5  and  C_6
REMARK    5  A    between atoms: C_18  and  S_19
REMARK    6  A    between atoms: S_19  and  C_20
REMARK    7  A    between atoms: C_20  and  C_21
REMARK    8  A    between atoms: C_21  and  O_22
REMARK    9  A    between atoms: O_22  and  C_23
REMARK   10  A    between atoms: N_25  and  C_26
REMARK                            x       y       z     vdW  Elec       q    Type
REMARK                         _______ _______ _______ _____ _____    ______ ____
ROOT
ATOM      1  C   UNL     1       0.307  10.100  18.487  0.00  0.00    +0.000 C 
ATOM      2  C   UNL     1       0.239   9.895  19.974  0.00  0.00    +0.000 A 
ATOM      3  C   UNL     1      -0.613  10.742  20.753  0.00  0.00    +0.000 A 
ATOM      4  C   UNL     1      -0.624  10.602  22.153  0.00  0.00    +0.000 A 
ATOM      5  C   UNL     1       0.150   9.641  22.785  0.00  0.00    +0.000 A 
ATOM      6  C   UNL     1       0.943   8.782  22.026  0.00  0.00    +0.000 A 
ATOM      7  C   UNL     1       1.009   8.883  20.622  0.00  0.00    +0.000 A 
ENDROOT
BRANCH   3   8
ATOM      8  C   UNL     1      -1.490  11.847  20.170  0.00  0.00    +0.000 C 
BRANCH   8   9
ATOM      9  S   UNL     1      -1.734  13.286  21.268  0.00  0.00    +0.000 S 
BRANCH   9  10
ATOM     10  C   UNL     1      -3.330  12.949  21.847  0.00  0.00    +0.000 A 
ATOM     11  N   UNL     1      -3.748  12.992  23.088  0.00  0.00    +0.000 NA
ATOM     12  C   UNL     1      -5.116  12.858  23.002  0.00  0.00    +0.000 A 
ATOM     13  C   UNL     1      -6.088  12.914  24.011  0.00  0.00    +0.000 A 
ATOM     14  C   UNL     1      -7.440  12.868  23.646  0.00  0.00    +0.000 A 
ATOM     15  C   UNL     1      -7.816  12.731  22.309  0.00  0.00    +0.000 A 
ATOM     16  C   UNL     1      -6.861  12.616  21.292  0.00  0.00    +0.000 A 
ATOM     17  C   UNL     1      -5.519  12.696  21.678  0.00  0.00    +0.000 A 
ATOM     18  N   UNL     1      -4.342  12.679  20.971  0.00  0.00    +0.000 N 
ATOM     19  H   UNL     1      -4.242  12.592  19.971  0.00  0.00    +0.000 HD
ENDBRANCH   9  10
ENDBRANCH   8   9
ENDBRANCH   3   8
BRANCH   7  20
ATOM     20  S   UNL     1       2.015   7.552  19.896  0.00  0.00    +0.000 S 
BRANCH  20  21
ATOM     21  C   UNL     1       1.603   6.042  20.822  0.00  0.00    +0.000 C 
BRANCH  21  22
ATOM     22  C   UNL     1       2.288   4.772  20.304  0.00  0.00    +0.000 C 
BRANCH  22  23
ATOM     23  O   UNL     1       1.510   4.204  19.218  0.00  0.00    +0.000 OA
BRANCH  23  24
ATOM     24  C   UNL     1       2.204   4.069  18.051  0.00  0.00    +0.000 C 
ATOM     25  O   UNL     1       1.744   3.505  17.067  0.00  0.00    +0.000 OA
ATOM     26  N   UNL     1       3.444   4.640  18.153  0.00  0.00    +0.000 N 
ATOM     27  H   UNL     1       3.732   4.909  19.084  0.00  0.00    +0.000 HD
BRANCH  26  28
ATOM     28  C   UNL     1       4.374   4.764  17.094  0.00  0.00    +0.000 A 
ATOM     29  C   UNL     1       5.022   3.658  16.523  0.00  0.00    +0.000 A 
ATOM     30  C   UNL     1       5.971   3.823  15.510  0.00  0.00    +0.000 A 
ATOM     31  C   UNL     1       6.280   5.097  15.052  0.00  0.00    +0.000 A 
ATOM     32  C   UNL     1       5.620   6.203  15.586  0.00  0.00    +0.000 A 
ATOM     33  C   UNL     1       4.655   6.038  16.593  0.00  0.00    +0.000 A 
ENDBRANCH  26  28
ENDBRANCH  23  24
ENDBRANCH  22  23
ENDBRANCH  21  22
ENDBRANCH  20  21
ENDBRANCH   7  20
TORSDOF 9
ENDMDL
MODEL 8
REMARK VINA RESULT:      -7.6      2.944      3.999
REMARK  Name = 
REMARK  10 active torsions:
REMARK  status: ('A' for Active; 'I' for Inactive)
REMARK    1  A    between atoms: C_1  and  C_2
REMARK    2  A    between atoms: C_3  and  C_4
REMARK    3  A    between atoms: C_4  and  S_5
REMARK    4  A    between atoms: S_5  and  C_6
REMARK    5  A    between atoms: C_18  and  S_19
REMARK    6  A    between atoms: S_19  and  C_20
REMARK    7  A    between atoms: C_20  and  C_21
REMARK    8  A    between atoms: C_21  and  O_22
REMARK    9  A    between atoms: O_22  and  C_23
REMARK   10  A    between atoms: N_25  and  C_26
REMARK                            x       y       z     vdW  Elec       q    Type
REMARK                         _______ _______ _______ _____ _____    ______ ____
ROOT
ATOM      1  C   UNL     1       0.457   8.335  21.657  0.00  0.00    +0.000 C 
ATOM      2  C   UNL     1       1.031   8.680  20.312  0.00  0.00    +0.000 A 
ATOM      3  C   UNL     1       0.716   9.947  19.727  0.00  0.00    +0.000 A 
ATOM      4  C   UNL     1       1.191  10.244  18.436  0.00  0.00    +0.000 A 
ATOM      5  C   UNL     1       1.981   9.344  17.738  0.00  0.00    +0.000 A 
ATOM      6  C   UNL     1       2.332   8.130  18.325  0.00  0.00    +0.000 A 
ATOM      7  C   UNL     1       1.874   7.769  19.607  0.00  0.00    +0.000 A 
ENDROOT
BRANCH   3   8
ATOM      8  C   UNL     1      -0.163  11.004  20.391  0.00  0.00    +0.000 C 
BRANCH   8   9
ATOM      9  S   UNL     1      -0.456  12.497  19.380  0.00  0.00    +0.000 S 
BRANCH   9  10
ATOM     10  C   UNL     1      -2.140  12.296  19.038  0.00  0.00    +0.000 A 
ATOM     11  N   UNL     1      -2.673  11.607  18.058  0.00  0.00    +0.000 NA
ATOM     12  C   UNL     1      -4.021  11.580  18.341  0.00  0.00    +0.000 A 
ATOM     13  C   UNL     1      -5.063  10.915  17.679  0.00  0.00    +0.000 A 
ATOM     14  C   UNL     1      -6.346  10.948  18.240  0.00  0.00    +0.000 A 
ATOM     15  C   UNL     1      -6.594  11.658  19.417  0.00  0.00    +0.000 A 
ATOM     16  C   UNL     1      -5.580  12.375  20.063  0.00  0.00    +0.000 A 
ATOM     17  C   UNL     1      -4.302  12.301  19.500  0.00  0.00    +0.000 A 
ATOM     18  N   UNL     1      -3.085  12.814  19.877  0.00  0.00    +0.000 N 
ATOM     19  H   UNL     1      -2.897  13.383  20.689  0.00  0.00    +0.000 HD
ENDBRANCH   9  10
ENDBRANCH   8   9
ENDBRANCH   3   8
BRANCH   7  20
ATOM     20  S   UNL     1       2.597   6.194  20.163  0.00  0.00    +0.000 S 
BRANCH  20  21
ATOM     21  C   UNL     1       1.440   4.892  19.643  0.00  0.00    +0.000 C 
BRANCH  21  22
ATOM     22  C   UNL     1       1.998   3.468  19.744  0.00  0.00    +0.000 C 
BRANCH  22  23
ATOM     23  O   UNL     1       1.974   2.839  18.435  0.00  0.00    +0.000 OA
BRANCH  23  24
ATOM     24  C   UNL     1       3.200   2.742  17.845  0.00  0.00    +0.000 C 
ATOM     25  O   UNL     1       3.775   1.673  17.682  0.00  0.00    +0.000 OA
ATOM     26  N   UNL     1       3.664   3.977  17.480  0.00  0.00    +0.000 N 
ATOM     27  H   UNL     1       3.148   4.768  17.841  0.00  0.00    +0.000 HD
BRANCH  26  28
ATOM     28  C   UNL     1       4.855   4.219  16.755  0.00  0.00    +0.000 A 
ATOM     29  C   UNL     1       4.913   4.159  15.354  0.00  0.00    +0.000 A 
ATOM     30  C   UNL     1       6.118   4.356  14.674  0.00  0.00    +0.000 A 
ATOM     31  C   UNL     1       7.280   4.622  15.387  0.00  0.00    +0.000 A 
ATOM     32  C   UNL     1       7.231   4.719  16.777  0.00  0.00    +0.000 A 
ATOM     33  C   UNL     1       6.018   4.536  17.461  0.00  0.00    +0.000 A 
ENDBRANCH  26  28
ENDBRANCH  23  24
ENDBRANCH  22  23
ENDBRANCH  21  22
ENDBRANCH  20  21
ENDBRANCH   7  20
TORSDOF 9
ENDMDL
MODEL 9
REMARK VINA RESULT:      -7.6      3.631     10.583
REMARK  Name = 
REMARK  10 active torsions:
REMARK  status: ('A' for Active; 'I' for Inactive)
REMARK    1  A    between atoms: C_1  and  C_2
REMARK    2  A    between atoms: C_3  and  C_4
REMARK    3  A    between atoms: C_4  and  S_5
REMARK    4  A    between atoms: S_5  and  C_6
REMARK    5  A    between atoms: C_18  and  S_19
REMARK    6  A    between atoms: S_19  and  C_20
REMARK    7  A    between atoms: C_20  and  C_21
REMARK    8  A    between atoms: C_21  and  O_22
REMARK    9  A    between atoms: O_22  and  C_23
REMARK   10  A    between atoms: N_25  and  C_26
REMARK                            x       y       z     vdW  Elec       q    Type
REMARK                         _______ _______ _______ _____ _____    ______ ____
ROOT
ATOM      1  C   UNL     1       2.430   5.211  20.672  0.00  0.00    +0.000 C 
ATOM      2  C   UNL     1       2.554   6.294  19.638  0.00  0.00    +0.000 A 
ATOM      3  C   UNL     1       3.299   6.032  18.444  0.00  0.00    +0.000 A 
ATOM      4  C   UNL     1       3.479   7.066  17.507  0.00  0.00    +0.000 A 
ATOM      5  C   UNL     1       2.925   8.321  17.707  0.00  0.00    +0.000 A 
ATOM      6  C   UNL     1       2.159   8.566  18.845  0.00  0.00    +0.000 A 
ATOM      7  C   UNL     1       1.955   7.575  19.827  0.00  0.00    +0.000 A 
ENDROOT
BRANCH   3   8
ATOM      8  C   UNL     1       3.972   4.699  18.128  0.00  0.00    +0.000 C 
BRANCH   8   9
ATOM      9  S   UNL     1       5.798   4.751  18.116  0.00  0.00    +0.000 S 
BRANCH   9  10
ATOM     10  C   UNL     1       6.081   4.808  16.409  0.00  0.00    +0.000 A 
ATOM     11  N   UNL     1       7.035   5.456  15.786  0.00  0.00    +0.000 NA
ATOM     12  C   UNL     1       6.963   5.017  14.483  0.00  0.00    +0.000 A 
ATOM     13  C   UNL     1       7.791   5.312  13.390  0.00  0.00    +0.000 A 
ATOM     14  C   UNL     1       7.576   4.636  12.182  0.00  0.00    +0.000 A 
ATOM     15  C   UNL     1       6.535   3.714  12.052  0.00  0.00    +0.000 A 
ATOM     16  C   UNL     1       5.662   3.448  13.114  0.00  0.00    +0.000 A 
ATOM     17  C   UNL     1       5.917   4.112  14.318  0.00  0.00    +0.000 A 
ATOM     18  N   UNL     1       5.322   4.061  15.556  0.00  0.00    +0.000 N 
ATOM     19  H   UNL     1       4.532   3.492  15.821  0.00  0.00    +0.000 HD
ENDBRANCH   9  10
ENDBRANCH   8   9
ENDBRANCH   3   8
BRANCH   7  20
ATOM     20  S   UNL     1       0.809   8.138  21.124  0.00  0.00    +0.000 S 
BRANCH  20  21
ATOM     21  C   UNL     1       0.861   9.955  21.094  0.00  0.00    +0.000 C 
BRANCH  21  22
ATOM     22  C   UNL     1      -0.375  10.615  20.469  0.00  0.00    +0.000 C 
BRANCH  22  23
ATOM     23  O   UNL     1      -0.656  11.868  21.149  0.00  0.00    +0.000 OA
BRANCH  23  24
ATOM     24  C   UNL     1       0.283  12.834  20.938  0.00  0.00    +0.000 C 
ATOM     25  O   UNL     1       0.931  13.339  21.846  0.00  0.00    +0.000 OA
ATOM     26  N   UNL     1       0.381  13.137  19.606  0.00  0.00    +0.000 N 
ATOM     27  H   UNL     1      -0.343  12.756  19.012  0.00  0.00    +0.000 HD
BRANCH  26  28
ATOM     28  C   UNL     1       1.328  14.022  19.039  0.00  0.00    +0.000 A 
ATOM     29  C   UNL     1       1.097  15.400  18.915  0.00  0.00    +0.000 A 
ATOM     30  C   UNL     1       2.036  16.236  18.305  0.00  0.00    +0.000 A 
ATOM     31  C   UNL     1       3.222  15.704  17.816  0.00  0.00    +0.000 A 
ATOM     32  C   UNL     1       3.481  14.342  17.962  0.00  0.00    +0.000 A 
ATOM     33  C   UNL     1       2.545  13.503  18.588  0.00  0.00    +0.000 A 
ENDBRANCH  26  28
ENDBRANCH  23  24
ENDBRANCH  22  23
ENDBRANCH  21  22
ENDBRANCH  20  21
ENDBRANCH   7  20
TORSDOF 9
ENDMDL
