MODEL 1
REMARK VINA RESULT:      -7.1      0.000      0.000
REMARK  Name = 
REMARK  3 active torsions:
REMARK  status: ('A' for Active; 'I' for Inactive)
REMARK    1  A    between atoms: C_2  and  O_10
REMARK    2  A    between atoms: N_3  and  C_4
REMARK    3  A    between atoms: O_10  and  C_11
REMARK                            x       y       z     vdW  Elec       q    Type
REMARK                         _______ _______ _______ _____ _____    ______ ____
ROOT
ATOM      1  O   UNL     1       2.317   3.421  16.409  0.00  0.00    +0.000 OA
ATOM      2  C   UNL     1       3.162   3.675  17.251  0.00  0.00    +0.000 C 
ATOM      3  N   UNL     1       2.887   4.155  18.503  0.00  0.00    +0.000 N 
ATOM      4  H   UNL     1       3.682   4.384  19.080  0.00  0.00    +0.000 HD
ENDROOT
BRANCH   3   5
ATOM      5  C   UNL     1       1.533   4.249  19.027  0.00  0.00    +0.000 C 
ATOM      6  C   UNL     1       0.895   2.860  19.125  0.00  0.00    +0.000 C 
ATOM      7  C   UNL     1       1.516   1.999  20.226  0.00  0.00    +0.000 C 
ATOM      8  C   UNL     1       1.605   2.724  21.568  0.00  0.00    +0.000 C 
ATOM      9  C   UNL     1       2.213   4.118  21.454  0.00  0.00    +0.000 C 
ATOM     10  C   UNL     1       1.505   4.950  20.388  0.00  0.00    +0.000 C 
ENDBRANCH   3   5
BRANCH   2  11
ATOM     11  O   UNL     1       4.529   3.475  17.143  0.00  0.00    +0.000 OA
BRANCH  11  12
ATOM     12  C   UNL     1       5.445   4.548  17.182  0.00  0.00    +0.000 A 
ATOM     13  C   UNL     1       6.707   4.498  17.770  0.00  0.00    +0.000 A 
ATOM     14  C   UNL     1       7.462   5.666  17.888  0.00  0.00    +0.000 A 
ATOM     15  C   UNL     1       6.958   6.874  17.411  0.00  0.00    +0.000 A 
ATOM     16 CL   UNL     1       7.869   8.319  17.614  0.00  0.00    +0.000 Cl
ATOM     17  C   UNL     1       5.709   6.922  16.793  0.00  0.00    +0.000 A 
ATOM     18  C   UNL     1       4.953   5.755  16.670  0.00  0.00    +0.000 A 
ENDBRANCH  11  12
ENDBRANCH   2  11
TORSDOF 3
ENDMDL
MODEL 2
REMARK VINA RESULT:      -7.0      2.556      2.923
REMARK  Name = 
REMARK  3 active torsions:
REMARK  status: ('A' for Active; 'I' for Inactive)
REMARK    1  A    between atoms: C_2  and  O_10
REMARK    2  A    between atoms: N_3  and  C_4
REMARK    3  A    between atoms: O_10  and  C_11
REMARK                            x       y       z     vdW  Elec       q    Type
REMARK                         _______ _______ _______ _____ _____    ______ ____
ROOT
ATOM      1  O   UNL     1       3.843   6.898  17.725  0.00  0.00    +0.000 OA
ATOM      2  C   UNL     1       4.357   5.915  18.233  0.00  0.00    +0.000 C 
ATOM      3  N   UNL     1       3.731   5.090  19.129  0.00  0.00    +0.000 N 
ATOM      4  H   UNL     1       4.291   4.349  19.522  0.00  0.00    +0.000 HD
ENDROOT
BRANCH   3   5
ATOM      5  C   UNL     1       2.314   5.201  19.438  0.00  0.00    +0.000 C 
ATOM      6  C   UNL     1       1.486   4.323  18.495  0.00  0.00    +0.000 C 
ATOM      7  C   UNL     1       1.670   2.828  18.761  0.00  0.00    +0.000 C 
ATOM      8  C   UNL     1       1.505   2.463  20.235  0.00  0.00    +0.000 C 
ATOM      9  C   UNL     1       2.310   3.363  21.168  0.00  0.00    +0.000 C 
ATOM     10  C   UNL     1       2.028   4.839  20.898  0.00  0.00    +0.000 C 
ENDBRANCH   3   5
BRANCH   2  11
ATOM     11  O   UNL     1       5.619   5.407  17.970  0.00  0.00    +0.000 OA
BRANCH  11  12
ATOM     12  C   UNL     1       5.982   4.939  16.689  0.00  0.00    +0.000 A 
ATOM     13  C   UNL     1       7.111   5.347  15.982  0.00  0.00    +0.000 A 
ATOM     14  C   UNL     1       7.285   4.937  14.659  0.00  0.00    +0.000 A 
ATOM     15  C   UNL     1       6.336   4.116  14.053  0.00  0.00    +0.000 A 
ATOM     16 CL   UNL     1       6.527   3.663  12.404  0.00  0.00    +0.000 Cl
ATOM     17  C   UNL     1       5.222   3.679  14.768  0.00  0.00    +0.000 A 
ATOM     18  C   UNL     1       5.047   4.085  16.092  0.00  0.00    +0.000 A 
ENDBRANCH  11  12
ENDBRANCH   2  11
TORSDOF 3
ENDMDL
MODEL 3
REMARK VINA RESULT:      -6.9      2.544      2.906
REMARK  Name = 
REMARK  3 active torsions:
REMARK  status: ('A' for Active; 'I' for Inactive)
REMARK    1  A    between atoms: C_2  and  O_10
REMARK    2  A    between atoms: N_3  and  C_4
REMARK    3  A    between atoms: O_10  and  C_11
REMARK                            x       y       z     vdW  Elec       q    Type
REMARK                         _______ _______ _______ _____ _____    ______ ____
ROOT
ATOM      1  O   UNL     1       3.995   6.671  18.113  0.00  0.00    +0.000 OA
ATOM      2  C   UNL     1       4.274   5.487  18.209  0.00  0.00    +0.000 C 
ATOM      3  N   UNL     1       3.454   4.540  18.758  0.00  0.00    +0.000 N 
ATOM      4  H   UNL     1       3.833   3.608  18.834  0.00  0.00    +0.000 HD
ENDROOT
BRANCH   3   5
ATOM      5  C   UNL     1       2.076   4.819  19.131  0.00  0.00    +0.000 C 
ATOM      6  C   UNL     1       1.166   3.646  18.752  0.00  0.00    +0.000 C 
ATOM      7  C   UNL     1       1.401   2.409  19.621  0.00  0.00    +0.000 C 
ATOM      8  C   UNL     1       1.397   2.724  21.116  0.00  0.00    +0.000 C 
ATOM      9  C   UNL     1       2.282   3.913  21.478  0.00  0.00    +0.000 C 
ATOM     10  C   UNL     1       1.951   5.134  20.624  0.00  0.00    +0.000 C 
ENDBRANCH   3   5
BRANCH   2  11
ATOM     11  O   UNL     1       5.418   4.863  17.737  0.00  0.00    +0.000 OA
BRANCH  11  12
ATOM     12  C   UNL     1       5.694   4.753  16.357  0.00  0.00    +0.000 A 
ATOM     13  C   UNL     1       4.857   4.145  15.424  0.00  0.00    +0.000 A 
ATOM     14  C   UNL     1       5.305   3.954  14.115  0.00  0.00    +0.000 A 
ATOM     15  C   UNL     1       6.580   4.378  13.745  0.00  0.00    +0.000 A 
ATOM     16 CL   UNL     1       7.146   4.085  12.146  0.00  0.00    +0.000 Cl
ATOM     17  C   UNL     1       7.407   5.015  14.668  0.00  0.00    +0.000 A 
ATOM     18  C   UNL     1       6.961   5.211  15.976  0.00  0.00    +0.000 A 
ENDBRANCH  11  12
ENDBRANCH   2  11
TORSDOF 3
ENDMDL
MODEL 4
REMARK VINA RESULT:      -6.8      2.414      2.882
REMARK  Name = 
REMARK  3 active torsions:
REMARK  status: ('A' for Active; 'I' for Inactive)
REMARK    1  A    between atoms: C_2  and  O_10
REMARK    2  A    between atoms: N_3  and  C_4
REMARK    3  A    between atoms: O_10  and  C_11
REMARK                            x       y       z     vdW  Elec       q    Type
REMARK                         _______ _______ _______ _____ _____    ______ ____
ROOT
ATOM      1  O   UNL     1       2.741   7.193  18.490  0.00  0.00    +0.000 OA
ATOM      2  C   UNL     1       3.472   6.219  18.569  0.00  0.00    +0.000 C 
ATOM      3  N   UNL     1       3.065   4.976  18.973  0.00  0.00    +0.000 N 
ATOM      4  H   UNL     1       3.785   4.274  19.055  0.00  0.00    +0.000 HD
ENDROOT
BRANCH   3   5
ATOM      5  C   UNL     1       1.666   4.641  19.185  0.00  0.00    +0.000 C 
ATOM      6  C   UNL     1       1.363   3.234  18.663  0.00  0.00    +0.000 C 
ATOM      7  C   UNL     1       2.001   2.135  19.514  0.00  0.00    +0.000 C 
ATOM      8  C   UNL     1       1.724   2.303  21.007  0.00  0.00    +0.000 C 
ATOM      9  C   UNL     1       2.000   3.717  21.510  0.00  0.00    +0.000 C 
ATOM     10  C   UNL     1       1.278   4.761  20.662  0.00  0.00    +0.000 C 
ENDBRANCH   3   5
BRANCH   2  11
ATOM     11  O   UNL     1       4.810   6.154  18.215  0.00  0.00    +0.000 OA
BRANCH  11  12
ATOM     12  C   UNL     1       5.227   5.660  16.960  0.00  0.00    +0.000 A 
ATOM     13  C   UNL     1       5.186   6.379  15.767  0.00  0.00    +0.000 A 
ATOM     14  C   UNL     1       5.474   5.735  14.562  0.00  0.00    +0.000 A 
ATOM     15  C   UNL     1       5.811   4.383  14.556  0.00  0.00    +0.000 A 
ATOM     16 CL   UNL     1       6.107   3.584  13.061  0.00  0.00    +0.000 Cl
ATOM     17  C   UNL     1       5.885   3.670  15.751  0.00  0.00    +0.000 A 
ATOM     18  C   UNL     1       5.601   4.311  16.958  0.00  0.00    +0.000 A 
ENDBRANCH  11  12
ENDBRANCH   2  11
TORSDOF 3
ENDMDL
MODEL 5
REMARK VINA RESULT:      -6.7      1.187      1.638
REMARK  Name = 
REMARK  3 active torsions:
REMARK  status: ('A' for Active; 'I' for Inactive)
REMARK    1  A    between atoms: C_2  and  O_10
REMARK    2  A    between atoms: N_3  and  C_4
REMARK    3  A    between atoms: O_10  and  C_11
REMARK                            x       y       z     vdW  Elec       q    Type
REMARK                         _______ _______ _______ _____ _____    ______ ____
ROOT
ATOM      1  O   UNL     1       4.434   4.018  16.136  0.00  0.00    +0.000 OA
ATOM      2  C   UNL     1       4.767   3.866  17.300  0.00  0.00    +0.000 C 
ATOM      3  N   UNL     1       3.910   3.532  18.313  0.00  0.00    +0.000 N 
ATOM      4  H   UNL     1       4.304   3.502  19.241  0.00  0.00    +0.000 HD
ENDROOT
BRANCH   3   5
ATOM      5  C   UNL     1       2.528   3.147  18.075  0.00  0.00    +0.000 C 
ATOM      6  C   UNL     1       2.102   2.038  19.042  0.00  0.00    +0.000 C 
ATOM      7  C   UNL     1       1.965   2.529  20.484  0.00  0.00    +0.000 C 
ATOM      8  C   UNL     1       1.121   3.797  20.602  0.00  0.00    +0.000 C 
ATOM      9  C   UNL     1       1.534   4.883  19.613  0.00  0.00    +0.000 C 
ATOM     10  C   UNL     1       1.583   4.347  18.186  0.00  0.00    +0.000 C 
ENDBRANCH   3   5
BRANCH   2  11
ATOM     11  O   UNL     1       6.053   3.936  17.812  0.00  0.00    +0.000 OA
BRANCH  11  12
ATOM     12  C   UNL     1       6.765   5.153  17.878  0.00  0.00    +0.000 A 
ATOM     13  C   UNL     1       7.702   5.475  18.857  0.00  0.00    +0.000 A 
ATOM     14  C   UNL     1       8.226   6.768  18.914  0.00  0.00    +0.000 A 
ATOM     15  C   UNL     1       7.819   7.727  17.989  0.00  0.00    +0.000 A 
ATOM     16 CL   UNL     1       8.424   9.334  18.103  0.00  0.00    +0.000 Cl
ATOM     17  C   UNL     1       6.906   7.399  16.988  0.00  0.00    +0.000 A 
ATOM     18  C   UNL     1       6.383   6.106  16.926  0.00  0.00    +0.000 A 
ENDBRANCH  11  12
ENDBRANCH   2  11
TORSDOF 3
ENDMDL
MODEL 6
REMARK VINA RESULT:      -6.7      2.802      5.496
REMARK  Name = 
REMARK  3 active torsions:
REMARK  status: ('A' for Active; 'I' for Inactive)
REMARK    1  A    between atoms: C_2  and  O_10
REMARK    2  A    between atoms: N_3  and  C_4
REMARK    3  A    between atoms: O_10  and  C_11
REMARK                            x       y       z     vdW  Elec       q    Type
REMARK                         _______ _______ _______ _____ _____    ______ ____
ROOT
ATOM      1  O   UNL     1       3.493   3.872  17.048  0.00  0.00    +0.000 OA
ATOM      2  C   UNL     1       3.825   4.414  18.089  0.00  0.00    +0.000 C 
ATOM      3  N   UNL     1       5.106   4.789  18.393  0.00  0.00    +0.000 N 
ATOM      4  H   UNL     1       5.254   5.169  19.315  0.00  0.00    +0.000 HD
ENDROOT
BRANCH   3   5
ATOM      5  C   UNL     1       6.188   4.738  17.423  0.00  0.00    +0.000 C 
ATOM      6  C   UNL     1       6.106   5.927  16.460  0.00  0.00    +0.000 C 
ATOM      7  C   UNL     1       6.452   7.257  17.131  0.00  0.00    +0.000 C 
ATOM      8  C   UNL     1       7.758   7.202  17.921  0.00  0.00    +0.000 C 
ATOM      9  C   UNL     1       7.842   5.998  18.853  0.00  0.00    +0.000 C 
ATOM     10  C   UNL     1       7.557   4.696  18.109  0.00  0.00    +0.000 C 
ENDBRANCH   3   5
BRANCH   2  11
ATOM     11  O   UNL     1       2.991   4.809  19.123  0.00  0.00    +0.000 OA
BRANCH  11  12
ATOM     12  C   UNL     1       2.592   6.154  19.288  0.00  0.00    +0.000 A 
ATOM     13  C   UNL     1       2.047   6.685  20.453  0.00  0.00    +0.000 A 
ATOM     14  C   UNL     1       1.543   7.988  20.450  0.00  0.00    +0.000 A 
ATOM     15  C   UNL     1       1.594   8.752  19.286  0.00  0.00    +0.000 A 
ATOM     16 CL   UNL     1       0.918  10.334  19.273  0.00  0.00    +0.000 Cl
ATOM     17  C   UNL     1       2.169   8.234  18.127  0.00  0.00    +0.000 A 
ATOM     18  C   UNL     1       2.678   6.934  18.128  0.00  0.00    +0.000 A 
ENDBRANCH  11  12
ENDBRANCH   2  11
TORSDOF 3
ENDMDL
MODEL 7
REMARK VINA RESULT:      -6.7      3.403      4.585
REMARK  Name = 
REMARK  3 active torsions:
REMARK  status: ('A' for Active; 'I' for Inactive)
REMARK    1  A    between atoms: C_2  and  O_10
REMARK    2  A    between atoms: N_3  and  C_4
REMARK    3  A    between atoms: O_10  and  C_11
REMARK                            x       y       z     vdW  Elec       q    Type
REMARK                         _______ _______ _______ _____ _____    ______ ____
ROOT
ATOM      1  O   UNL     1       5.174   5.530  19.009  0.00  0.00    +0.000 OA
ATOM      2  C   UNL     1       4.135   5.582  18.373  0.00  0.00    +0.000 C 
ATOM      3  N   UNL     1       3.241   4.550  18.264  0.00  0.00    +0.000 N 
ATOM      4  H   UNL     1       2.452   4.704  17.654  0.00  0.00    +0.000 HD
ENDROOT
BRANCH   3   5
ATOM      5  C   UNL     1       3.354   3.330  19.046  0.00  0.00    +0.000 C 
ATOM      6  C   UNL     1       2.970   3.588  20.507  0.00  0.00    +0.000 C 
ATOM      7  C   UNL     1       1.474   3.848  20.689  0.00  0.00    +0.000 C 
ATOM      8  C   UNL     1       0.601   2.797  20.007  0.00  0.00    +0.000 C 
ATOM      9  C   UNL     1       1.011   2.526  18.562  0.00  0.00    +0.000 C 
ATOM     10  C   UNL     1       2.499   2.204  18.457  0.00  0.00    +0.000 C 
ENDBRANCH   3   5
BRANCH   2  11
ATOM     11  O   UNL     1       3.625   6.682  17.702  0.00  0.00    +0.000 OA
BRANCH  11  12
ATOM     12  C   UNL     1       2.679   7.546  18.296  0.00  0.00    +0.000 A 
ATOM     13  C   UNL     1       2.139   8.676  17.686  0.00  0.00    +0.000 A 
ATOM     14  C   UNL     1       1.333   9.543  18.426  0.00  0.00    +0.000 A 
ATOM     15  C   UNL     1       1.066   9.273  19.767  0.00  0.00    +0.000 A 
ATOM     16 CL   UNL     1       0.121  10.378  20.688  0.00  0.00    +0.000 Cl
ATOM     17  C   UNL     1       1.578   8.126  20.371  0.00  0.00    +0.000 A 
ATOM     18  C   UNL     1       2.381   7.255  19.633  0.00  0.00    +0.000 A 
ENDBRANCH  11  12
ENDBRANCH   2  11
TORSDOF 3
ENDMDL
MODEL 8
REMARK VINA RESULT:      -6.7      2.474      5.419
REMARK  Name = 
REMARK  3 active torsions:
REMARK  status: ('A' for Active; 'I' for Inactive)
REMARK    1  A    between atoms: C_2  and  O_10
REMARK    2  A    between atoms: N_3  and  C_4
REMARK    3  A    between atoms: O_10  and  C_11
REMARK                            x       y       z     vdW  Elec       q    Type
REMARK                         _______ _______ _______ _____ _____    ______ ____
ROOT
ATOM      1  O   UNL     1       4.745   4.052  15.524  0.00  0.00    +0.000 OA
ATOM      2  C   UNL     1       4.710   4.008  16.743  0.00  0.00    +0.000 C 
ATOM      3  N   UNL     1       5.804   4.136  17.555  0.00  0.00    +0.000 N 
ATOM      4  H   UNL     1       5.645   4.016  18.543  0.00  0.00    +0.000 HD
ENDROOT
BRANCH   3   5
ATOM      5  C   UNL     1       7.114   4.517  17.050  0.00  0.00    +0.000 C 
ATOM      6  C   UNL     1       7.040   5.859  16.316  0.00  0.00    +0.000 C 
ATOM      7  C   UNL     1       6.798   7.038  17.259  0.00  0.00    +0.000 C 
ATOM      8  C   UNL     1       7.751   7.049  18.453  0.00  0.00    +0.000 C 
ATOM      9  C   UNL     1       7.841   5.698  19.157  0.00  0.00    +0.000 C 
ATOM     10  C   UNL     1       8.153   4.576  18.172  0.00  0.00    +0.000 C 
ENDBRANCH   3   5
BRANCH   2  11
ATOM     11  O   UNL     1       3.580   3.888  17.537  0.00  0.00    +0.000 OA
BRANCH  11  12
ATOM     12  C   UNL     1       3.021   4.995  18.212  0.00  0.00    +0.000 A 
ATOM     13  C   UNL     1       3.118   6.318  17.789  0.00  0.00    +0.000 A 
ATOM     14  C   UNL     1       2.664   7.345  18.619  0.00  0.00    +0.000 A 
ATOM     15  C   UNL     1       2.108   7.044  19.861  0.00  0.00    +0.000 A 
ATOM     16 CL   UNL     1       1.604   8.318  20.902  0.00  0.00    +0.000 Cl
ATOM     17  C   UNL     1       1.979   5.718  20.273  0.00  0.00    +0.000 A 
ATOM     18  C   UNL     1       2.430   4.689  19.444  0.00  0.00    +0.000 A 
ENDBRANCH  11  12
ENDBRANCH   2  11
TORSDOF 3
ENDMDL
MODEL 9
REMARK VINA RESULT:      -6.7      2.914      5.564
REMARK  Name = 
REMARK  3 active torsions:
REMARK  status: ('A' for Active; 'I' for Inactive)
REMARK    1  A    between atoms: C_2  and  O_10
REMARK    2  A    between atoms: N_3  and  C_4
REMARK    3  A    between atoms: O_10  and  C_11
REMARK                            x       y       z     vdW  Elec       q    Type
REMARK                         _______ _______ _______ _____ _____    ______ ____
ROOT
ATOM      1  O   UNL     1       3.618   3.374  18.451  0.00  0.00    +0.000 OA
ATOM      2  C   UNL     1       3.915   4.383  19.070  0.00  0.00    +0.000 C 
ATOM      3  N   UNL     1       5.120   5.025  18.972  0.00  0.00    +0.000 N 
ATOM      4  H   UNL     1       5.259   5.812  19.587  0.00  0.00    +0.000 HD
ENDROOT
BRANCH   3   5
ATOM      5  C   UNL     1       6.120   4.667  17.979  0.00  0.00    +0.000 C 
ATOM      6  C   UNL     1       5.873   5.420  16.668  0.00  0.00    +0.000 C 
ATOM      7  C   UNL     1       6.174   6.915  16.778  0.00  0.00    +0.000 C 
ATOM      8  C   UNL     1       7.541   7.202  17.397  0.00  0.00    +0.000 C 
ATOM      9  C   UNL     1       7.789   6.423  18.685  0.00  0.00    +0.000 C 
ATOM     10  C   UNL     1       7.539   4.930  18.490  0.00  0.00    +0.000 C 
ENDBRANCH   3   5
BRANCH   2  11
ATOM     11  O   UNL     1       3.097   5.104  19.925  0.00  0.00    +0.000 OA
BRANCH  11  12
ATOM     12  C   UNL     1       2.515   6.332  19.542  0.00  0.00    +0.000 A 
ATOM     13  C   UNL     1       2.572   6.876  18.260  0.00  0.00    +0.000 A 
ATOM     14  C   UNL     1       2.098   8.170  18.036  0.00  0.00    +0.000 A 
ATOM     15  C   UNL     1       1.563   8.909  19.089  0.00  0.00    +0.000 A 
ATOM     16 CL   UNL     1       1.036  10.524  18.818  0.00  0.00    +0.000 Cl
ATOM     17  C   UNL     1       1.475   8.356  20.366  0.00  0.00    +0.000 A 
ATOM     18  C   UNL     1       1.944   7.061  20.593  0.00  0.00    +0.000 A 
ENDBRANCH  11  12
ENDBRANCH   2  11
TORSDOF 3
ENDMDL
