MODEL 1
REMARK VINA RESULT:      -8.5      0.000      0.000
REMARK  Name = 
REMARK  4 active torsions:
REMARK  status: ('A' for Active; 'I' for Inactive)
REMARK    1  A    between atoms: C_1  and  C_2
REMARK    2  A    between atoms: N_4  and  C_5
REMARK    3  A    between atoms: C_5  and  C_6
REMARK    4  A    between atoms: C_14  and  C_15
REMARK                            x       y       z     vdW  Elec       q    Type
REMARK                         _______ _______ _______ _____ _____    ______ ____
ROOT
ATOM      1  C   UNL     1       0.242   9.552  23.086  0.00  0.00    +0.000 C 
ATOM      2  C   UNL     1       0.363   9.478  21.578  0.00  0.00    +0.000 C 
ATOM      3  N   UNL     1       1.165   8.566  21.125  0.00  0.00    +0.000 NA
ATOM      4  N   UNL     1       1.400   8.469  19.776  0.00  0.00    +0.000 N 
ATOM      5  C   UNL     1       0.948   9.380  18.830  0.00  0.00    +0.000 C 
ATOM      6  O   UNL     1       1.314   9.364  17.643  0.00  0.00    +0.000 OA
ATOM      7  C   UNL     1      -0.053  10.495  19.289  0.00  0.00    +0.000 C 
ATOM      8  C   UNL     1      -0.425  10.448  20.756  0.00  0.00    +0.000 C 
ENDROOT
BRANCH   7   9
ATOM      9  C   UNL     1      -1.255  10.500  18.354  0.00  0.00    +0.000 A 
ATOM     10  C   UNL     1      -1.411   9.667  17.264  0.00  0.00    +0.000 A 
ATOM     11  N   UNL     1      -2.096  10.425  16.355  0.00  0.00    +0.000 N 
ATOM     12  C   UNL     1      -3.064  11.071  17.075  0.00  0.00    +0.000 A 
ATOM     13  C   UNL     1      -4.310  11.556  16.651  0.00  0.00    +0.000 A 
ATOM     14  C   UNL     1      -5.138  12.086  17.629  0.00  0.00    +0.000 A 
ATOM     15  C   UNL     1      -4.688  12.194  18.948  0.00  0.00    +0.000 A 
ATOM     16  I   UNL     1      -6.031  12.896  20.389  0.00  0.00    +0.000 I 
ATOM     17  C   UNL     1      -3.376  11.792  19.337  0.00  0.00    +0.000 A 
ATOM     18  C   UNL     1      -2.554  11.162  18.381  0.00  0.00    +0.000 A 
ATOM     19  H   UNL     1      -1.705  10.822  15.511  0.00  0.00    +0.000 HD
ENDBRANCH   7   9
BRANCH   4  20
ATOM     20  C   UNL     1       2.515   7.550  19.429  0.00  0.00    +0.000 C 
BRANCH  20  21
ATOM     21  C   UNL     1       2.220   6.064  19.350  0.00  0.00    +0.000 A 
ATOM     22  C   UNL     1       1.820   5.379  20.510  0.00  0.00    +0.000 A 
ATOM     23  C   UNL     1       1.314   4.075  20.443  0.00  0.00    +0.000 A 
ATOM     24  C   UNL     1       1.217   3.426  19.214  0.00  0.00    +0.000 A 
ATOM     25  C   UNL     1       1.645   4.075  18.057  0.00  0.00    +0.000 A 
ATOM     26  C   UNL     1       2.150   5.383  18.124  0.00  0.00    +0.000 A 
ENDBRANCH  20  21
ENDBRANCH   4  20
TORSDOF 3
ENDMDL
MODEL 2
REMARK VINA RESULT:      -8.3      3.443      5.593
REMARK  Name = 
REMARK  4 active torsions:
REMARK  status: ('A' for Active; 'I' for Inactive)
REMARK    1  A    between atoms: C_1  and  C_2
REMARK    2  A    between atoms: N_4  and  C_5
REMARK    3  A    between atoms: C_5  and  C_6
REMARK    4  A    between atoms: C_14  and  C_15
REMARK                            x       y       z     vdW  Elec       q    Type
REMARK                         _______ _______ _______ _____ _____    ______ ____
ROOT
ATOM      1  C   UNL     1       1.451   2.625  21.061  0.00  0.00    +0.000 C 
ATOM      2  C   UNL     1       2.239   3.713  20.360  0.00  0.00    +0.000 C 
ATOM      3  N   UNL     1       3.190   3.301  19.581  0.00  0.00    +0.000 NA
ATOM      4  N   UNL     1       4.008   4.211  18.959  0.00  0.00    +0.000 N 
ATOM      5  C   UNL     1       3.998   5.577  19.207  0.00  0.00    +0.000 C 
ATOM      6  O   UNL     1       4.859   6.355  18.761  0.00  0.00    +0.000 OA
ATOM      7  C   UNL     1       2.860   6.162  20.111  0.00  0.00    +0.000 C 
ATOM      8  C   UNL     1       1.871   5.138  20.627  0.00  0.00    +0.000 C 
ENDROOT
BRANCH   7   9
ATOM      9  C   UNL     1       2.206   7.334  19.393  0.00  0.00    +0.000 A 
ATOM     10  C   UNL     1       1.976   7.399  18.033  0.00  0.00    +0.000 A 
ATOM     11  N   UNL     1       2.123   8.723  17.727  0.00  0.00    +0.000 N 
ATOM     12  C   UNL     1       1.485   9.402  18.729  0.00  0.00    +0.000 A 
ATOM     13  C   UNL     1       0.895  10.674  18.702  0.00  0.00    +0.000 A 
ATOM     14  C   UNL     1       0.225  11.074  19.849  0.00  0.00    +0.000 A 
ATOM     15  C   UNL     1       0.228  10.260  20.985  0.00  0.00    +0.000 A 
ATOM     16  I   UNL     1      -0.898  10.875  22.636  0.00  0.00    +0.000 I 
ATOM     17  C   UNL     1       0.925   9.016  21.025  0.00  0.00    +0.000 A 
ATOM     18  C   UNL     1       1.530   8.546  19.842  0.00  0.00    +0.000 A 
ATOM     19  H   UNL     1       2.904   9.124  17.224  0.00  0.00    +0.000 HD
ENDBRANCH   7   9
BRANCH   4  20
ATOM     20  C   UNL     1       5.192   3.598  18.302  0.00  0.00    +0.000 C 
BRANCH  20  21
ATOM     21  C   UNL     1       5.653   4.174  16.976  0.00  0.00    +0.000 A 
ATOM     22  C   UNL     1       6.986   4.596  16.834  0.00  0.00    +0.000 A 
ATOM     23  C   UNL     1       7.516   4.910  15.578  0.00  0.00    +0.000 A 
ATOM     24  C   UNL     1       6.716   4.824  14.440  0.00  0.00    +0.000 A 
ATOM     25  C   UNL     1       5.381   4.444  14.565  0.00  0.00    +0.000 A 
ATOM     26  C   UNL     1       4.849   4.127  15.826  0.00  0.00    +0.000 A 
ENDBRANCH  20  21
ENDBRANCH   4  20
TORSDOF 3
ENDMDL
MODEL 3
REMARK VINA RESULT:      -8.2      4.199      6.467
REMARK  Name = 
REMARK  4 active torsions:
REMARK  status: ('A' for Active; 'I' for Inactive)
REMARK    1  A    between atoms: C_1  and  C_2
REMARK    2  A    between atoms: N_4  and  C_5
REMARK    3  A    between atoms: C_5  and  C_6
REMARK    4  A    between atoms: C_14  and  C_15
REMARK                            x       y       z     vdW  Elec       q    Type
REMARK                         _______ _______ _______ _____ _____    ______ ____
ROOT
ATOM      1  C   UNL     1       3.016   2.005  19.242  0.00  0.00    +0.000 C 
ATOM      2  C   UNL     1       3.548   3.371  18.858  0.00  0.00    +0.000 C 
ATOM      3  N   UNL     1       4.550   3.370  18.035  0.00  0.00    +0.000 NA
ATOM      4  N   UNL     1       5.149   4.554  17.685  0.00  0.00    +0.000 N 
ATOM      5  C   UNL     1       4.859   5.784  18.261  0.00  0.00    +0.000 C 
ATOM      6  O   UNL     1       5.530   6.808  18.050  0.00  0.00    +0.000 OA
ATOM      7  C   UNL     1       3.640   5.879  19.240  0.00  0.00    +0.000 C 
ATOM      8  C   UNL     1       2.895   4.577  19.453  0.00  0.00    +0.000 C 
ENDROOT
BRANCH   7   9
ATOM      9  C   UNL     1       2.742   7.031  18.809  0.00  0.00    +0.000 A 
ATOM     10  C   UNL     1       2.314   7.258  17.516  0.00  0.00    +0.000 A 
ATOM     11  N   UNL     1       2.243   8.620  17.417  0.00  0.00    +0.000 N 
ATOM     12  C   UNL     1       1.671   9.041  18.587  0.00  0.00    +0.000 A 
ATOM     13  C   UNL     1       0.923  10.199  18.842  0.00  0.00    +0.000 A 
ATOM     14  C   UNL     1       0.377  10.322  20.111  0.00  0.00    +0.000 A 
ATOM     15  C   UNL     1       0.649   9.360  21.089  0.00  0.00    +0.000 A 
ATOM     16  I   UNL     1      -0.301   9.551  22.942  0.00  0.00    +0.000 I 
ATOM     17  C   UNL     1       1.500   8.244  20.839  0.00  0.00    +0.000 A 
ATOM     18  C   UNL     1       1.986   8.048  19.530  0.00  0.00    +0.000 A 
ATOM     19  H   UNL     1       2.885   9.203  16.897  0.00  0.00    +0.000 HD
ENDBRANCH   7   9
BRANCH   4  20
ATOM     20  C   UNL     1       6.423   4.381  16.940  0.00  0.00    +0.000 C 
BRANCH  20  21
ATOM     21  C   UNL     1       6.381   4.451  15.425  0.00  0.00    +0.000 A 
ATOM     22  C   UNL     1       7.426   5.089  14.736  0.00  0.00    +0.000 A 
ATOM     23  C   UNL     1       7.553   4.975  13.347  0.00  0.00    +0.000 A 
ATOM     24  C   UNL     1       6.625   4.235  12.618  0.00  0.00    +0.000 A 
ATOM     25  C   UNL     1       5.560   3.625  13.280  0.00  0.00    +0.000 A 
ATOM     26  C   UNL     1       5.433   3.738  14.673  0.00  0.00    +0.000 A 
ENDBRANCH  20  21
ENDBRANCH   4  20
TORSDOF 3
ENDMDL
MODEL 4
REMARK VINA RESULT:      -8.2      3.416      5.626
REMARK  Name = 
REMARK  4 active torsions:
REMARK  status: ('A' for Active; 'I' for Inactive)
REMARK    1  A    between atoms: C_1  and  C_2
REMARK    2  A    between atoms: N_4  and  C_5
REMARK    3  A    between atoms: C_5  and  C_6
REMARK    4  A    between atoms: C_14  and  C_15
REMARK                            x       y       z     vdW  Elec       q    Type
REMARK                         _______ _______ _______ _____ _____    ______ ____
ROOT
ATOM      1  C   UNL     1       1.071   2.506  20.161  0.00  0.00    +0.000 C 
ATOM      2  C   UNL     1       1.988   3.661  19.812  0.00  0.00    +0.000 C 
ATOM      3  N   UNL     1       3.103   3.337  19.236  0.00  0.00    +0.000 NA
ATOM      4  N   UNL     1       4.033   4.305  18.949  0.00  0.00    +0.000 N 
ATOM      5  C   UNL     1       3.944   5.628  19.361  0.00  0.00    +0.000 C 
ATOM      6  O   UNL     1       4.875   6.442  19.235  0.00  0.00    +0.000 OA
ATOM      7  C   UNL     1       2.616   6.111  20.034  0.00  0.00    +0.000 C 
ATOM      8  C   UNL     1       1.547   5.046  20.164  0.00  0.00    +0.000 C 
ENDROOT
BRANCH   7   9
ATOM      9  C   UNL     1       2.135   7.377  19.337  0.00  0.00    +0.000 A 
ATOM     10  C   UNL     1       2.026   7.532  17.970  0.00  0.00    +0.000 A 
ATOM     11  N   UNL     1       2.320   8.850  17.754  0.00  0.00    +0.000 N 
ATOM     12  C   UNL     1       1.665   9.536  18.741  0.00  0.00    +0.000 A 
ATOM     13  C   UNL     1       1.198  10.858  18.744  0.00  0.00    +0.000 A 
ATOM     14  C   UNL     1       0.474  11.262  19.855  0.00  0.00    +0.000 A 
ATOM     15  C   UNL     1       0.307  10.394  20.938  0.00  0.00    +0.000 A 
ATOM     16  I   UNL     1      -0.892  11.030  22.529  0.00  0.00    +0.000 I 
ATOM     17  C   UNL     1       0.881   9.089  20.960  0.00  0.00    +0.000 A 
ATOM     18  C   UNL     1       1.538   8.623  19.803  0.00  0.00    +0.000 A 
ATOM     19  H   UNL     1       3.173   9.200  17.339  0.00  0.00    +0.000 HD
ENDBRANCH   7   9
BRANCH   4  20
ATOM     20  C   UNL     1       5.347   3.761  18.520  0.00  0.00    +0.000 C 
BRANCH  20  21
ATOM     21  C   UNL     1       5.806   4.034  17.100  0.00  0.00    +0.000 A 
ATOM     22  C   UNL     1       4.867   3.998  16.054  0.00  0.00    +0.000 A 
ATOM     23  C   UNL     1       5.189   4.468  14.776  0.00  0.00    +0.000 A 
ATOM     24  C   UNL     1       6.463   4.967  14.515  0.00  0.00    +0.000 A 
ATOM     25  C   UNL     1       7.419   4.977  15.529  0.00  0.00    +0.000 A 
ATOM     26  C   UNL     1       7.096   4.506  16.812  0.00  0.00    +0.000 A 
ENDBRANCH  20  21
ENDBRANCH   4  20
TORSDOF 3
ENDMDL
MODEL 5
REMARK VINA RESULT:      -8.0      3.115      4.993
REMARK  Name = 
REMARK  4 active torsions:
REMARK  status: ('A' for Active; 'I' for Inactive)
REMARK    1  A    between atoms: C_1  and  C_2
REMARK    2  A    between atoms: N_4  and  C_5
REMARK    3  A    between atoms: C_5  and  C_6
REMARK    4  A    between atoms: C_14  and  C_15
REMARK                            x       y       z     vdW  Elec       q    Type
REMARK                         _______ _______ _______ _____ _____    ______ ____
ROOT
ATOM      1  C   UNL     1       1.138   3.840  21.039  0.00  0.00    +0.000 C 
ATOM      2  C   UNL     1       1.714   4.787  20.005  0.00  0.00    +0.000 C 
ATOM      3  N   UNL     1       2.154   4.231  18.920  0.00  0.00    +0.000 NA
ATOM      4  N   UNL     1       2.762   4.996  17.957  0.00  0.00    +0.000 N 
ATOM      5  C   UNL     1       3.085   6.338  18.105  0.00  0.00    +0.000 C 
ATOM      6  O   UNL     1       3.784   6.963  17.289  0.00  0.00    +0.000 OA
ATOM      7  C   UNL     1       2.561   7.095  19.373  0.00  0.00    +0.000 C 
ATOM      8  C   UNL     1       1.737   6.249  20.321  0.00  0.00    +0.000 C 
ENDROOT
BRANCH   7   9
ATOM      9  C   UNL     1       1.864   8.376  18.936  0.00  0.00    +0.000 A 
ATOM     10  C   UNL     1       1.586   8.717  17.627  0.00  0.00    +0.000 A 
ATOM     11  N   UNL     1       1.702  10.079  17.600  0.00  0.00    +0.000 N 
ATOM     12  C   UNL     1       1.088  10.520  18.740  0.00  0.00    +0.000 A 
ATOM     13  C   UNL     1       0.478  11.756  18.998  0.00  0.00    +0.000 A 
ATOM     14  C   UNL     1      -0.158  11.893  20.223  0.00  0.00    +0.000 A 
ATOM     15  C   UNL     1      -0.103  10.861  21.164  0.00  0.00    +0.000 A 
ATOM     16  I   UNL     1      -1.180  11.093  22.940  0.00  0.00    +0.000 I 
ATOM     17  C   UNL     1       0.615   9.652  20.922  0.00  0.00    +0.000 A 
ATOM     18  C   UNL     1       1.185   9.452  19.649  0.00  0.00    +0.000 A 
ATOM     19  H   UNL     1       2.458  10.594  17.168  0.00  0.00    +0.000 HD
ENDBRANCH   7   9
BRANCH   4  20
ATOM     20  C   UNL     1       3.428   4.199  16.894  0.00  0.00    +0.000 C 
BRANCH  20  21
ATOM     21  C   UNL     1       4.944   4.215  16.832  0.00  0.00    +0.000 A 
ATOM     22  C   UNL     1       5.582   4.301  15.582  0.00  0.00    +0.000 A 
ATOM     23  C   UNL     1       6.955   4.555  15.486  0.00  0.00    +0.000 A 
ATOM     24  C   UNL     1       7.720   4.709  16.640  0.00  0.00    +0.000 A 
ATOM     25  C   UNL     1       7.113   4.589  17.889  0.00  0.00    +0.000 A 
ATOM     26  C   UNL     1       5.735   4.336  17.986  0.00  0.00    +0.000 A 
ENDBRANCH  20  21
ENDBRANCH   4  20
TORSDOF 3
ENDMDL
MODEL 6
REMARK VINA RESULT:      -7.7      4.685      8.710
REMARK  Name = 
REMARK  4 active torsions:
REMARK  status: ('A' for Active; 'I' for Inactive)
REMARK    1  A    between atoms: C_1  and  C_2
REMARK    2  A    between atoms: N_4  and  C_5
REMARK    3  A    between atoms: C_5  and  C_6
REMARK    4  A    between atoms: C_14  and  C_15
REMARK                            x       y       z     vdW  Elec       q    Type
REMARK                         _______ _______ _______ _____ _____    ______ ____
ROOT
ATOM      1  C   UNL     1       0.818   3.542  20.327  0.00  0.00    +0.000 C 
ATOM      2  C   UNL     1       1.687   4.620  19.711  0.00  0.00    +0.000 C 
ATOM      3  N   UNL     1       1.670   5.766  20.316  0.00  0.00    +0.000 NA
ATOM      4  N   UNL     1       2.366   6.828  19.793  0.00  0.00    +0.000 N 
ATOM      5  C   UNL     1       2.995   6.823  18.555  0.00  0.00    +0.000 C 
ATOM      6  O   UNL     1       3.471   7.844  18.032  0.00  0.00    +0.000 OA
ATOM      7  C   UNL     1       3.090   5.469  17.773  0.00  0.00    +0.000 C 
ATOM      8  C   UNL     1       2.465   4.284  18.479  0.00  0.00    +0.000 C 
ENDROOT
BRANCH   7   9
ATOM      9  C   UNL     1       4.536   5.237  17.354  0.00  0.00    +0.000 A 
ATOM     10  C   UNL     1       5.600   5.106  18.224  0.00  0.00    +0.000 A 
ATOM     11  N   UNL     1       6.655   5.661  17.555  0.00  0.00    +0.000 N 
ATOM     12  C   UNL     1       6.550   5.207  16.268  0.00  0.00    +0.000 A 
ATOM     13  C   UNL     1       7.554   5.030  15.305  0.00  0.00    +0.000 A 
ATOM     14  C   UNL     1       7.171   4.454  14.104  0.00  0.00    +0.000 A 
ATOM     15  C   UNL     1       5.826   4.153  13.866  0.00  0.00    +0.000 A 
ATOM     16  I   UNL     1       5.340   3.182  12.079  0.00  0.00    +0.000 I 
ATOM     17  C   UNL     1       4.804   4.440  14.818  0.00  0.00    +0.000 A 
ATOM     18  C   UNL     1       5.184   4.935  16.082  0.00  0.00    +0.000 A 
ATOM     19  H   UNL     1       7.083   6.552  17.772  0.00  0.00    +0.000 HD
ENDBRANCH   7   9
BRANCH   4  20
ATOM     20  C   UNL     1       2.058   8.125  20.450  0.00  0.00    +0.000 C 
BRANCH  20  21
ATOM     21  C   UNL     1       0.888   8.934  19.923  0.00  0.00    +0.000 A 
ATOM     22  C   UNL     1      -0.014   9.512  20.832  0.00  0.00    +0.000 A 
ATOM     23  C   UNL     1      -0.962  10.453  20.412  0.00  0.00    +0.000 A 
ATOM     24  C   UNL     1      -1.036  10.820  19.071  0.00  0.00    +0.000 A 
ATOM     25  C   UNL     1      -0.174  10.230  18.147  0.00  0.00    +0.000 A 
ATOM     26  C   UNL     1       0.778   9.287  18.569  0.00  0.00    +0.000 A 
ENDBRANCH  20  21
ENDBRANCH   4  20
TORSDOF 3
ENDMDL
MODEL 7
REMARK VINA RESULT:      -7.7      3.176      5.018
REMARK  Name = 
REMARK  4 active torsions:
REMARK  status: ('A' for Active; 'I' for Inactive)
REMARK    1  A    between atoms: C_1  and  C_2
REMARK    2  A    between atoms: N_4  and  C_5
REMARK    3  A    between atoms: C_5  and  C_6
REMARK    4  A    between atoms: C_14  and  C_15
REMARK                            x       y       z     vdW  Elec       q    Type
REMARK                         _______ _______ _______ _____ _____    ______ ____
ROOT
ATOM      1  C   UNL     1       1.317   3.740  21.160  0.00  0.00    +0.000 C 
ATOM      2  C   UNL     1       1.857   4.681  20.102  0.00  0.00    +0.000 C 
ATOM      3  N   UNL     1       2.293   4.116  19.021  0.00  0.00    +0.000 NA
ATOM      4  N   UNL     1       2.870   4.877  18.035  0.00  0.00    +0.000 N 
ATOM      5  C   UNL     1       3.164   6.229  18.155  0.00  0.00    +0.000 C 
ATOM      6  O   UNL     1       3.837   6.855  17.318  0.00  0.00    +0.000 OA
ATOM      7  C   UNL     1       2.642   6.996  19.417  0.00  0.00    +0.000 C 
ATOM      8  C   UNL     1       1.851   6.149  20.391  0.00  0.00    +0.000 C 
ENDROOT
BRANCH   7   9
ATOM      9  C   UNL     1       1.909   8.254  18.968  0.00  0.00    +0.000 A 
ATOM     10  C   UNL     1       1.609   8.567  17.657  0.00  0.00    +0.000 A 
ATOM     11  N   UNL     1       1.692   9.931  17.607  0.00  0.00    +0.000 N 
ATOM     12  C   UNL     1       1.080  10.375  18.748  0.00  0.00    +0.000 A 
ATOM     13  C   UNL     1       0.443  11.600  18.994  0.00  0.00    +0.000 A 
ATOM     14  C   UNL     1      -0.182  11.741  20.224  0.00  0.00    +0.000 A 
ATOM     15  C   UNL     1      -0.092  10.725  21.179  0.00  0.00    +0.000 A 
ATOM     16  I   UNL     1      -1.155  10.960  22.964  0.00  0.00    +0.000 I 
ATOM     17  C   UNL     1       0.652   9.530  20.948  0.00  0.00    +0.000 A 
ATOM     18  C   UNL     1       1.213   9.324  19.672  0.00  0.00    +0.000 A 
ATOM     19  H   UNL     1       2.431  10.456  17.160  0.00  0.00    +0.000 HD
ENDBRANCH   7   9
BRANCH   4  20
ATOM     20  C   UNL     1       3.538   4.077  16.977  0.00  0.00    +0.000 C 
BRANCH  20  21
ATOM     21  C   UNL     1       4.941   4.474  16.557  0.00  0.00    +0.000 A 
ATOM     22  C   UNL     1       5.982   4.429  17.501  0.00  0.00    +0.000 A 
ATOM     23  C   UNL     1       7.319   4.556  17.110  0.00  0.00    +0.000 A 
ATOM     24  C   UNL     1       7.641   4.749  15.769  0.00  0.00    +0.000 A 
ATOM     25  C   UNL     1       6.621   4.834  14.822  0.00  0.00    +0.000 A 
ATOM     26  C   UNL     1       5.279   4.705  15.214  0.00  0.00    +0.000 A 
ENDBRANCH  20  21
ENDBRANCH   4  20
TORSDOF 3
ENDMDL
MODEL 8
REMARK VINA RESULT:      -7.7      3.856      8.174
REMARK  Name = 
REMARK  4 active torsions:
REMARK  status: ('A' for Active; 'I' for Inactive)
REMARK    1  A    between atoms: C_1  and  C_2
REMARK    2  A    between atoms: N_4  and  C_5
REMARK    3  A    between atoms: C_5  and  C_6
REMARK    4  A    between atoms: C_14  and  C_15
REMARK                            x       y       z     vdW  Elec       q    Type
REMARK                         _______ _______ _______ _____ _____    ______ ____
ROOT
ATOM      1  C   UNL     1      -1.159  10.697  17.991  0.00  0.00    +0.000 C 
ATOM      2  C   UNL     1      -0.390  10.036  19.117  0.00  0.00    +0.000 C 
ATOM      3  N   UNL     1      -0.828  10.279  20.313  0.00  0.00    +0.000 NA
ATOM      4  N   UNL     1      -0.155   9.786  21.402  0.00  0.00    +0.000 N 
ATOM      5  C   UNL     1       1.076   9.144  21.343  0.00  0.00    +0.000 C 
ATOM      6  O   UNL     1       1.742   8.860  22.353  0.00  0.00    +0.000 OA
ATOM      7  C   UNL     1       1.660   8.782  19.936  0.00  0.00    +0.000 C 
ATOM      8  C   UNL     1       0.790   9.186  18.765  0.00  0.00    +0.000 C 
ENDROOT
BRANCH   7   9
ATOM      9  C   UNL     1       2.056   7.312  19.924  0.00  0.00    +0.000 A 
ATOM     10  C   UNL     1       1.383   6.307  20.590  0.00  0.00    +0.000 A 
ATOM     11  N   UNL     1       2.363   5.428  20.957  0.00  0.00    +0.000 N 
ATOM     12  C   UNL     1       3.184   5.321  19.867  0.00  0.00    +0.000 A 
ATOM     13  C   UNL     1       4.011   4.258  19.480  0.00  0.00    +0.000 A 
ATOM     14  C   UNL     1       4.663   4.386  18.263  0.00  0.00    +0.000 A 
ATOM     15  C   UNL     1       4.544   5.566  17.523  0.00  0.00    +0.000 A 
ATOM     16  I   UNL     1       5.461   5.643  15.645  0.00  0.00    +0.000 I 
ATOM     17  C   UNL     1       3.782   6.678  17.986  0.00  0.00    +0.000 A 
ATOM     18  C   UNL     1       3.033   6.534  19.172  0.00  0.00    +0.000 A 
ATOM     19  H   UNL     1       2.708   5.295  21.899  0.00  0.00    +0.000 HD
ENDBRANCH   7   9
BRANCH   4  20
ATOM     20  C   UNL     1      -0.625  10.343  22.697  0.00  0.00    +0.000 C 
BRANCH  20  21
ATOM     21  C   UNL     1      -1.233  11.733  22.699  0.00  0.00    +0.000 A 
ATOM     22  C   UNL     1      -2.516  11.923  23.240  0.00  0.00    +0.000 A 
ATOM     23  C   UNL     1      -3.018  13.207  23.479  0.00  0.00    +0.000 A 
ATOM     24  C   UNL     1      -2.252  14.327  23.163  0.00  0.00    +0.000 A 
ATOM     25  C   UNL     1      -0.992  14.160  22.591  0.00  0.00    +0.000 A 
ATOM     26  C   UNL     1      -0.488  12.871  22.353  0.00  0.00    +0.000 A 
ENDBRANCH  20  21
ENDBRANCH   4  20
TORSDOF 3
ENDMDL
MODEL 9
REMARK VINA RESULT:      -7.6      3.546      6.238
REMARK  Name = 
REMARK  4 active torsions:
REMARK  status: ('A' for Active; 'I' for Inactive)
REMARK    1  A    between atoms: C_1  and  C_2
REMARK    2  A    between atoms: N_4  and  C_5
REMARK    3  A    between atoms: C_5  and  C_6
REMARK    4  A    between atoms: C_14  and  C_15
REMARK                            x       y       z     vdW  Elec       q    Type
REMARK                         _______ _______ _______ _____ _____    ______ ____
ROOT
ATOM      1  C   UNL     1       0.032   8.935  22.348  0.00  0.00    +0.000 C 
ATOM      2  C   UNL     1      -0.623  10.245  21.961  0.00  0.00    +0.000 C 
ATOM      3  N   UNL     1      -0.685  10.486  20.688  0.00  0.00    +0.000 NA
ATOM      4  N   UNL     1      -1.193  11.680  20.241  0.00  0.00    +0.000 N 
ATOM      5  C   UNL     1      -1.530  12.749  21.061  0.00  0.00    +0.000 C 
ATOM      6  O   UNL     1      -1.826  13.873  20.623  0.00  0.00    +0.000 OA
ATOM      7  C   UNL     1      -1.516  12.531  22.612  0.00  0.00    +0.000 C 
ATOM      8  C   UNL     1      -1.123  11.137  23.053  0.00  0.00    +0.000 C 
ENDROOT
BRANCH   7   9
ATOM      9  C   UNL     1      -2.841  13.004  23.194  0.00  0.00    +0.000 A 
ATOM     10  C   UNL     1      -2.970  13.865  24.266  0.00  0.00    +0.000 A 
ATOM     11  N   UNL     1      -4.106  13.446  24.902  0.00  0.00    +0.000 N 
ATOM     12  C   UNL     1      -5.008  13.190  23.905  0.00  0.00    +0.000 A 
ATOM     13  C   UNL     1      -6.409  13.220  23.948  0.00  0.00    +0.000 A 
ATOM     14  C   UNL     1      -7.074  13.011  22.749  0.00  0.00    +0.000 A 
ATOM     15  C   UNL     1      -6.354  12.705  21.590  0.00  0.00    +0.000 A 
ATOM     16  I   UNL     1      -7.415  12.516  19.798  0.00  0.00    +0.000 I 
ATOM     17  C   UNL     1      -4.934  12.574  21.592  0.00  0.00    +0.000 A 
ATOM     18  C   UNL     1      -4.232  12.877  22.776  0.00  0.00    +0.000 A 
ATOM     19  H   UNL     1      -4.135  12.956  25.786  0.00  0.00    +0.000 HD
ENDBRANCH   7   9
BRANCH   4  20
ATOM     20  C   UNL     1      -0.976  11.915  18.790  0.00  0.00    +0.000 C 
BRANCH  20  21
ATOM     21  C   UNL     1      -2.128  11.643  17.841  0.00  0.00    +0.000 A 
ATOM     22  C   UNL     1      -1.857  11.159  16.549  0.00  0.00    +0.000 A 
ATOM     23  C   UNL     1      -2.882  10.674  15.729  0.00  0.00    +0.000 A 
ATOM     24  C   UNL     1      -4.201  10.682  16.178  0.00  0.00    +0.000 A 
ATOM     25  C   UNL     1      -4.494  11.193  17.441  0.00  0.00    +0.000 A 
ATOM     26  C   UNL     1      -3.466  11.678  18.266  0.00  0.00    +0.000 A 
ENDBRANCH  20  21
ENDBRANCH   4  20
TORSDOF 3
ENDMDL
