MODEL 1
REMARK VINA RESULT:      -8.2      0.000      0.000
REMARK  Name = 
REMARK  10 active torsions:
REMARK  status: ('A' for Active; 'I' for Inactive)
REMARK    1  A    between atoms: C_1  and  O_2
REMARK    2  A    between atoms: O_2  and  C_3
REMARK    3  A    between atoms: C_5  and  N_6
REMARK    4  A    between atoms: C_7  and  C_9
REMARK    5  A    between atoms: C_10  and  C_11
REMARK    6  A    between atoms: C_11  and  C_13
REMARK    7  A    between atoms: C_16  and  C_17
REMARK    8  A    between atoms: C_18  and  C_19
REMARK    9  A    between atoms: C_22  and  O_23
REMARK   10  A    between atoms: O_23  and  C_24
REMARK                            x       y       z     vdW  Elec       q    Type
REMARK                         _______ _______ _______ _____ _____    ______ ____
ROOT
ATOM      1  N   UNL     1       9.281   9.390  19.305  0.00  0.00    +0.000 N 
ATOM      2  C   UNL     1       8.374   9.089  18.308  0.00  0.00    +0.000 C 
ATOM      3  O   UNL     1       7.835   9.891  17.552  0.00  0.00    +0.000 OA
ATOM      4  H   UNL     1       9.772   8.624  19.752  0.00  0.00    +0.000 HD
ENDROOT
BRANCH   1   7
ATOM      5  C   UNL     1       9.622  12.553  21.295  0.00  0.00    +0.000 A 
ATOM      6  C   UNL     1       9.238  11.261  20.923  0.00  0.00    +0.000 A 
ATOM      7  C   UNL     1       9.646  10.700  19.711  0.00  0.00    +0.000 A 
ATOM      8  C   UNL     1      10.476  11.458  18.876  0.00  0.00    +0.000 A 
ATOM      9  C   UNL     1      10.861  12.759  19.233  0.00  0.00    +0.000 A 
ATOM     10  C   UNL     1      10.424  13.307  20.441  0.00  0.00    +0.000 A 
BRANCH   5  12
ATOM     11  C   UNL     1       8.278  12.066  23.203  0.00  0.00    +0.000 C 
ATOM     12  O   UNL     1       9.158  12.947  22.521  0.00  0.00    +0.000 OA
ENDBRANCH   5  12
BRANCH   9  13
ATOM     13  O   UNL     1      11.664  13.399  18.322  0.00  0.00    +0.000 OA
ATOM     14  C   UNL     1      11.251  13.360  16.959  0.00  0.00    +0.000 C 
ENDBRANCH   9  13
ENDBRANCH   1   7
BRANCH   2  15
ATOM     15  C   UNL     1       8.100   7.634  18.149  0.00  0.00    +0.000 C 
ATOM     16  C   UNL     1       7.294   7.271  17.136  0.00  0.00    +0.000 C 
BRANCH  16  17
ATOM     17  C   UNL     1       6.919   5.853  16.916  0.00  0.00    +0.000 C 
ATOM     18  O   UNL     1       7.742   5.028  16.531  0.00  0.00    +0.000 OA
BRANCH  17  19
ATOM     19  C   UNL     1       5.515   5.452  17.219  0.00  0.00    +0.000 A 
ATOM     20  C   UNL     1       5.115   4.151  16.910  0.00  0.00    +0.000 A 
ATOM     21  C   UNL     1       3.795   3.748  17.138  0.00  0.00    +0.000 A 
ATOM     22  C   UNL     1       2.845   4.642  17.659  0.00  0.00    +0.000 A 
ATOM     23  C   UNL     1       1.433   4.160  17.866  0.00  0.00    +0.000 C 
ATOM     24  C   UNL     1       3.237   5.961  17.960  0.00  0.00    +0.000 A 
ATOM     25  C   UNL     1       2.280   6.998  18.488  0.00  0.00    +0.000 C 
ATOM     26  C   UNL     1       4.576   6.350  17.745  0.00  0.00    +0.000 A 
ENDBRANCH  17  19
ENDBRANCH  16  17
ENDBRANCH   2  15
TORSDOF 6
ENDMDL
MODEL 2
REMARK VINA RESULT:      -8.0      1.037      1.073
REMARK  Name = 
REMARK  10 active torsions:
REMARK  status: ('A' for Active; 'I' for Inactive)
REMARK    1  A    between atoms: C_1  and  O_2
REMARK    2  A    between atoms: O_2  and  C_3
REMARK    3  A    between atoms: C_5  and  N_6
REMARK    4  A    between atoms: C_7  and  C_9
REMARK    5  A    between atoms: C_10  and  C_11
REMARK    6  A    between atoms: C_11  and  C_13
REMARK    7  A    between atoms: C_16  and  C_17
REMARK    8  A    between atoms: C_18  and  C_19
REMARK    9  A    between atoms: C_22  and  O_23
REMARK   10  A    between atoms: O_23  and  C_24
REMARK                            x       y       z     vdW  Elec       q    Type
REMARK                         _______ _______ _______ _____ _____    ______ ____
ROOT
ATOM      1  N   UNL     1       8.995   9.155  19.027  0.00  0.00    +0.000 N 
ATOM      2  C   UNL     1       8.089   9.070  17.988  0.00  0.00    +0.000 C 
ATOM      3  O   UNL     1       7.711   9.996  17.278  0.00  0.00    +0.000 OA
ATOM      4  H   UNL     1       9.344   8.293  19.430  0.00  0.00    +0.000 HD
ENDROOT
BRANCH   1   7
ATOM      5  C   UNL     1       9.745  12.093  21.238  0.00  0.00    +0.000 A 
ATOM      6  C   UNL     1       9.176  10.906  20.765  0.00  0.00    +0.000 A 
ATOM      7  C   UNL     1       9.547  10.360  19.534  0.00  0.00    +0.000 A 
ATOM      8  C   UNL     1      10.529  11.020  18.786  0.00  0.00    +0.000 A 
ATOM      9  C   UNL     1      11.101  12.217  19.245  0.00  0.00    +0.000 A 
ATOM     10  C   UNL     1      10.699  12.755  20.470  0.00  0.00    +0.000 A 
BRANCH   5  12
ATOM     11  C   UNL     1       7.945  12.928  22.561  0.00  0.00    +0.000 C 
ATOM     12  O   UNL     1       9.290  12.482  22.470  0.00  0.00    +0.000 OA
ENDBRANCH   5  12
BRANCH   9  13
ATOM     13  O   UNL     1      12.041  12.770  18.412  0.00  0.00    +0.000 OA
ATOM     14  C   UNL     1      11.557  13.483  17.278  0.00  0.00    +0.000 C 
ENDBRANCH   9  13
ENDBRANCH   1   7
BRANCH   2  15
ATOM     15  C   UNL     1       7.596   7.691  17.718  0.00  0.00    +0.000 C 
ATOM     16  C   UNL     1       7.920   6.740  18.610  0.00  0.00    +0.000 C 
BRANCH  16  17
ATOM     17  C   UNL     1       7.520   5.325  18.412  0.00  0.00    +0.000 C 
ATOM     18  O   UNL     1       8.350   4.422  18.408  0.00  0.00    +0.000 OA
BRANCH  17  19
ATOM     19  C   UNL     1       6.066   5.030  18.260  0.00  0.00    +0.000 A 
ATOM     20  C   UNL     1       5.622   4.480  17.056  0.00  0.00    +0.000 A 
ATOM     21  C   UNL     1       4.261   4.229  16.857  0.00  0.00    +0.000 A 
ATOM     22  C   UNL     1       3.315   4.543  17.846  0.00  0.00    +0.000 A 
ATOM     23  C   UNL     1       1.859   4.270  17.570  0.00  0.00    +0.000 C 
ATOM     24  C   UNL     1       3.752   5.113  19.058  0.00  0.00    +0.000 A 
ATOM     25  C   UNL     1       2.807   5.515  20.160  0.00  0.00    +0.000 C 
ATOM     26  C   UNL     1       5.129   5.342  19.256  0.00  0.00    +0.000 A 
ENDBRANCH  17  19
ENDBRANCH  16  17
ENDBRANCH   2  15
TORSDOF 6
ENDMDL
MODEL 3
REMARK VINA RESULT:      -7.9      0.359      2.603
REMARK  Name = 
REMARK  10 active torsions:
REMARK  status: ('A' for Active; 'I' for Inactive)
REMARK    1  A    between atoms: C_1  and  O_2
REMARK    2  A    between atoms: O_2  and  C_3
REMARK    3  A    between atoms: C_5  and  N_6
REMARK    4  A    between atoms: C_7  and  C_9
REMARK    5  A    between atoms: C_10  and  C_11
REMARK    6  A    between atoms: C_11  and  C_13
REMARK    7  A    between atoms: C_16  and  C_17
REMARK    8  A    between atoms: C_18  and  C_19
REMARK    9  A    between atoms: C_22  and  O_23
REMARK   10  A    between atoms: O_23  and  C_24
REMARK                            x       y       z     vdW  Elec       q    Type
REMARK                         _______ _______ _______ _____ _____    ______ ____
ROOT
ATOM      1  N   UNL     1       9.336   9.440  19.357  0.00  0.00    +0.000 N 
ATOM      2  C   UNL     1       8.413   9.078  18.397  0.00  0.00    +0.000 C 
ATOM      3  O   UNL     1       7.880   9.827  17.584  0.00  0.00    +0.000 OA
ATOM      4  H   UNL     1       9.819   8.703  19.859  0.00  0.00    +0.000 HD
ENDROOT
BRANCH   1   7
ATOM      5  C   UNL     1      11.110  12.746  19.279  0.00  0.00    +0.000 A 
ATOM      6  C   UNL     1      10.752  11.431  18.966  0.00  0.00    +0.000 A 
ATOM      7  C   UNL     1       9.730  10.771  19.652  0.00  0.00    +0.000 A 
ATOM      8  C   UNL     1       9.048  11.469  20.657  0.00  0.00    +0.000 A 
ATOM      9  C   UNL     1       9.405  12.787  20.987  0.00  0.00    +0.000 A 
ATOM     10  C   UNL     1      10.444  13.418  20.300  0.00  0.00    +0.000 A 
BRANCH   5  12
ATOM     11  C   UNL     1      11.866  13.375  17.107  0.00  0.00    +0.000 C 
ATOM     12  O   UNL     1      12.114  13.256  18.499  0.00  0.00    +0.000 OA
ENDBRANCH   5  12
BRANCH   9  13
ATOM     13  O   UNL     1       8.668  13.352  21.997  0.00  0.00    +0.000 OA
ATOM     14  C   UNL     1       8.762  12.744  23.282  0.00  0.00    +0.000 C 
ENDBRANCH   9  13
ENDBRANCH   1   7
BRANCH   2  15
ATOM     15  C   UNL     1       8.110   7.621  18.357  0.00  0.00    +0.000 C 
ATOM     16  C   UNL     1       7.458   7.161  17.276  0.00  0.00    +0.000 C 
BRANCH  16  17
ATOM     17  C   UNL     1       7.066   5.735  17.157  0.00  0.00    +0.000 C 
ATOM     18  O   UNL     1       7.897   4.862  16.927  0.00  0.00    +0.000 OA
BRANCH  17  19
ATOM     19  C   UNL     1       5.631   5.390  17.370  0.00  0.00    +0.000 A 
ATOM     20  C   UNL     1       5.176   4.143  16.936  0.00  0.00    +0.000 A 
ATOM     21  C   UNL     1       3.829   3.798  17.077  0.00  0.00    +0.000 A 
ATOM     22  C   UNL     1       2.905   4.698  17.634  0.00  0.00    +0.000 A 
ATOM     23  C   UNL     1       1.462   4.281  17.744  0.00  0.00    +0.000 C 
ATOM     24  C   UNL     1       3.353   5.964  18.061  0.00  0.00    +0.000 A 
ATOM     25  C   UNL     1       2.429   7.006  18.636  0.00  0.00    +0.000 C 
ATOM     26  C   UNL     1       4.718   6.293  17.933  0.00  0.00    +0.000 A 
ENDBRANCH  17  19
ENDBRANCH  16  17
ENDBRANCH   2  15
TORSDOF 6
ENDMDL
MODEL 4
REMARK VINA RESULT:      -7.9      1.268      3.173
REMARK  Name = 
REMARK  10 active torsions:
REMARK  status: ('A' for Active; 'I' for Inactive)
REMARK    1  A    between atoms: C_1  and  O_2
REMARK    2  A    between atoms: O_2  and  C_3
REMARK    3  A    between atoms: C_5  and  N_6
REMARK    4  A    between atoms: C_7  and  C_9
REMARK    5  A    between atoms: C_10  and  C_11
REMARK    6  A    between atoms: C_11  and  C_13
REMARK    7  A    between atoms: C_16  and  C_17
REMARK    8  A    between atoms: C_18  and  C_19
REMARK    9  A    between atoms: C_22  and  O_23
REMARK   10  A    between atoms: O_23  and  C_24
REMARK                            x       y       z     vdW  Elec       q    Type
REMARK                         _______ _______ _______ _____ _____    ______ ____
ROOT
ATOM      1  N   UNL     1       8.282   9.895  17.825  0.00  0.00    +0.000 N 
ATOM      2  C   UNL     1       8.104   8.538  18.004  0.00  0.00    +0.000 C 
ATOM      3  O   UNL     1       8.675   7.834  18.831  0.00  0.00    +0.000 OA
ATOM      4  H   UNL     1       7.635  10.387  17.218  0.00  0.00    +0.000 HD
ENDROOT
BRANCH   1   7
ATOM      5  C   UNL     1      11.282  12.043  18.506  0.00  0.00    +0.000 A 
ATOM      6  C   UNL     1      10.343  11.262  17.825  0.00  0.00    +0.000 A 
ATOM      7  C   UNL     1       9.256  10.686  18.486  0.00  0.00    +0.000 A 
ATOM      8  C   UNL     1       9.112  10.928  19.858  0.00  0.00    +0.000 A 
ATOM      9  C   UNL     1      10.053  11.702  20.556  0.00  0.00    +0.000 A 
ATOM     10  C   UNL     1      11.143  12.251  19.876  0.00  0.00    +0.000 A 
BRANCH   5  12
ATOM     11  C   UNL     1      11.901  13.511  16.732  0.00  0.00    +0.000 C 
ATOM     12  O   UNL     1      12.273  12.553  17.711  0.00  0.00    +0.000 OA
ENDBRANCH   5  12
BRANCH   9  13
ATOM     13  O   UNL     1       9.803  11.851  21.897  0.00  0.00    +0.000 OA
ATOM     14  C   UNL     1       8.984  12.952  22.281  0.00  0.00    +0.000 C 
ENDBRANCH   9  13
ENDBRANCH   1   7
BRANCH   2  15
ATOM     15  C   UNL     1       7.073   7.933  17.115  0.00  0.00    +0.000 C 
ATOM     16  C   UNL     1       6.785   6.634  17.308  0.00  0.00    +0.000 C 
BRANCH  16  17
ATOM     17  C   UNL     1       5.808   5.923  16.448  0.00  0.00    +0.000 C 
ATOM     18  O   UNL     1       5.991   5.803  15.241  0.00  0.00    +0.000 OA
BRANCH  17  19
ATOM     19  C   UNL     1       4.614   5.319  17.107  0.00  0.00    +0.000 A 
ATOM     20  C   UNL     1       3.692   6.171  17.718  0.00  0.00    +0.000 A 
ATOM     21  C   UNL     1       2.582   5.643  18.385  0.00  0.00    +0.000 A 
ATOM     22  C   UNL     1       2.382   4.255  18.472  0.00  0.00    +0.000 A 
ATOM     23  C   UNL     1       1.179   3.741  19.219  0.00  0.00    +0.000 C 
ATOM     24  C   UNL     1       3.315   3.388  17.870  0.00  0.00    +0.000 A 
ATOM     25  C   UNL     1       3.203   1.888  17.943  0.00  0.00    +0.000 C 
ATOM     26  C   UNL     1       4.420   3.933  17.183  0.00  0.00    +0.000 A 
ENDBRANCH  17  19
ENDBRANCH  16  17
ENDBRANCH   2  15
TORSDOF 6
ENDMDL
MODEL 5
REMARK VINA RESULT:      -7.9      1.977      9.005
REMARK  Name = 
REMARK  10 active torsions:
REMARK  status: ('A' for Active; 'I' for Inactive)
REMARK    1  A    between atoms: C_1  and  O_2
REMARK    2  A    between atoms: O_2  and  C_3
REMARK    3  A    between atoms: C_5  and  N_6
REMARK    4  A    between atoms: C_7  and  C_9
REMARK    5  A    between atoms: C_10  and  C_11
REMARK    6  A    between atoms: C_11  and  C_13
REMARK    7  A    between atoms: C_16  and  C_17
REMARK    8  A    between atoms: C_18  and  C_19
REMARK    9  A    between atoms: C_22  and  O_23
REMARK   10  A    between atoms: O_23  and  C_24
REMARK                            x       y       z     vdW  Elec       q    Type
REMARK                         _______ _______ _______ _____ _____    ______ ____
ROOT
ATOM      1  N   UNL     1       6.827   7.706  16.982  0.00  0.00    +0.000 N 
ATOM      2  C   UNL     1       7.819   7.924  17.917  0.00  0.00    +0.000 C 
ATOM      3  O   UNL     1       8.234   7.111  18.737  0.00  0.00    +0.000 OA
ATOM      4  H   UNL     1       6.688   8.404  16.259  0.00  0.00    +0.000 HD
ENDROOT
BRANCH   1   7
ATOM      5  C   UNL     1       4.109   5.184  17.561  0.00  0.00    +0.000 A 
ATOM      6  C   UNL     1       4.881   6.345  17.675  0.00  0.00    +0.000 A 
ATOM      7  C   UNL     1       6.025   6.539  16.897  0.00  0.00    +0.000 A 
ATOM      8  C   UNL     1       6.375   5.545  15.974  0.00  0.00    +0.000 A 
ATOM      9  C   UNL     1       5.614   4.371  15.857  0.00  0.00    +0.000 A 
ATOM     10  C   UNL     1       4.485   4.191  16.660  0.00  0.00    +0.000 A 
BRANCH   5  12
ATOM     11  C   UNL     1       1.849   4.500  17.890  0.00  0.00    +0.000 C 
ATOM     12  O   UNL     1       3.009   5.158  18.376  0.00  0.00    +0.000 OA
ENDBRANCH   5  12
BRANCH   9  13
ATOM     13  O   UNL     1       6.071   3.473  14.926  0.00  0.00    +0.000 OA
ATOM     14  C   UNL     1       6.472   4.000  13.664  0.00  0.00    +0.000 C 
ENDBRANCH   9  13
ENDBRANCH   1   7
BRANCH   2  15
ATOM     15  C   UNL     1       8.443   9.274  17.844  0.00  0.00    +0.000 C 
ATOM     16  C   UNL     1       9.105   9.702  18.933  0.00  0.00    +0.000 C 
BRANCH  16  17
ATOM     17  C   UNL     1       9.723  11.049  18.982  0.00  0.00    +0.000 C 
ATOM     18  O   UNL     1      10.426  11.462  18.067  0.00  0.00    +0.000 OA
BRANCH  17  19
ATOM     19  C   UNL     1       9.426  11.905  20.167  0.00  0.00    +0.000 A 
ATOM     20  C   UNL     1       9.784  13.253  20.119  0.00  0.00    +0.000 A 
ATOM     21  C   UNL     1       9.563  14.080  21.225  0.00  0.00    +0.000 A 
ATOM     22  C   UNL     1       9.000  13.572  22.407  0.00  0.00    +0.000 A 
ATOM     23  C   UNL     1       8.803  14.503  23.575  0.00  0.00    +0.000 C 
ATOM     24  C   UNL     1       8.650  12.209  22.470  0.00  0.00    +0.000 A 
ATOM     25  C   UNL     1       8.075  11.569  23.707  0.00  0.00    +0.000 C 
ATOM     26  C   UNL     1       8.858  11.390  21.341  0.00  0.00    +0.000 A 
ENDBRANCH  17  19
ENDBRANCH  16  17
ENDBRANCH   2  15
TORSDOF 6
ENDMDL
MODEL 6
REMARK VINA RESULT:      -7.7      5.982      9.464
REMARK  Name = 
REMARK  10 active torsions:
REMARK  status: ('A' for Active; 'I' for Inactive)
REMARK    1  A    between atoms: C_1  and  O_2
REMARK    2  A    between atoms: O_2  and  C_3
REMARK    3  A    between atoms: C_5  and  N_6
REMARK    4  A    between atoms: C_7  and  C_9
REMARK    5  A    between atoms: C_10  and  C_11
REMARK    6  A    between atoms: C_11  and  C_13
REMARK    7  A    between atoms: C_16  and  C_17
REMARK    8  A    between atoms: C_18  and  C_19
REMARK    9  A    between atoms: C_22  and  O_23
REMARK   10  A    between atoms: O_23  and  C_24
REMARK                            x       y       z     vdW  Elec       q    Type
REMARK                         _______ _______ _______ _____ _____    ______ ____
ROOT
ATOM      1  N   UNL     1       2.631   7.093  18.911  0.00  0.00    +0.000 N 
ATOM      2  C   UNL     1       2.690   8.056  17.924  0.00  0.00    +0.000 C 
ATOM      3  O   UNL     1       3.184   7.923  16.809  0.00  0.00    +0.000 OA
ATOM      4  H   UNL     1       2.056   7.277  19.726  0.00  0.00    +0.000 HD
ENDROOT
BRANCH   1   7
ATOM      5  C   UNL     1       5.213   4.371  18.849  0.00  0.00    +0.000 A 
ATOM      6  C   UNL     1       4.635   5.643  18.906  0.00  0.00    +0.000 A 
ATOM      7  C   UNL     1       3.251   5.818  18.848  0.00  0.00    +0.000 A 
ATOM      8  C   UNL     1       2.443   4.678  18.753  0.00  0.00    +0.000 A 
ATOM      9  C   UNL     1       3.011   3.396  18.684  0.00  0.00    +0.000 A 
ATOM     10  C   UNL     1       4.400   3.248  18.724  0.00  0.00    +0.000 A 
BRANCH   5  12
ATOM     11  C   UNL     1       7.316   4.678  17.766  0.00  0.00    +0.000 C 
ATOM     12  O   UNL     1       6.580   4.370  18.940  0.00  0.00    +0.000 OA
ENDBRANCH   5  12
BRANCH   9  13
ATOM     13  O   UNL     1       2.111   2.366  18.580  0.00  0.00    +0.000 OA
ATOM     14  C   UNL     1       0.752   2.663  18.891  0.00  0.00    +0.000 C 
ENDBRANCH   9  13
ENDBRANCH   1   7
BRANCH   2  15
ATOM     15  C   UNL     1       2.032   9.342  18.283  0.00  0.00    +0.000 C 
ATOM     16  C   UNL     1       0.993   9.281  19.135  0.00  0.00    +0.000 C 
BRANCH  16  17
ATOM     17  C   UNL     1       0.238  10.497  19.522  0.00  0.00    +0.000 C 
ATOM     18  O   UNL     1       0.661  11.265  20.379  0.00  0.00    +0.000 OA
BRANCH  17  19
ATOM     19  C   UNL     1      -1.038  10.779  18.802  0.00  0.00    +0.000 A 
ATOM     20  C   UNL     1      -1.967  11.629  19.406  0.00  0.00    +0.000 A 
ATOM     21  C   UNL     1      -3.193  11.885  18.785  0.00  0.00    +0.000 A 
ATOM     22  C   UNL     1      -3.525  11.281  17.560  0.00  0.00    +0.000 A 
ATOM     23  C   UNL     1      -4.868  11.577  16.946  0.00  0.00    +0.000 C 
ATOM     24  C   UNL     1      -2.600  10.411  16.952  0.00  0.00    +0.000 A 
ATOM     25  C   UNL     1      -2.883   9.691  15.659  0.00  0.00    +0.000 C 
ATOM     26  C   UNL     1      -1.357  10.176  17.577  0.00  0.00    +0.000 A 
ENDBRANCH  17  19
ENDBRANCH  16  17
ENDBRANCH   2  15
TORSDOF 6
ENDMDL
MODEL 7
REMARK VINA RESULT:      -7.7      1.121      2.991
REMARK  Name = 
REMARK  10 active torsions:
REMARK  status: ('A' for Active; 'I' for Inactive)
REMARK    1  A    between atoms: C_1  and  O_2
REMARK    2  A    between atoms: O_2  and  C_3
REMARK    3  A    between atoms: C_5  and  N_6
REMARK    4  A    between atoms: C_7  and  C_9
REMARK    5  A    between atoms: C_10  and  C_11
REMARK    6  A    between atoms: C_11  and  C_13
REMARK    7  A    between atoms: C_16  and  C_17
REMARK    8  A    between atoms: C_18  and  C_19
REMARK    9  A    between atoms: C_22  and  O_23
REMARK   10  A    between atoms: O_23  and  C_24
REMARK                            x       y       z     vdW  Elec       q    Type
REMARK                         _______ _______ _______ _____ _____    ______ ____
ROOT
ATOM      1  N   UNL     1       9.209   9.238  19.201  0.00  0.00    +0.000 N 
ATOM      2  C   UNL     1       8.249   8.806  18.308  0.00  0.00    +0.000 C 
ATOM      3  O   UNL     1       7.609   9.511  17.533  0.00  0.00    +0.000 OA
ATOM      4  H   UNL     1       9.776   8.540  19.669  0.00  0.00    +0.000 HD
ENDROOT
BRANCH   1   7
ATOM      5  C   UNL     1      10.334  12.795  18.792  0.00  0.00    +0.000 A 
ATOM      6  C   UNL     1      10.037  11.460  18.497  0.00  0.00    +0.000 A 
ATOM      7  C   UNL     1       9.527  10.595  19.467  0.00  0.00    +0.000 A 
ATOM      8  C   UNL     1       9.295  11.103  20.752  0.00  0.00    +0.000 A 
ATOM      9  C   UNL     1       9.597  12.438  21.063  0.00  0.00    +0.000 A 
ATOM     10  C   UNL     1      10.126  13.279  20.081  0.00  0.00    +0.000 A 
BRANCH   5  12
ATOM     11  C   UNL     1      11.992  13.056  17.099  0.00  0.00    +0.000 C 
ATOM     12  O   UNL     1      10.804  13.515  17.727  0.00  0.00    +0.000 OA
ENDBRANCH   5  12
BRANCH   9  13
ATOM     13  O   UNL     1       9.335  12.806  22.359  0.00  0.00    +0.000 OA
ATOM     14  C   UNL     1       9.063  14.185  22.595  0.00  0.00    +0.000 C 
ENDBRANCH   9  13
ENDBRANCH   1   7
BRANCH   2  15
ATOM     15  C   UNL     1       8.049   7.331  18.290  0.00  0.00    +0.000 C 
ATOM     16  C   UNL     1       7.069   6.856  17.502  0.00  0.00    +0.000 C 
BRANCH  16  17
ATOM     17  C   UNL     1       6.755   5.407  17.446  0.00  0.00    +0.000 C 
ATOM     18  O   UNL     1       7.560   4.597  17.000  0.00  0.00    +0.000 OA
BRANCH  17  19
ATOM     19  C   UNL     1       5.440   4.962  17.990  0.00  0.00    +0.000 A 
ATOM     20  C   UNL     1       4.903   5.653  19.079  0.00  0.00    +0.000 A 
ATOM     21  C   UNL     1       3.694   5.240  19.647  0.00  0.00    +0.000 A 
ATOM     22  C   UNL     1       3.008   4.117  19.153  0.00  0.00    +0.000 A 
ATOM     23  C   UNL     1       1.720   3.706  19.816  0.00  0.00    +0.000 C 
ATOM     24  C   UNL     1       3.550   3.405  18.066  0.00  0.00    +0.000 A 
ATOM     25  C   UNL     1       2.905   2.170  17.494  0.00  0.00    +0.000 C 
ATOM     26  C   UNL     1       4.760   3.843  17.487  0.00  0.00    +0.000 A 
ENDBRANCH  17  19
ENDBRANCH  16  17
ENDBRANCH   2  15
TORSDOF 6
ENDMDL
MODEL 8
REMARK VINA RESULT:      -7.6      1.984      9.207
REMARK  Name = 
REMARK  10 active torsions:
REMARK  status: ('A' for Active; 'I' for Inactive)
REMARK    1  A    between atoms: C_1  and  O_2
REMARK    2  A    between atoms: O_2  and  C_3
REMARK    3  A    between atoms: C_5  and  N_6
REMARK    4  A    between atoms: C_7  and  C_9
REMARK    5  A    between atoms: C_10  and  C_11
REMARK    6  A    between atoms: C_11  and  C_13
REMARK    7  A    between atoms: C_16  and  C_17
REMARK    8  A    between atoms: C_18  and  C_19
REMARK    9  A    between atoms: C_22  and  O_23
REMARK   10  A    between atoms: O_23  and  C_24
REMARK                            x       y       z     vdW  Elec       q    Type
REMARK                         _______ _______ _______ _____ _____    ______ ____
ROOT
ATOM      1  N   UNL     1       6.793   7.760  17.008  0.00  0.00    +0.000 N 
ATOM      2  C   UNL     1       7.817   7.944  17.915  0.00  0.00    +0.000 C 
ATOM      3  O   UNL     1       8.244   7.110  18.707  0.00  0.00    +0.000 OA
ATOM      4  H   UNL     1       6.643   8.473  16.303  0.00  0.00    +0.000 HD
ENDROOT
BRANCH   1   7
ATOM      5  C   UNL     1       5.388   4.432  15.990  0.00  0.00    +0.000 A 
ATOM      6  C   UNL     1       6.217   5.558  16.039  0.00  0.00    +0.000 A 
ATOM      7  C   UNL     1       5.970   6.607  16.927  0.00  0.00    +0.000 A 
ATOM      8  C   UNL     1       4.874   6.498  17.793  0.00  0.00    +0.000 A 
ATOM      9  C   UNL     1       4.030   5.378  17.747  0.00  0.00    +0.000 A 
ATOM     10  C   UNL     1       4.286   4.350  16.836  0.00  0.00    +0.000 A 
BRANCH   5  12
ATOM     11  C   UNL     1       6.470   3.931  13.925  0.00  0.00    +0.000 C 
ATOM     12  O   UNL     1       5.780   3.484  15.083  0.00  0.00    +0.000 OA
ENDBRANCH   5  12
BRANCH   9  13
ATOM     13  O   UNL     1       2.987   5.400  18.638  0.00  0.00    +0.000 OA
ATOM     14  C   UNL     1       2.612   6.671  19.161  0.00  0.00    +0.000 C 
ENDBRANCH   9  13
ENDBRANCH   1   7
BRANCH   2  15
ATOM     15  C   UNL     1       8.461   9.285  17.848  0.00  0.00    +0.000 C 
ATOM     16  C   UNL     1       9.018   9.754  18.977  0.00  0.00    +0.000 C 
BRANCH  16  17
ATOM     17  C   UNL     1       9.644  11.098  19.031  0.00  0.00    +0.000 C 
ATOM     18  O   UNL     1      10.332  11.519  18.107  0.00  0.00    +0.000 OA
BRANCH  17  19
ATOM     19  C   UNL     1       9.375  11.940  20.232  0.00  0.00    +0.000 A 
ATOM     20  C   UNL     1       9.736  13.288  20.192  0.00  0.00    +0.000 A 
ATOM     21  C   UNL     1       9.540  14.102  21.312  0.00  0.00    +0.000 A 
ATOM     22  C   UNL     1       9.001  13.582  22.500  0.00  0.00    +0.000 A 
ATOM     23  C   UNL     1       8.831  14.500  23.682  0.00  0.00    +0.000 C 
ATOM     24  C   UNL     1       8.648  12.219  22.554  0.00  0.00    +0.000 A 
ATOM     25  C   UNL     1       8.097  11.566  23.795  0.00  0.00    +0.000 C 
ATOM     26  C   UNL     1       8.830  11.413  21.412  0.00  0.00    +0.000 A 
ENDBRANCH  17  19
ENDBRANCH  16  17
ENDBRANCH   2  15
TORSDOF 6
ENDMDL
MODEL 9
REMARK VINA RESULT:      -7.6      1.093      2.773
REMARK  Name = 
REMARK  10 active torsions:
REMARK  status: ('A' for Active; 'I' for Inactive)
REMARK    1  A    between atoms: C_1  and  O_2
REMARK    2  A    between atoms: O_2  and  C_3
REMARK    3  A    between atoms: C_5  and  N_6
REMARK    4  A    between atoms: C_7  and  C_9
REMARK    5  A    between atoms: C_10  and  C_11
REMARK    6  A    between atoms: C_11  and  C_13
REMARK    7  A    between atoms: C_16  and  C_17
REMARK    8  A    between atoms: C_18  and  C_19
REMARK    9  A    between atoms: C_22  and  O_23
REMARK   10  A    between atoms: O_23  and  C_24
REMARK                            x       y       z     vdW  Elec       q    Type
REMARK                         _______ _______ _______ _____ _____    ______ ____
ROOT
ATOM      1  N   UNL     1       8.321  10.058  18.061  0.00  0.00    +0.000 N 
ATOM      2  C   UNL     1       8.234   8.684  18.162  0.00  0.00    +0.000 C 
ATOM      3  O   UNL     1       8.888   7.969  18.915  0.00  0.00    +0.000 OA
ATOM      4  H   UNL     1       7.616  10.544  17.518  0.00  0.00    +0.000 HD
ENDROOT
BRANCH   1   7
ATOM      5  C   UNL     1      11.312  12.214  18.759  0.00  0.00    +0.000 A 
ATOM      6  C   UNL     1      10.390  11.414  18.077  0.00  0.00    +0.000 A 
ATOM      7  C   UNL     1       9.280  10.868  18.724  0.00  0.00    +0.000 A 
ATOM      8  C   UNL     1       9.094  11.159  20.081  0.00  0.00    +0.000 A 
ATOM      9  C   UNL     1      10.017  11.953  20.780  0.00  0.00    +0.000 A 
ATOM     10  C   UNL     1      11.131  12.472  20.115  0.00  0.00    +0.000 A 
BRANCH   5  12
ATOM     11  C   UNL     1      11.977  13.407  16.804  0.00  0.00    +0.000 C 
ATOM     12  O   UNL     1      12.331  12.690  17.977  0.00  0.00    +0.000 OA
ENDBRANCH   5  12
BRANCH   9  13
ATOM     13  O   UNL     1       9.727  12.152  22.106  0.00  0.00    +0.000 OA
ATOM     14  C   UNL     1       8.749  13.143  22.410  0.00  0.00    +0.000 C 
ENDBRANCH   9  13
ENDBRANCH   1   7
BRANCH   2  15
ATOM     15  C   UNL     1       7.198   8.070  17.287  0.00  0.00    +0.000 C 
ATOM     16  C   UNL     1       7.207   6.731  17.174  0.00  0.00    +0.000 C 
BRANCH  16  17
ATOM     17  C   UNL     1       6.248   6.022  16.292  0.00  0.00    +0.000 C 
ATOM     18  O   UNL     1       6.439   5.934  15.083  0.00  0.00    +0.000 OA
BRANCH  17  19
ATOM     19  C   UNL     1       5.062   5.382  16.929  0.00  0.00    +0.000 A 
ATOM     20  C   UNL     1       4.794   4.043  16.638  0.00  0.00    +0.000 A 
ATOM     21  C   UNL     1       3.667   3.418  17.180  0.00  0.00    +0.000 A 
ATOM     22  C   UNL     1       2.775   4.122  18.006  0.00  0.00    +0.000 A 
ATOM     23  C   UNL     1       1.566   3.404  18.547  0.00  0.00    +0.000 C 
ATOM     24  C   UNL     1       3.030   5.477  18.293  0.00  0.00    +0.000 A 
ATOM     25  C   UNL     1       2.111   6.321  19.137  0.00  0.00    +0.000 C 
ATOM     26  C   UNL     1       4.181   6.092  17.757  0.00  0.00    +0.000 A 
ENDBRANCH  17  19
ENDBRANCH  16  17
ENDBRANCH   2  15
TORSDOF 6
ENDMDL
