MODEL 1
REMARK VINA RESULT:      -7.5      0.000      0.000
REMARK  Name = 
REMARK  10 active torsions:
REMARK  status: ('A' for Active; 'I' for Inactive)
REMARK    1  A    between atoms: C_1  and  O_2
REMARK    2  A    between atoms: O_2  and  C_3
REMARK    3  A    between atoms: C_6  and  O_7
REMARK    4  A    between atoms: O_7  and  C_8
REMARK    5  A    between atoms: C_8  and  C_9
REMARK    6  A    between atoms: C_9  and  O_10
REMARK    7  A    between atoms: C_9  and  C_11
REMARK    8  A    between atoms: C_11  and  N_12
REMARK    9  A    between atoms: N_12  and  C_13
REMARK   10  A    between atoms: N_12  and  C_19
REMARK                            x       y       z     vdW  Elec       q    Type
REMARK                         _______ _______ _______ _____ _____    ______ ____
ROOT
ATOM      1  C   UNL     1       2.627   5.822  18.473  0.00  0.00    +0.000 C 
ENDROOT
BRANCH   1   2
ATOM      2  C   UNL     1       2.780   6.776  19.689  0.00  0.00    +0.000 C 
BRANCH   2   3
ATOM      3  O   UNL     1       2.417   6.001  20.861  0.00  0.00    +0.000 OA
ATOM      4  H   UNL     1       3.215   5.474  21.091  0.00  0.00    +0.000 HD
ENDBRANCH   2   3
BRANCH   2   5
ATOM      5  C   UNL     1       1.855   8.002  19.682  0.00  0.00    +0.000 C 
BRANCH   5   6
ATOM      6  O   UNL     1       1.054   7.922  20.863  0.00  0.00    +0.000 OA
BRANCH   6  10
ATOM      7  C   UNL     1      -0.967  11.230  22.344  0.00  0.00    +0.000 A 
ATOM      8  C   UNL     1      -0.638  10.137  23.146  0.00  0.00    +0.000 A 
ATOM      9  C   UNL     1       0.026   9.050  22.597  0.00  0.00    +0.000 A 
ATOM     10  C   UNL     1       0.327   9.006  21.232  0.00  0.00    +0.000 A 
ATOM     11  C   UNL     1      -0.038  10.072  20.415  0.00  0.00    +0.000 A 
ATOM     12  C   UNL     1      -0.682  11.186  20.975  0.00  0.00    +0.000 A 
BRANCH   7  14
ATOM     13  C   UNL     1      -2.953  12.452  22.636  0.00  0.00    +0.000 C 
ATOM     14  O   UNL     1      -1.585  12.269  22.985  0.00  0.00    +0.000 OA
ENDBRANCH   7  14
ENDBRANCH   6  10
ENDBRANCH   5   6
ENDBRANCH   2   5
ENDBRANCH   1   2
BRANCH   1  15
ATOM     15  N   UNL     1       3.637   4.754  18.140  0.00  0.00    +0.000 NA
BRANCH  15  16
ATOM     16  C   UNL     1       2.995   3.397  18.306  0.00  0.00    +0.000 C 
ATOM     17  C   UNL     1       3.607   2.390  19.300  0.00  0.00    +0.000 C 
ATOM     18  C   UNL     1       3.214   2.650  20.739  0.00  0.00    +0.000 C 
ATOM     19  C   UNL     1       1.708   2.595  20.957  0.00  0.00    +0.000 C 
ATOM     20  C   UNL     1       0.813   3.030  19.791  0.00  0.00    +0.000 C 
ATOM     21  C   UNL     1       1.452   3.308  18.420  0.00  0.00    +0.000 C 
ENDBRANCH  15  16
BRANCH  15  22
ATOM     22  C   UNL     1       4.248   5.115  16.813  0.00  0.00    +0.000 C 
ATOM     23  C   UNL     1       4.790   6.583  16.738  0.00  0.00    +0.000 C 
ATOM     24  C   UNL     1       6.078   6.797  17.531  0.00  0.00    +0.000 C 
ATOM     25  C   UNL     1       7.191   5.881  17.043  0.00  0.00    +0.000 C 
ATOM     26  C   UNL     1       6.737   4.430  17.016  0.00  0.00    +0.000 C 
ATOM     27  C   UNL     1       5.420   4.277  16.262  0.00  0.00    +0.000 C 
ENDBRANCH  15  22
ENDBRANCH   1  15
TORSDOF 9
ENDMDL
MODEL 2
REMARK VINA RESULT:      -7.4      0.601      1.112
REMARK  Name = 
REMARK  10 active torsions:
REMARK  status: ('A' for Active; 'I' for Inactive)
REMARK    1  A    between atoms: C_1  and  O_2
REMARK    2  A    between atoms: O_2  and  C_3
REMARK    3  A    between atoms: C_6  and  O_7
REMARK    4  A    between atoms: O_7  and  C_8
REMARK    5  A    between atoms: C_8  and  C_9
REMARK    6  A    between atoms: C_9  and  O_10
REMARK    7  A    between atoms: C_9  and  C_11
REMARK    8  A    between atoms: C_11  and  N_12
REMARK    9  A    between atoms: N_12  and  C_13
REMARK   10  A    between atoms: N_12  and  C_19
REMARK                            x       y       z     vdW  Elec       q    Type
REMARK                         _______ _______ _______ _____ _____    ______ ____
ROOT
ATOM      1  C   UNL     1       2.795   5.836  18.218  0.00  0.00    +0.000 C 
ENDROOT
BRANCH   1   2
ATOM      2  C   UNL     1       2.915   6.771  19.453  0.00  0.00    +0.000 C 
BRANCH   2   3
ATOM      3  O   UNL     1       2.747   5.925  20.620  0.00  0.00    +0.000 OA
ATOM      4  H   UNL     1       3.415   6.234  21.272  0.00  0.00    +0.000 HD
ENDBRANCH   2   3
BRANCH   2   5
ATOM      5  C   UNL     1       1.839   7.863  19.556  0.00  0.00    +0.000 C 
BRANCH   5   6
ATOM      6  O   UNL     1       1.550   8.027  20.946  0.00  0.00    +0.000 OA
BRANCH   6  10
ATOM      7  C   UNL     1      -0.997  11.198  21.772  0.00  0.00    +0.000 A 
ATOM      8  C   UNL     1      -0.469  10.977  20.499  0.00  0.00    +0.000 A 
ATOM      9  C   UNL     1       0.390   9.911  20.281  0.00  0.00    +0.000 A 
ATOM     10  C   UNL     1       0.781   9.076  21.332  0.00  0.00    +0.000 A 
ATOM     11  C   UNL     1       0.295   9.315  22.614  0.00  0.00    +0.000 A 
ATOM     12  C   UNL     1      -0.598  10.376  22.831  0.00  0.00    +0.000 A 
BRANCH   7  14
ATOM     13  C   UNL     1      -1.641  13.300  20.942  0.00  0.00    +0.000 C 
ATOM     14  O   UNL     1      -1.864  12.251  21.878  0.00  0.00    +0.000 OA
ENDBRANCH   7  14
ENDBRANCH   6  10
ENDBRANCH   5   6
ENDBRANCH   2   5
ENDBRANCH   1   2
BRANCH   1  15
ATOM     15  N   UNL     1       3.747   4.696  17.960  0.00  0.00    +0.000 NA
BRANCH  15  16
ATOM     16  C   UNL     1       3.008   3.389  18.115  0.00  0.00    +0.000 C 
ATOM     17  C   UNL     1       3.579   2.305  19.050  0.00  0.00    +0.000 C 
ATOM     18  C   UNL     1       3.268   2.547  20.513  0.00  0.00    +0.000 C 
ATOM     19  C   UNL     1       1.773   2.602  20.795  0.00  0.00    +0.000 C 
ATOM     20  C   UNL     1       0.868   3.144  19.683  0.00  0.00    +0.000 C 
ATOM     21  C   UNL     1       1.469   3.416  18.294  0.00  0.00    +0.000 C 
ENDBRANCH  15  16
BRANCH  15  22
ATOM     22  C   UNL     1       4.452   4.988  16.663  0.00  0.00    +0.000 C 
ATOM     23  C   UNL     1       4.865   6.488  16.485  0.00  0.00    +0.000 C 
ATOM     24  C   UNL     1       6.044   6.904  17.363  0.00  0.00    +0.000 C 
ATOM     25  C   UNL     1       7.277   6.060  17.075  0.00  0.00    +0.000 C 
ATOM     26  C   UNL     1       6.960   4.576  17.159  0.00  0.00    +0.000 C 
ATOM     27  C   UNL     1       5.743   4.222  16.310  0.00  0.00    +0.000 C 
ENDBRANCH  15  22
ENDBRANCH   1  15
TORSDOF 9
ENDMDL
MODEL 3
REMARK VINA RESULT:      -7.3      3.670      8.689
REMARK  Name = 
REMARK  10 active torsions:
REMARK  status: ('A' for Active; 'I' for Inactive)
REMARK    1  A    between atoms: C_1  and  O_2
REMARK    2  A    between atoms: O_2  and  C_3
REMARK    3  A    between atoms: C_6  and  O_7
REMARK    4  A    between atoms: O_7  and  C_8
REMARK    5  A    between atoms: C_8  and  C_9
REMARK    6  A    between atoms: C_9  and  O_10
REMARK    7  A    between atoms: C_9  and  C_11
REMARK    8  A    between atoms: C_11  and  N_12
REMARK    9  A    between atoms: N_12  and  C_13
REMARK   10  A    between atoms: N_12  and  C_19
REMARK                            x       y       z     vdW  Elec       q    Type
REMARK                         _______ _______ _______ _____ _____    ______ ____
ROOT
ATOM      1  C   UNL     1       4.894   6.281  17.550  0.00  0.00    +0.000 C 
ENDROOT
BRANCH   1   2
ATOM      2  C   UNL     1       6.443   6.327  17.663  0.00  0.00    +0.000 C 
BRANCH   2   3
ATOM      3  O   UNL     1       6.855   7.587  17.073  0.00  0.00    +0.000 OA
ATOM      4  H   UNL     1       6.358   7.661  16.226  0.00  0.00    +0.000 HD
ENDBRANCH   2   3
BRANCH   2   5
ATOM      5  C   UNL     1       7.189   5.228  16.891  0.00  0.00    +0.000 C 
BRANCH   5   6
ATOM      6  O   UNL     1       7.427   5.736  15.577  0.00  0.00    +0.000 OA
BRANCH   6  10
ATOM      7  C   UNL     1       5.978   3.446  12.433  0.00  0.00    +0.000 A 
ATOM      8  C   UNL     1       5.435   3.379  13.716  0.00  0.00    +0.000 A 
ATOM      9  C   UNL     1       5.967   4.155  14.735  0.00  0.00    +0.000 A 
ATOM     10  C   UNL     1       7.080   4.972  14.511  0.00  0.00    +0.000 A 
ATOM     11  C   UNL     1       7.656   5.011  13.244  0.00  0.00    +0.000 A 
ATOM     12  C   UNL     1       7.101   4.249  12.205  0.00  0.00    +0.000 A 
BRANCH   7  14
ATOM     13  C   UNL     1       5.964   1.400  11.276  0.00  0.00    +0.000 C 
ATOM     14  O   UNL     1       5.361   2.672  11.489  0.00  0.00    +0.000 OA
ENDBRANCH   7  14
ENDBRANCH   6  10
ENDBRANCH   5   6
ENDBRANCH   2   5
ENDBRANCH   1   2
BRANCH   1  15
ATOM     15  N   UNL     1       4.034   5.438  18.458  0.00  0.00    +0.000 NA
BRANCH  15  16
ATOM     16  C   UNL     1       2.612   5.942  18.399  0.00  0.00    +0.000 C 
ATOM     17  C   UNL     1       1.697   5.764  19.626  0.00  0.00    +0.000 C 
ATOM     18  C   UNL     1       1.923   6.805  20.702  0.00  0.00    +0.000 C 
ATOM     19  C   UNL     1       1.689   8.225  20.205  0.00  0.00    +0.000 C 
ATOM     20  C   UNL     1       2.000   8.514  18.732  0.00  0.00    +0.000 C 
ATOM     21  C   UNL     1       2.338   7.342  17.794  0.00  0.00    +0.000 C 
ENDBRANCH  15  16
BRANCH  15  22
ATOM     22  C   UNL     1       4.313   3.997  18.126  0.00  0.00    +0.000 C 
ATOM     23  C   UNL     1       4.510   3.081  19.381  0.00  0.00    +0.000 C 
ATOM     24  C   UNL     1       3.212   2.787  20.131  0.00  0.00    +0.000 C 
ATOM     25  C   UNL     1       2.192   2.105  19.231  0.00  0.00    +0.000 C 
ATOM     26  C   UNL     1       1.979   2.890  17.947  0.00  0.00    +0.000 C 
ATOM     27  C   UNL     1       3.307   3.206  17.266  0.00  0.00    +0.000 C 
ENDBRANCH  15  22
ENDBRANCH   1  15
TORSDOF 9
ENDMDL
MODEL 4
REMARK VINA RESULT:      -7.3      1.152      1.396
REMARK  Name = 
REMARK  10 active torsions:
REMARK  status: ('A' for Active; 'I' for Inactive)
REMARK    1  A    between atoms: C_1  and  O_2
REMARK    2  A    between atoms: O_2  and  C_3
REMARK    3  A    between atoms: C_6  and  O_7
REMARK    4  A    between atoms: O_7  and  C_8
REMARK    5  A    between atoms: C_8  and  C_9
REMARK    6  A    between atoms: C_9  and  O_10
REMARK    7  A    between atoms: C_9  and  C_11
REMARK    8  A    between atoms: C_11  and  N_12
REMARK    9  A    between atoms: N_12  and  C_13
REMARK   10  A    between atoms: N_12  and  C_19
REMARK                            x       y       z     vdW  Elec       q    Type
REMARK                         _______ _______ _______ _____ _____    ______ ____
ROOT
ATOM      1  C   UNL     1       2.775   5.527  18.163  0.00  0.00    +0.000 C 
ENDROOT
BRANCH   1   2
ATOM      2  C   UNL     1       2.723   6.611  19.274  0.00  0.00    +0.000 C 
BRANCH   2   3
ATOM      3  O   UNL     1       1.803   6.115  20.281  0.00  0.00    +0.000 OA
ATOM      4  H   UNL     1       2.193   5.273  20.607  0.00  0.00    +0.000 HD
ENDBRANCH   2   3
BRANCH   2   5
ATOM      5  C   UNL     1       2.177   7.978  18.831  0.00  0.00    +0.000 C 
BRANCH   5   6
ATOM      6  O   UNL     1       1.540   8.556  19.973  0.00  0.00    +0.000 OA
BRANCH   6  10
ATOM      7  C   UNL     1      -1.059  11.781  19.708  0.00  0.00    +0.000 A 
ATOM      8  C   UNL     1      -0.675  11.231  20.931  0.00  0.00    +0.000 A 
ATOM      9  C   UNL     1       0.185  10.143  20.963  0.00  0.00    +0.000 A 
ATOM     10  C   UNL     1       0.637   9.550  19.780  0.00  0.00    +0.000 A 
ATOM     11  C   UNL     1       0.225  10.065  18.554  0.00  0.00    +0.000 A 
ATOM     12  C   UNL     1      -0.622  11.184  18.521  0.00  0.00    +0.000 A 
BRANCH   7  14
ATOM     13  C   UNL     1      -3.044  12.690  20.576  0.00  0.00    +0.000 C 
ATOM     14  O   UNL     1      -1.878  12.875  19.782  0.00  0.00    +0.000 OA
ENDBRANCH   7  14
ENDBRANCH   6  10
ENDBRANCH   5   6
ENDBRANCH   2   5
ENDBRANCH   1   2
BRANCH   1  15
ATOM     15  N   UNL     1       3.908   4.541  18.037  0.00  0.00    +0.000 NA
BRANCH  15  16
ATOM     16  C   UNL     1       3.389   3.151  18.319  0.00  0.00    +0.000 C 
ATOM     17  C   UNL     1       3.786   2.450  19.633  0.00  0.00    +0.000 C 
ATOM     18  C   UNL     1       2.969   2.897  20.826  0.00  0.00    +0.000 C 
ATOM     19  C   UNL     1       1.479   2.643  20.648  0.00  0.00    +0.000 C 
ATOM     20  C   UNL     1       0.920   2.714  19.221  0.00  0.00    +0.000 C 
ATOM     21  C   UNL     1       1.897   2.840  18.040  0.00  0.00    +0.000 C 
ENDBRANCH  15  16
BRANCH  15  22
ATOM     22  C   UNL     1       4.593   4.812  16.724  0.00  0.00    +0.000 C 
ATOM     23  C   UNL     1       4.858   6.330  16.445  0.00  0.00    +0.000 C 
ATOM     24  C   UNL     1       5.983   6.918  17.296  0.00  0.00    +0.000 C 
ATOM     25  C   UNL     1       7.296   6.182  17.068  0.00  0.00    +0.000 C 
ATOM     26  C   UNL     1       7.124   4.683  17.253  0.00  0.00    +0.000 C 
ATOM     27  C   UNL     1       5.956   4.154  16.427  0.00  0.00    +0.000 C 
ENDBRANCH  15  22
ENDBRANCH   1  15
TORSDOF 9
ENDMDL
MODEL 5
REMARK VINA RESULT:      -7.2      0.951      1.296
REMARK  Name = 
REMARK  10 active torsions:
REMARK  status: ('A' for Active; 'I' for Inactive)
REMARK    1  A    between atoms: C_1  and  O_2
REMARK    2  A    between atoms: O_2  and  C_3
REMARK    3  A    between atoms: C_6  and  O_7
REMARK    4  A    between atoms: O_7  and  C_8
REMARK    5  A    between atoms: C_8  and  C_9
REMARK    6  A    between atoms: C_9  and  O_10
REMARK    7  A    between atoms: C_9  and  C_11
REMARK    8  A    between atoms: C_11  and  N_12
REMARK    9  A    between atoms: N_12  and  C_13
REMARK   10  A    between atoms: N_12  and  C_19
REMARK                            x       y       z     vdW  Elec       q    Type
REMARK                         _______ _______ _______ _____ _____    ______ ____
ROOT
ATOM      1  C   UNL     1       2.962   6.315  18.714  0.00  0.00    +0.000 C 
ENDROOT
BRANCH   1   2
ATOM      2  C   UNL     1       2.721   6.532  20.233  0.00  0.00    +0.000 C 
BRANCH   2   3
ATOM      3  O   UNL     1       2.746   5.214  20.839  0.00  0.00    +0.000 OA
ATOM      4  H   UNL     1       3.667   4.885  20.727  0.00  0.00    +0.000 HD
ENDBRANCH   2   3
BRANCH   2   5
ATOM      5  C   UNL     1       1.362   7.148  20.600  0.00  0.00    +0.000 C 
BRANCH   5   6
ATOM      6  O   UNL     1       1.473   8.554  20.372  0.00  0.00    +0.000 OA
BRANCH   6  10
ATOM      7  C   UNL     1      -1.052  11.051  22.521  0.00  0.00    +0.000 A 
ATOM      8  C   UNL     1      -0.478   9.910  23.081  0.00  0.00    +0.000 A 
ATOM      9  C   UNL     1       0.347   9.101  22.314  0.00  0.00    +0.000 A 
ATOM     10  C   UNL     1       0.575   9.382  20.964  0.00  0.00    +0.000 A 
ATOM     11  C   UNL     1      -0.030  10.494  20.383  0.00  0.00    +0.000 A 
ATOM     12  C   UNL     1      -0.841  11.330  21.166  0.00  0.00    +0.000 A 
BRANCH   7  14
ATOM     13  C   UNL     1      -2.427  12.942  22.764  0.00  0.00    +0.000 C 
ATOM     14  O   UNL     1      -1.819  11.805  23.367  0.00  0.00    +0.000 OA
ENDBRANCH   7  14
ENDBRANCH   6  10
ENDBRANCH   5   6
ENDBRANCH   2   5
ENDBRANCH   1   2
BRANCH   1  15
ATOM     15  N   UNL     1       4.022   5.386  18.179  0.00  0.00    +0.000 NA
BRANCH  15  16
ATOM     16  C   UNL     1       3.355   4.217  17.494  0.00  0.00    +0.000 C 
ATOM     17  C   UNL     1       3.923   2.799  17.698  0.00  0.00    +0.000 C 
ATOM     18  C   UNL     1       3.494   2.160  19.002  0.00  0.00    +0.000 C 
ATOM     19  C   UNL     1       1.982   2.030  19.125  0.00  0.00    +0.000 C 
ATOM     20  C   UNL     1       1.127   3.101  18.437  0.00  0.00    +0.000 C 
ATOM     21  C   UNL     1       1.808   4.123  17.512  0.00  0.00    +0.000 C 
ENDBRANCH  15  16
BRANCH  15  22
ATOM     22  C   UNL     1       5.002   6.225  17.403  0.00  0.00    +0.000 C 
ATOM     23  C   UNL     1       6.488   6.064  17.870  0.00  0.00    +0.000 C 
ATOM     24  C   UNL     1       7.114   4.732  17.461  0.00  0.00    +0.000 C 
ATOM     25  C   UNL     1       7.094   4.548  15.951  0.00  0.00    +0.000 C 
ATOM     26  C   UNL     1       5.696   4.751  15.391  0.00  0.00    +0.000 C 
ATOM     27  C   UNL     1       5.093   6.067  15.872  0.00  0.00    +0.000 C 
ENDBRANCH  15  22
ENDBRANCH   1  15
TORSDOF 9
ENDMDL
MODEL 6
REMARK VINA RESULT:      -7.2      2.275      2.717
REMARK  Name = 
REMARK  10 active torsions:
REMARK  status: ('A' for Active; 'I' for Inactive)
REMARK    1  A    between atoms: C_1  and  O_2
REMARK    2  A    between atoms: O_2  and  C_3
REMARK    3  A    between atoms: C_6  and  O_7
REMARK    4  A    between atoms: O_7  and  C_8
REMARK    5  A    between atoms: C_8  and  C_9
REMARK    6  A    between atoms: C_9  and  O_10
REMARK    7  A    between atoms: C_9  and  C_11
REMARK    8  A    between atoms: C_11  and  N_12
REMARK    9  A    between atoms: N_12  and  C_13
REMARK   10  A    between atoms: N_12  and  C_19
REMARK                            x       y       z     vdW  Elec       q    Type
REMARK                         _______ _______ _______ _____ _____    ______ ____
ROOT
ATOM      1  C   UNL     1       2.574   6.561  18.057  0.00  0.00    +0.000 C 
ENDROOT
BRANCH   1   2
ATOM      2  C   UNL     1       2.476   8.021  18.580  0.00  0.00    +0.000 C 
BRANCH   2   3
ATOM      3  O   UNL     1       1.878   7.939  19.899  0.00  0.00    +0.000 OA
ATOM      4  H   UNL     1       1.872   6.983  20.132  0.00  0.00    +0.000 HD
ENDBRANCH   2   3
BRANCH   2   5
ATOM      5  C   UNL     1       1.575   8.954  17.757  0.00  0.00    +0.000 C 
BRANCH   5   6
ATOM      6  O   UNL     1       0.966   9.859  18.681  0.00  0.00    +0.000 OA
BRANCH   6  10
ATOM      7  C   UNL     1      -2.903  11.288  18.221  0.00  0.00    +0.000 A 
ATOM      8  C   UNL     1      -2.070  11.711  19.257  0.00  0.00    +0.000 A 
ATOM      9  C   UNL     1      -0.790  11.191  19.374  0.00  0.00    +0.000 A 
ATOM     10  C   UNL     1      -0.333  10.202  18.496  0.00  0.00    +0.000 A 
ATOM     11  C   UNL     1      -1.173   9.741  17.486  0.00  0.00    +0.000 A 
ATOM     12  C   UNL     1      -2.458  10.289  17.349  0.00  0.00    +0.000 A 
BRANCH   7  14
ATOM     13  C   UNL     1      -5.230  10.984  18.090  0.00  0.00    +0.000 C 
ATOM     14  O   UNL     1      -4.132  11.887  18.168  0.00  0.00    +0.000 OA
ENDBRANCH   7  14
ENDBRANCH   6  10
ENDBRANCH   5   6
ENDBRANCH   2   5
ENDBRANCH   1   2
BRANCH   1  15
ATOM     15  N   UNL     1       3.836   5.743  18.150  0.00  0.00    +0.000 NA
BRANCH  15  16
ATOM     16  C   UNL     1       3.472   4.280  18.238  0.00  0.00    +0.000 C 
ATOM     17  C   UNL     1       3.697   3.525  19.562  0.00  0.00    +0.000 C 
ATOM     18  C   UNL     1       2.605   3.763  20.584  0.00  0.00    +0.000 C 
ATOM     19  C   UNL     1       1.231   3.338  20.086  0.00  0.00    +0.000 C 
ATOM     20  C   UNL     1       0.961   3.459  18.581  0.00  0.00    +0.000 C 
ATOM     21  C   UNL     1       2.124   3.808  17.637  0.00  0.00    +0.000 C 
ENDBRANCH  15  16
BRANCH  15  22
ATOM     22  C   UNL     1       4.750   6.204  17.046  0.00  0.00    +0.000 C 
ATOM     23  C   UNL     1       6.135   6.739  17.546  0.00  0.00    +0.000 C 
ATOM     24  C   UNL     1       7.074   5.636  18.032  0.00  0.00    +0.000 C 
ATOM     25  C   UNL     1       7.353   4.618  16.936  0.00  0.00    +0.000 C 
ATOM     26  C   UNL     1       6.061   4.086  16.338  0.00  0.00    +0.000 C 
ATOM     27  C   UNL     1       5.135   5.223  15.919  0.00  0.00    +0.000 C 
ENDBRANCH  15  22
ENDBRANCH   1  15
TORSDOF 9
ENDMDL
MODEL 7
REMARK VINA RESULT:      -7.2      1.400      3.953
REMARK  Name = 
REMARK  10 active torsions:
REMARK  status: ('A' for Active; 'I' for Inactive)
REMARK    1  A    between atoms: C_1  and  O_2
REMARK    2  A    between atoms: O_2  and  C_3
REMARK    3  A    between atoms: C_6  and  O_7
REMARK    4  A    between atoms: O_7  and  C_8
REMARK    5  A    between atoms: C_8  and  C_9
REMARK    6  A    between atoms: C_9  and  O_10
REMARK    7  A    between atoms: C_9  and  C_11
REMARK    8  A    between atoms: C_11  and  N_12
REMARK    9  A    between atoms: N_12  and  C_13
REMARK   10  A    between atoms: N_12  and  C_19
REMARK                            x       y       z     vdW  Elec       q    Type
REMARK                         _______ _______ _______ _____ _____    ______ ____
ROOT
ATOM      1  C   UNL     1       2.656   6.279  18.806  0.00  0.00    +0.000 C 
ENDROOT
BRANCH   1   2
ATOM      2  C   UNL     1       2.371   7.577  18.003  0.00  0.00    +0.000 C 
BRANCH   2   3
ATOM      3  O   UNL     1       3.655   8.039  17.509  0.00  0.00    +0.000 OA
ATOM      4  H   UNL     1       3.571   9.015  17.417  0.00  0.00    +0.000 HD
ENDBRANCH   2   3
BRANCH   2   5
ATOM      5  C   UNL     1       1.782   8.738  18.819  0.00  0.00    +0.000 C 
BRANCH   5   6
ATOM      6  O   UNL     1       1.606   8.256  20.153  0.00  0.00    +0.000 OA
BRANCH   6  10
ATOM      7  C   UNL     1      -0.723  10.681  22.587  0.00  0.00    +0.000 A 
ATOM      8  C   UNL     1      -0.552  10.934  21.225  0.00  0.00    +0.000 A 
ATOM      9  C   UNL     1       0.249  10.100  20.460  0.00  0.00    +0.000 A 
ATOM     10  C   UNL     1       0.937   9.031  21.043  0.00  0.00    +0.000 A 
ATOM     11  C   UNL     1       0.809   8.797  22.409  0.00  0.00    +0.000 A 
ATOM     12  C   UNL     1      -0.026   9.622  23.179  0.00  0.00    +0.000 A 
BRANCH   7  14
ATOM     13  C   UNL     1      -1.373  12.912  22.935  0.00  0.00    +0.000 C 
ATOM     14  O   UNL     1      -1.562  11.536  23.247  0.00  0.00    +0.000 OA
ENDBRANCH   7  14
ENDBRANCH   6  10
ENDBRANCH   5   6
ENDBRANCH   2   5
ENDBRANCH   1   2
BRANCH   1  15
ATOM     15  N   UNL     1       2.551   4.903  18.200  0.00  0.00    +0.000 NA
BRANCH  15  16
ATOM     16  C   UNL     1       3.923   4.271  18.167  0.00  0.00    +0.000 C 
ATOM     17  C   UNL     1       4.543   3.887  16.810  0.00  0.00    +0.000 C 
ATOM     18  C   UNL     1       5.167   5.058  16.079  0.00  0.00    +0.000 C 
ATOM     19  C   UNL     1       6.279   5.725  16.877  0.00  0.00    +0.000 C 
ATOM     20  C   UNL     1       6.154   5.707  18.405  0.00  0.00    +0.000 C 
ATOM     21  C   UNL     1       5.042   4.868  19.056  0.00  0.00    +0.000 C 
ENDBRANCH  15  16
BRANCH  15  22
ATOM     22  C   UNL     1       1.434   4.186  18.909  0.00  0.00    +0.000 C 
ATOM     23  C   UNL     1       1.605   2.630  18.959  0.00  0.00    +0.000 C 
ATOM     24  C   UNL     1       2.687   2.167  19.933  0.00  0.00    +0.000 C 
ATOM     25  C   UNL     1       2.395   2.634  21.351  0.00  0.00    +0.000 C 
ATOM     26  C   UNL     1       2.148   4.133  21.397  0.00  0.00    +0.000 C 
ATOM     27  C   UNL     1       1.102   4.552  20.370  0.00  0.00    +0.000 C 
ENDBRANCH  15  22
ENDBRANCH   1  15
TORSDOF 9
ENDMDL
MODEL 8
REMARK VINA RESULT:      -7.1      1.300      1.753
REMARK  Name = 
REMARK  10 active torsions:
REMARK  status: ('A' for Active; 'I' for Inactive)
REMARK    1  A    between atoms: C_1  and  O_2
REMARK    2  A    between atoms: O_2  and  C_3
REMARK    3  A    between atoms: C_6  and  O_7
REMARK    4  A    between atoms: O_7  and  C_8
REMARK    5  A    between atoms: C_8  and  C_9
REMARK    6  A    between atoms: C_9  and  O_10
REMARK    7  A    between atoms: C_9  and  C_11
REMARK    8  A    between atoms: C_11  and  N_12
REMARK    9  A    between atoms: N_12  and  C_13
REMARK   10  A    between atoms: N_12  and  C_19
REMARK                            x       y       z     vdW  Elec       q    Type
REMARK                         _______ _______ _______ _____ _____    ______ ____
ROOT
ATOM      1  C   UNL     1       3.687   5.014  17.601  0.00  0.00    +0.000 C 
ENDROOT
BRANCH   1   2
ATOM      2  C   UNL     1       2.550   5.649  18.447  0.00  0.00    +0.000 C 
BRANCH   2   3
ATOM      3  O   UNL     1       1.312   5.349  17.753  0.00  0.00    +0.000 OA
ATOM      4  H   UNL     1       1.571   5.113  16.835  0.00  0.00    +0.000 HD
ENDBRANCH   2   3
BRANCH   2   5
ATOM      5  C   UNL     1       2.607   7.179  18.580  0.00  0.00    +0.000 C 
BRANCH   5   6
ATOM      6  O   UNL     1       2.330   7.484  19.949  0.00  0.00    +0.000 OA
BRANCH   6  10
ATOM      7  C   UNL     1      -0.135  10.595  21.164  0.00  0.00    +0.000 A 
ATOM      8  C   UNL     1       0.300   9.601  22.041  0.00  0.00    +0.000 A 
ATOM      9  C   UNL     1       1.111   8.575  21.580  0.00  0.00    +0.000 A 
ATOM     10  C   UNL     1       1.462   8.488  20.229  0.00  0.00    +0.000 A 
ATOM     11  C   UNL     1       0.996   9.450  19.337  0.00  0.00    +0.000 A 
ATOM     12  C   UNL     1       0.200  10.506  19.808  0.00  0.00    +0.000 A 
BRANCH   7  14
ATOM     13  C   UNL     1      -1.379  11.297  23.030  0.00  0.00    +0.000 C 
ATOM     14  O   UNL     1      -0.898  11.584  21.721  0.00  0.00    +0.000 OA
ENDBRANCH   7  14
ENDBRANCH   6  10
ENDBRANCH   5   6
ENDBRANCH   2   5
ENDBRANCH   1   2
BRANCH   1  15
ATOM     15  N   UNL     1       4.860   4.294  18.217  0.00  0.00    +0.000 NA
BRANCH  15  16
ATOM     16  C   UNL     1       4.443   2.889  18.577  0.00  0.00    +0.000 C 
ATOM     17  C   UNL     1       4.291   2.505  20.062  0.00  0.00    +0.000 C 
ATOM     18  C   UNL     1       2.977   2.951  20.668  0.00  0.00    +0.000 C 
ATOM     19  C   UNL     1       1.769   2.359  19.954  0.00  0.00    +0.000 C 
ATOM     20  C   UNL     1       1.907   2.082  18.453  0.00  0.00    +0.000 C 
ATOM     21  C   UNL     1       3.286   2.226  17.788  0.00  0.00    +0.000 C 
ENDBRANCH  15  16
BRANCH  15  22
ATOM     22  C   UNL     1       6.038   4.495  17.301  0.00  0.00    +0.000 C 
ATOM     23  C   UNL     1       5.919   5.753  16.376  0.00  0.00    +0.000 C 
ATOM     24  C   UNL     1       6.111   7.075  17.118  0.00  0.00    +0.000 C 
ATOM     25  C   UNL     1       7.473   7.141  17.795  0.00  0.00    +0.000 C 
ATOM     26  C   UNL     1       7.710   5.921  18.671  0.00  0.00    +0.000 C 
ATOM     27  C   UNL     1       7.452   4.629  17.902  0.00  0.00    +0.000 C 
ENDBRANCH  15  22
ENDBRANCH   1  15
TORSDOF 9
ENDMDL
MODEL 9
REMARK VINA RESULT:      -7.1      1.588      2.171
REMARK  Name = 
REMARK  10 active torsions:
REMARK  status: ('A' for Active; 'I' for Inactive)
REMARK    1  A    between atoms: C_1  and  O_2
REMARK    2  A    between atoms: O_2  and  C_3
REMARK    3  A    between atoms: C_6  and  O_7
REMARK    4  A    between atoms: O_7  and  C_8
REMARK    5  A    between atoms: C_8  and  C_9
REMARK    6  A    between atoms: C_9  and  O_10
REMARK    7  A    between atoms: C_9  and  C_11
REMARK    8  A    between atoms: C_11  and  N_12
REMARK    9  A    between atoms: N_12  and  C_13
REMARK   10  A    between atoms: N_12  and  C_19
REMARK                            x       y       z     vdW  Elec       q    Type
REMARK                         _______ _______ _______ _____ _____    ______ ____
ROOT
ATOM      1  C   UNL     1       3.279   5.321  17.857  0.00  0.00    +0.000 C 
ENDROOT
BRANCH   1   2
ATOM      2  C   UNL     1       2.837   6.341  18.941  0.00  0.00    +0.000 C 
BRANCH   2   3
ATOM      3  O   UNL     1       1.813   5.679  19.728  0.00  0.00    +0.000 OA
ATOM      4  H   UNL     1       0.968   6.126  19.497  0.00  0.00    +0.000 HD
ENDBRANCH   2   3
BRANCH   2   5
ATOM      5  C   UNL     1       2.199   7.632  18.406  0.00  0.00    +0.000 C 
BRANCH   5   6
ATOM      6  O   UNL     1       2.095   8.530  19.514  0.00  0.00    +0.000 OA
BRANCH   6  10
ATOM      7  C   UNL     1      -1.226  11.010  19.297  0.00  0.00    +0.000 A 
ATOM      8  C   UNL     1      -0.588  10.516  18.159  0.00  0.00    +0.000 A 
ATOM      9  C   UNL     1       0.527   9.702  18.287  0.00  0.00    +0.000 A 
ATOM     10  C   UNL     1       1.061   9.408  19.545  0.00  0.00    +0.000 A 
ATOM     11  C   UNL     1       0.458   9.932  20.685  0.00  0.00    +0.000 A 
ATOM     12  C   UNL     1      -0.689  10.731  20.558  0.00  0.00    +0.000 A 
BRANCH   7  14
ATOM     13  C   UNL     1      -3.135  11.344  17.967  0.00  0.00    +0.000 C 
ATOM     14  O   UNL     1      -2.340  11.771  19.068  0.00  0.00    +0.000 OA
ENDBRANCH   7  14
ENDBRANCH   6  10
ENDBRANCH   5   6
ENDBRANCH   2   5
ENDBRANCH   1   2
BRANCH   1  15
ATOM     15  N   UNL     1       4.448   4.387  18.041  0.00  0.00    +0.000 NA
BRANCH  15  16
ATOM     16  C   UNL     1       3.932   2.986  18.267  0.00  0.00    +0.000 C 
ATOM     17  C   UNL     1       4.092   2.339  19.656  0.00  0.00    +0.000 C 
ATOM     18  C   UNL     1       3.045   2.786  20.654  0.00  0.00    +0.000 C 
ATOM     19  C   UNL     1       1.627   2.466  20.201  0.00  0.00    +0.000 C 
ATOM     20  C   UNL     1       1.353   2.473  18.692  0.00  0.00    +0.000 C 
ATOM     21  C   UNL     1       2.535   2.606  17.717  0.00  0.00    +0.000 C 
ENDBRANCH  15  16
BRANCH  15  22
ATOM     22  C   UNL     1       5.404   4.640  16.906  0.00  0.00    +0.000 C 
ATOM     23  C   UNL     1       5.297   6.076  16.289  0.00  0.00    +0.000 C 
ATOM     24  C   UNL     1       5.877   7.168  17.185  0.00  0.00    +0.000 C 
ATOM     25  C   UNL     1       7.346   6.917  17.489  0.00  0.00    +0.000 C 
ATOM     26  C   UNL     1       7.563   5.515  18.035  0.00  0.00    +0.000 C 
ATOM     27  C   UNL     1       6.919   4.466  17.135  0.00  0.00    +0.000 C 
ENDBRANCH  15  22
ENDBRANCH   1  15
TORSDOF 9
ENDMDL
