MODEL 1
REMARK VINA RESULT:      -7.6      0.000      0.000
REMARK  Name = 
REMARK  8 active torsions:
REMARK  status: ('A' for Active; 'I' for Inactive)
REMARK    1  A    between atoms: C_1  and  C_2
REMARK    2  A    between atoms: C_4  and  C_5
REMARK    3  A    between atoms: C_6  and  C_7
REMARK    4  A    between atoms: C_10  and  C_11
REMARK    5  A    between atoms: C_16  and  C_17
REMARK    6  A    between atoms: C_19  and  C_20
REMARK    7  A    between atoms: C_24  and  C_25
REMARK    8  A    between atoms: C_28  and  C_29
REMARK                            x       y       z     vdW  Elec       q    Type
REMARK                         _______ _______ _______ _____ _____    ______ ____
ROOT
ATOM      1  C   UNL     1      -1.749   9.806  17.316  0.00  0.00    +0.000 C 
ATOM      2  C   UNL     1      -2.323  10.775  18.311  0.00  0.00    +0.000 A 
ATOM      3  C   UNL     1      -3.662  11.170  18.143  0.00  0.00    +0.000 A 
ATOM      4  C   UNL     1      -4.275  12.130  18.971  0.00  0.00    +0.000 A 
ATOM      5  C   UNL     1      -5.704  12.491  18.653  0.00  0.00    +0.000 C 
ATOM      6  C   UNL     1      -3.533  12.713  20.018  0.00  0.00    +0.000 A 
ATOM      7  C   UNL     1      -2.201  12.297  20.191  0.00  0.00    +0.000 A 
ATOM      8  C   UNL     1      -1.582  11.345  19.357  0.00  0.00    +0.000 A 
ENDROOT
BRANCH   6   9
ATOM      9  C   UNL     1      -4.070  13.760  20.907  0.00  0.00    +0.000 A 
ATOM     10  N   UNL     1      -4.408  15.009  20.460  0.00  0.00    +0.000 N 
ATOM     11  N   UNL     1      -4.821  15.855  21.402  0.00  0.00    +0.000 NA
ATOM     12  C   UNL     1      -4.794  15.133  22.530  0.00  0.00    +0.000 A 
ATOM     13  C   UNL     1      -4.385  13.785  22.267  0.00  0.00    +0.000 A 
ATOM     14  C   UNL     1      -4.289  12.681  23.259  0.00  0.00    +0.000 C 
ATOM     15  H   UNL     1      -4.370  15.358  19.512  0.00  0.00    +0.000 HD
BRANCH  12  16
ATOM     16  C   UNL     1      -5.198  15.751  23.845  0.00  0.00    +0.000 C 
ATOM     17  C   UNL     1      -5.851  17.131  23.724  0.00  0.00    +0.000 C 
ATOM     18  C   UNL     1      -5.392  17.852  24.962  0.00  0.00    +0.000 C 
ATOM     19  C   UNL     1      -4.019  17.268  25.182  0.00  0.00    +0.000 C 
ATOM     20  O   UNL     1      -4.075  15.906  24.745  0.00  0.00    +0.000 OA
ENDBRANCH  12  16
ENDBRANCH   6   9
BRANCH   8  21
ATOM     21  C   UNL     1      -0.121  11.059  19.565  0.00  0.00    +0.000 C 
ATOM     22  O   UNL     1       0.724  11.499  18.793  0.00  0.00    +0.000 OA
ATOM     23  N   UNL     1       0.211  10.344  20.705  0.00  0.00    +0.000 N 
ATOM     24  C   UNL     1       1.567  10.021  21.145  0.00  0.00    +0.000 C 
ATOM     25  C   UNL     1       1.123   8.553  21.275  0.00  0.00    +0.000 C 
ATOM     26  C   UNL     1      -0.325   9.030  21.070  0.00  0.00    +0.000 C 
BRANCH  25  27
ATOM     27  C   UNL     1       1.708   7.473  20.260  0.00  0.00    +0.000 A 
ATOM     28  C   UNL     1       1.722   6.101  20.586  0.00  0.00    +0.000 A 
ATOM     29  C   UNL     1       2.265   5.141  19.726  0.00  0.00    +0.000 A 
ATOM     30  C   UNL     1       2.810   5.530  18.507  0.00  0.00    +0.000 A 
ATOM     31  C   UNL     1       2.793   6.875  18.141  0.00  0.00    +0.000 A 
ATOM     32  C   UNL     1       2.244   7.824  19.003  0.00  0.00    +0.000 A 
BRANCH  30  33
ATOM     33  C   UNL     1       3.392   4.557  17.635  0.00  0.00    +0.000 C 
ATOM     34  N   UNL     1       3.869   3.765  16.928  0.00  0.00    +0.000 NA
ENDBRANCH  30  33
ENDBRANCH  25  27
ENDBRANCH   8  21
TORSDOF 5
ENDMDL
MODEL 2
REMARK VINA RESULT:      -7.4      0.931      1.380
REMARK  Name = 
REMARK  8 active torsions:
REMARK  status: ('A' for Active; 'I' for Inactive)
REMARK    1  A    between atoms: C_1  and  C_2
REMARK    2  A    between atoms: C_4  and  C_5
REMARK    3  A    between atoms: C_6  and  C_7
REMARK    4  A    between atoms: C_10  and  C_11
REMARK    5  A    between atoms: C_16  and  C_17
REMARK    6  A    between atoms: C_19  and  C_20
REMARK    7  A    between atoms: C_24  and  C_25
REMARK    8  A    between atoms: C_28  and  C_29
REMARK                            x       y       z     vdW  Elec       q    Type
REMARK                         _______ _______ _______ _____ _____    ______ ____
ROOT
ATOM      1  C   UNL     1      -1.490   9.697  17.183  0.00  0.00    +0.000 C 
ATOM      2  C   UNL     1      -2.165  10.669  18.109  0.00  0.00    +0.000 A 
ATOM      3  C   UNL     1      -3.480  11.058  17.806  0.00  0.00    +0.000 A 
ATOM      4  C   UNL     1      -4.177  12.020  18.563  0.00  0.00    +0.000 A 
ATOM      5  C   UNL     1      -5.567  12.375  18.101  0.00  0.00    +0.000 C 
ATOM      6  C   UNL     1      -3.545  12.610  19.677  0.00  0.00    +0.000 A 
ATOM      7  C   UNL     1      -2.236  12.199  19.985  0.00  0.00    +0.000 A 
ATOM      8  C   UNL     1      -1.535  11.246  19.223  0.00  0.00    +0.000 A 
ENDROOT
BRANCH   6   9
ATOM      9  C   UNL     1      -4.173  13.659  20.503  0.00  0.00    +0.000 A 
ATOM     10  N   UNL     1      -3.787  14.972  20.450  0.00  0.00    +0.000 N 
ATOM     11  N   UNL     1      -4.413  15.780  21.304  0.00  0.00    +0.000 NA
ATOM     12  C   UNL     1      -5.285  14.983  21.934  0.00  0.00    +0.000 A 
ATOM     13  C   UNL     1      -5.218  13.645  21.427  0.00  0.00    +0.000 A 
ATOM     14  C   UNL     1      -6.070  12.499  21.843  0.00  0.00    +0.000 C 
ATOM     15  H   UNL     1      -3.085  15.387  19.853  0.00  0.00    +0.000 HD
BRANCH  12  16
ATOM     16  C   UNL     1      -6.196  15.539  23.001  0.00  0.00    +0.000 C 
ATOM     17  C   UNL     1      -7.575  15.970  22.497  0.00  0.00    +0.000 C 
ATOM     18  C   UNL     1      -7.917  17.154  23.361  0.00  0.00    +0.000 C 
ATOM     19  C   UNL     1      -6.562  17.769  23.609  0.00  0.00    +0.000 C 
ATOM     20  O   UNL     1      -5.623  16.691  23.665  0.00  0.00    +0.000 OA
ENDBRANCH  12  16
ENDBRANCH   6   9
BRANCH   8  21
ATOM     21  C   UNL     1      -0.101  10.965  19.578  0.00  0.00    +0.000 C 
ATOM     22  O   UNL     1       0.817  11.440  18.918  0.00  0.00    +0.000 OA
ATOM     23  N   UNL     1       0.114  10.213  20.722  0.00  0.00    +0.000 N 
ATOM     24  C   UNL     1       1.419   9.886  21.295  0.00  0.00    +0.000 C 
ATOM     25  C   UNL     1       0.982   8.410  21.326  0.00  0.00    +0.000 C 
ATOM     26  C   UNL     1      -0.441   8.882  20.981  0.00  0.00    +0.000 C 
BRANCH  25  27
ATOM     27  C   UNL     1       1.687   7.372  20.344  0.00  0.00    +0.000 A 
ATOM     28  C   UNL     1       2.202   7.784  19.098  0.00  0.00    +0.000 A 
ATOM     29  C   UNL     1       2.791   6.883  18.205  0.00  0.00    +0.000 A 
ATOM     30  C   UNL     1       2.883   5.536  18.539  0.00  0.00    +0.000 A 
ATOM     31  C   UNL     1       2.404   5.095  19.772  0.00  0.00    +0.000 A 
ATOM     32  C   UNL     1       1.824   6.003  20.658  0.00  0.00    +0.000 A 
BRANCH  30  33
ATOM     33  C   UNL     1       3.458   4.604  17.619  0.00  0.00    +0.000 C 
ATOM     34  N   UNL     1       3.921   3.844  16.869  0.00  0.00    +0.000 NA
ENDBRANCH  30  33
ENDBRANCH  25  27
ENDBRANCH   8  21
TORSDOF 5
ENDMDL
MODEL 3
REMARK VINA RESULT:      -7.4      1.163      1.300
REMARK  Name = 
REMARK  8 active torsions:
REMARK  status: ('A' for Active; 'I' for Inactive)
REMARK    1  A    between atoms: C_1  and  C_2
REMARK    2  A    between atoms: C_4  and  C_5
REMARK    3  A    between atoms: C_6  and  C_7
REMARK    4  A    between atoms: C_10  and  C_11
REMARK    5  A    between atoms: C_16  and  C_17
REMARK    6  A    between atoms: C_19  and  C_20
REMARK    7  A    between atoms: C_24  and  C_25
REMARK    8  A    between atoms: C_28  and  C_29
REMARK                            x       y       z     vdW  Elec       q    Type
REMARK                         _______ _______ _______ _____ _____    ______ ____
ROOT
ATOM      1  C   UNL     1      -1.215  10.523  17.765  0.00  0.00    +0.000 C 
ATOM      2  C   UNL     1      -1.945  11.168  18.909  0.00  0.00    +0.000 A 
ATOM      3  C   UNL     1      -3.244  11.648  18.671  0.00  0.00    +0.000 A 
ATOM      4  C   UNL     1      -3.987  12.335  19.651  0.00  0.00    +0.000 A 
ATOM      5  C   UNL     1      -5.351  12.833  19.246  0.00  0.00    +0.000 C 
ATOM      6  C   UNL     1      -3.421  12.543  20.925  0.00  0.00    +0.000 A 
ATOM      7  C   UNL     1      -2.129  12.040  21.161  0.00  0.00    +0.000 A 
ATOM      8  C   UNL     1      -1.381  11.363  20.179  0.00  0.00    +0.000 A 
ENDROOT
BRANCH   6   9
ATOM      9  C   UNL     1      -4.099  13.291  22.000  0.00  0.00    +0.000 A 
ATOM     10  N   UNL     1      -4.892  12.686  22.938  0.00  0.00    +0.000 N 
ATOM     11  N   UNL     1      -5.478  13.512  23.802  0.00  0.00    +0.000 NA
ATOM     12  C   UNL     1      -5.031  14.726  23.454  0.00  0.00    +0.000 A 
ATOM     13  C   UNL     1      -4.111  14.640  22.360  0.00  0.00    +0.000 A 
ATOM     14  C   UNL     1      -3.370  15.770  21.737  0.00  0.00    +0.000 C 
ATOM     15  H   UNL     1      -5.087  11.699  23.039  0.00  0.00    +0.000 HD
BRANCH  12  16
ATOM     16  C   UNL     1      -5.480  15.952  24.210  0.00  0.00    +0.000 C 
ATOM     17  C   UNL     1      -6.127  17.033  23.340  0.00  0.00    +0.000 C 
ATOM     18  C   UNL     1      -5.710  18.319  24.000  0.00  0.00    +0.000 C 
ATOM     19  C   UNL     1      -4.346  17.972  24.542  0.00  0.00    +0.000 C 
ATOM     20  O   UNL     1      -4.387  16.591  24.914  0.00  0.00    +0.000 OA
ENDBRANCH  12  16
ENDBRANCH   6   9
BRANCH   8  21
ATOM     21  C   UNL     1       0.032  10.969  20.508  0.00  0.00    +0.000 C 
ATOM     22  O   UNL     1       0.984  11.555  20.005  0.00  0.00    +0.000 OA
ATOM     23  N   UNL     1       0.189   9.969  21.455  0.00  0.00    +0.000 N 
ATOM     24  C   UNL     1       1.464   9.484  21.981  0.00  0.00    +0.000 C 
ATOM     25  C   UNL     1       0.997   8.053  21.658  0.00  0.00    +0.000 C 
ATOM     26  C   UNL     1      -0.402   8.631  21.384  0.00  0.00    +0.000 C 
BRANCH  25  27
ATOM     27  C   UNL     1       1.719   7.247  20.488  0.00  0.00    +0.000 A 
ATOM     28  C   UNL     1       1.978   5.867  20.608  0.00  0.00    +0.000 A 
ATOM     29  C   UNL     1       2.643   5.148  19.609  0.00  0.00    +0.000 A 
ATOM     30  C   UNL     1       3.067   5.796  18.454  0.00  0.00    +0.000 A 
ATOM     31  C   UNL     1       2.809   7.156  18.290  0.00  0.00    +0.000 A 
ATOM     32  C   UNL     1       2.139   7.862  19.290  0.00  0.00    +0.000 A 
BRANCH  30  33
ATOM     33  C   UNL     1       3.773   5.074  17.441  0.00  0.00    +0.000 C 
ATOM     34  N   UNL     1       4.342   4.486  16.614  0.00  0.00    +0.000 NA
ENDBRANCH  30  33
ENDBRANCH  25  27
ENDBRANCH   8  21
TORSDOF 5
ENDMDL
MODEL 4
REMARK VINA RESULT:      -7.2      2.611     11.387
REMARK  Name = 
REMARK  8 active torsions:
REMARK  status: ('A' for Active; 'I' for Inactive)
REMARK    1  A    between atoms: C_1  and  C_2
REMARK    2  A    between atoms: C_4  and  C_5
REMARK    3  A    between atoms: C_6  and  C_7
REMARK    4  A    between atoms: C_10  and  C_11
REMARK    5  A    between atoms: C_16  and  C_17
REMARK    6  A    between atoms: C_19  and  C_20
REMARK    7  A    between atoms: C_24  and  C_25
REMARK    8  A    between atoms: C_28  and  C_29
REMARK                            x       y       z     vdW  Elec       q    Type
REMARK                         _______ _______ _______ _____ _____    ______ ____
ROOT
ATOM      1  C   UNL     1      -0.238   8.870  21.882  0.00  0.00    +0.000 C 
ATOM      2  C   UNL     1       0.695   8.268  20.870  0.00  0.00    +0.000 A 
ATOM      3  C   UNL     1       1.171   6.968  21.108  0.00  0.00    +0.000 A 
ATOM      4  C   UNL     1       2.108   6.339  20.265  0.00  0.00    +0.000 A 
ATOM      5  C   UNL     1       2.565   4.959  20.663  0.00  0.00    +0.000 C 
ATOM      6  C   UNL     1       2.582   7.026  19.129  0.00  0.00    +0.000 A 
ATOM      7  C   UNL     1       2.084   8.319  18.887  0.00  0.00    +0.000 A 
ATOM      8  C   UNL     1       1.156   8.953  19.735  0.00  0.00    +0.000 A 
ENDROOT
BRANCH   6   9
ATOM      9  C   UNL     1       3.597   6.474  18.212  0.00  0.00    +0.000 A 
ATOM     10  N   UNL     1       4.729   7.159  17.861  0.00  0.00    +0.000 N 
ATOM     11  N   UNL     1       5.512   6.543  16.978  0.00  0.00    +0.000 NA
ATOM     12  C   UNL     1       4.899   5.374  16.751  0.00  0.00    +0.000 A 
ATOM     13  C   UNL     1       3.716   5.252  17.549  0.00  0.00    +0.000 A 
ATOM     14  C   UNL     1       2.808   4.075  17.607  0.00  0.00    +0.000 C 
ATOM     15  H   UNL     1       5.027   8.070  18.184  0.00  0.00    +0.000 HD
BRANCH  12  16
ATOM     16  C   UNL     1       5.488   4.376  15.785  0.00  0.00    +0.000 C 
ATOM     17  C   UNL     1       6.826   4.798  15.173  0.00  0.00    +0.000 C 
ATOM     18  C   UNL     1       6.780   4.223  13.783  0.00  0.00    +0.000 C 
ATOM     19  C   UNL     1       5.310   4.305  13.452  0.00  0.00    +0.000 C 
ATOM     20  O   UNL     1       4.599   4.097  14.676  0.00  0.00    +0.000 OA
ENDBRANCH  12  16
ENDBRANCH   6   9
BRANCH   8  21
ATOM     21  C   UNL     1       0.780  10.378  19.439  0.00  0.00    +0.000 C 
ATOM     22  O   UNL     1       1.309  11.308  20.038  0.00  0.00    +0.000 OA
ATOM     23  N   UNL     1      -0.131  10.575  18.413  0.00  0.00    +0.000 N 
ATOM     24  C   UNL     1      -0.580  11.871  17.907  0.00  0.00    +0.000 C 
ATOM     25  C   UNL     1      -2.030  11.381  18.076  0.00  0.00    +0.000 C 
ATOM     26  C   UNL     1      -1.465   9.973  18.335  0.00  0.00    +0.000 C 
BRANCH  25  27
ATOM     27  C   UNL     1      -2.945  12.040  19.201  0.00  0.00    +0.000 A 
ATOM     28  C   UNL     1      -2.375  12.658  20.332  0.00  0.00    +0.000 A 
ATOM     29  C   UNL     1      -3.161  13.210  21.350  0.00  0.00    +0.000 A 
ATOM     30  C   UNL     1      -4.548  13.160  21.260  0.00  0.00    +0.000 A 
ATOM     31  C   UNL     1      -5.147  12.576  20.145  0.00  0.00    +0.000 A 
ATOM     32  C   UNL     1      -4.354  12.034  19.133  0.00  0.00    +0.000 A 
BRANCH  30  33
ATOM     33  C   UNL     1      -5.357  13.697  22.310  0.00  0.00    +0.000 C 
ATOM     34  N   UNL     1      -6.020  14.130  23.162  0.00  0.00    +0.000 NA
ENDBRANCH  30  33
ENDBRANCH  25  27
ENDBRANCH   8  21
TORSDOF 5
ENDMDL
MODEL 5
REMARK VINA RESULT:      -7.2      2.717     11.514
REMARK  Name = 
REMARK  8 active torsions:
REMARK  status: ('A' for Active; 'I' for Inactive)
REMARK    1  A    between atoms: C_1  and  C_2
REMARK    2  A    between atoms: C_4  and  C_5
REMARK    3  A    between atoms: C_6  and  C_7
REMARK    4  A    between atoms: C_10  and  C_11
REMARK    5  A    between atoms: C_16  and  C_17
REMARK    6  A    between atoms: C_19  and  C_20
REMARK    7  A    between atoms: C_24  and  C_25
REMARK    8  A    between atoms: C_28  and  C_29
REMARK                            x       y       z     vdW  Elec       q    Type
REMARK                         _______ _______ _______ _____ _____    ______ ____
ROOT
ATOM      1  C   UNL     1       0.007   8.967  21.540  0.00  0.00    +0.000 C 
ATOM      2  C   UNL     1       0.916   8.354  20.513  0.00  0.00    +0.000 A 
ATOM      3  C   UNL     1       1.461   7.089  20.791  0.00  0.00    +0.000 A 
ATOM      4  C   UNL     1       2.383   6.458  19.934  0.00  0.00    +0.000 A 
ATOM      5  C   UNL     1       2.921   5.121  20.376  0.00  0.00    +0.000 C 
ATOM      6  C   UNL     1       2.771   7.105  18.742  0.00  0.00    +0.000 A 
ATOM      7  C   UNL     1       2.204   8.361  18.462  0.00  0.00    +0.000 A 
ATOM      8  C   UNL     1       1.291   8.998  19.324  0.00  0.00    +0.000 A 
ENDROOT
BRANCH   6   9
ATOM      9  C   UNL     1       3.765   6.549  17.805  0.00  0.00    +0.000 A 
ATOM     10  N   UNL     1       4.814   7.282  17.318  0.00  0.00    +0.000 N 
ATOM     11  N   UNL     1       5.584   6.649  16.435  0.00  0.00    +0.000 NA
ATOM     12  C   UNL     1       5.051   5.424  16.350  0.00  0.00    +0.000 A 
ATOM     13  C   UNL     1       3.936   5.286  17.237  0.00  0.00    +0.000 A 
ATOM     14  C   UNL     1       3.128   4.056  17.458  0.00  0.00    +0.000 C 
ATOM     15  H   UNL     1       5.059   8.236  17.543  0.00  0.00    +0.000 HD
BRANCH  12  16
ATOM     16  C   UNL     1       5.653   4.390  15.429  0.00  0.00    +0.000 C 
ATOM     17  C   UNL     1       6.940   4.834  14.730  0.00  0.00    +0.000 C 
ATOM     18  C   UNL     1       6.867   4.159  13.387  0.00  0.00    +0.000 C 
ATOM     19  C   UNL     1       5.382   4.142  13.118  0.00  0.00    +0.000 C 
ATOM     20  O   UNL     1       4.735   3.988  14.384  0.00  0.00    +0.000 OA
ENDBRANCH  12  16
ENDBRANCH   6   9
BRANCH   8  21
ATOM     21  C   UNL     1       0.837  10.388  18.977  0.00  0.00    +0.000 C 
ATOM     22  O   UNL     1       1.490  11.369  19.317  0.00  0.00    +0.000 OA
ATOM     23  N   UNL     1      -0.306  10.488  18.199  0.00  0.00    +0.000 N 
ATOM     24  C   UNL     1      -0.882  11.728  17.683  0.00  0.00    +0.000 C 
ATOM     25  C   UNL     1      -2.237  11.286  18.265  0.00  0.00    +0.000 C 
ATOM     26  C   UNL     1      -1.610   9.905  18.527  0.00  0.00    +0.000 C 
BRANCH  25  27
ATOM     27  C   UNL     1      -2.845  12.081  19.505  0.00  0.00    +0.000 A 
ATOM     28  C   UNL     1      -4.215  12.409  19.557  0.00  0.00    +0.000 A 
ATOM     29  C   UNL     1      -4.762  13.139  20.618  0.00  0.00    +0.000 A 
ATOM     30  C   UNL     1      -3.947  13.560  21.663  0.00  0.00    +0.000 A 
ATOM     31  C   UNL     1      -2.591  13.235  21.657  0.00  0.00    +0.000 A 
ATOM     32  C   UNL     1      -2.057  12.502  20.597  0.00  0.00    +0.000 A 
BRANCH  30  33
ATOM     33  C   UNL     1      -4.494  14.331  22.736  0.00  0.00    +0.000 C 
ATOM     34  N   UNL     1      -4.934  14.959  23.612  0.00  0.00    +0.000 NA
ENDBRANCH  30  33
ENDBRANCH  25  27
ENDBRANCH   8  21
TORSDOF 5
ENDMDL
MODEL 6
REMARK VINA RESULT:      -7.1      1.924      2.293
REMARK  Name = 
REMARK  8 active torsions:
REMARK  status: ('A' for Active; 'I' for Inactive)
REMARK    1  A    between atoms: C_1  and  C_2
REMARK    2  A    between atoms: C_4  and  C_5
REMARK    3  A    between atoms: C_6  and  C_7
REMARK    4  A    between atoms: C_10  and  C_11
REMARK    5  A    between atoms: C_16  and  C_17
REMARK    6  A    between atoms: C_19  and  C_20
REMARK    7  A    between atoms: C_24  and  C_25
REMARK    8  A    between atoms: C_28  and  C_29
REMARK                            x       y       z     vdW  Elec       q    Type
REMARK                         _______ _______ _______ _____ _____    ______ ____
ROOT
ATOM      1  C   UNL     1      -2.481   9.905  16.753  0.00  0.00    +0.000 C 
ATOM      2  C   UNL     1      -3.245  10.752  17.732  0.00  0.00    +0.000 A 
ATOM      3  C   UNL     1      -4.645  10.789  17.614  0.00  0.00    +0.000 A 
ATOM      4  C   UNL     1      -5.450  11.608  18.429  0.00  0.00    +0.000 A 
ATOM      5  C   UNL     1      -6.934  11.582  18.166  0.00  0.00    +0.000 C 
ATOM      6  C   UNL     1      -4.841  12.414  19.412  0.00  0.00    +0.000 A 
ATOM      7  C   UNL     1      -3.441  12.355  19.536  0.00  0.00    +0.000 A 
ATOM      8  C   UNL     1      -2.634  11.546  18.715  0.00  0.00    +0.000 A 
ENDROOT
BRANCH   6   9
ATOM      9  C   UNL     1      -5.592  13.340  20.281  0.00  0.00    +0.000 A 
ATOM     10  N   UNL     1      -5.698  13.164  21.634  0.00  0.00    +0.000 N 
ATOM     11  N   UNL     1      -6.462  14.055  22.263  0.00  0.00    +0.000 NA
ATOM     12  C   UNL     1      -6.860  14.891  21.295  0.00  0.00    +0.000 A 
ATOM     13  C   UNL     1      -6.292  14.521  20.033  0.00  0.00    +0.000 A 
ATOM     14  C   UNL     1      -6.463  15.242  18.743  0.00  0.00    +0.000 C 
ATOM     15  H   UNL     1      -5.276  12.439  22.199  0.00  0.00    +0.000 HD
BRANCH  12  16
ATOM     16  C   UNL     1      -7.761  16.058  21.615  0.00  0.00    +0.000 C 
ATOM     17  C   UNL     1      -7.294  17.397  21.038  0.00  0.00    +0.000 C 
ATOM     18  C   UNL     1      -7.726  18.400  22.074  0.00  0.00    +0.000 C 
ATOM     19  C   UNL     1      -7.594  17.613  23.355  0.00  0.00    +0.000 C 
ATOM     20  O   UNL     1      -7.916  16.255  23.041  0.00  0.00    +0.000 OA
ENDBRANCH  12  16
ENDBRANCH   6   9
BRANCH   8  21
ATOM     21  C   UNL     1      -1.141  11.647  18.862  0.00  0.00    +0.000 C 
ATOM     22  O   UNL     1      -0.457  12.180  17.996  0.00  0.00    +0.000 OA
ATOM     23  N   UNL     1      -0.606  11.176  20.051  0.00  0.00    +0.000 N 
ATOM     24  C   UNL     1       0.802  11.244  20.439  0.00  0.00    +0.000 C 
ATOM     25  C   UNL     1       0.738   9.739  20.756  0.00  0.00    +0.000 C 
ATOM     26  C   UNL     1      -0.790   9.826  20.589  0.00  0.00    +0.000 C 
BRANCH  25  27
ATOM     27  C   UNL     1       1.536   8.717  19.831  0.00  0.00    +0.000 A 
ATOM     28  C   UNL     1       1.935   7.455  20.317  0.00  0.00    +0.000 A 
ATOM     29  C   UNL     1       2.669   6.558  19.534  0.00  0.00    +0.000 A 
ATOM     30  C   UNL     1       3.025   6.901  18.235  0.00  0.00    +0.000 A 
ATOM     31  C   UNL     1       2.629   8.131  17.712  0.00  0.00    +0.000 A 
ATOM     32  C   UNL     1       1.891   9.017  18.499  0.00  0.00    +0.000 A 
BRANCH  30  33
ATOM     33  C   UNL     1       3.799   6.001  17.438  0.00  0.00    +0.000 C 
ATOM     34  N   UNL     1       4.427   5.264  16.792  0.00  0.00    +0.000 NA
ENDBRANCH  30  33
ENDBRANCH  25  27
ENDBRANCH   8  21
TORSDOF 5
ENDMDL
MODEL 7
REMARK VINA RESULT:      -7.1      1.130      1.414
REMARK  Name = 
REMARK  8 active torsions:
REMARK  status: ('A' for Active; 'I' for Inactive)
REMARK    1  A    between atoms: C_1  and  C_2
REMARK    2  A    between atoms: C_4  and  C_5
REMARK    3  A    between atoms: C_6  and  C_7
REMARK    4  A    between atoms: C_10  and  C_11
REMARK    5  A    between atoms: C_16  and  C_17
REMARK    6  A    between atoms: C_19  and  C_20
REMARK    7  A    between atoms: C_24  and  C_25
REMARK    8  A    between atoms: C_28  and  C_29
REMARK                            x       y       z     vdW  Elec       q    Type
REMARK                         _______ _______ _______ _____ _____    ______ ____
ROOT
ATOM      1  C   UNL     1      -1.520  10.034  17.625  0.00  0.00    +0.000 C 
ATOM      2  C   UNL     1      -2.075  10.952  18.677  0.00  0.00    +0.000 A 
ATOM      3  C   UNL     1      -3.376  11.451  18.491  0.00  0.00    +0.000 A 
ATOM      4  C   UNL     1      -3.963  12.376  19.376  0.00  0.00    +0.000 A 
ATOM      5  C   UNL     1      -5.348  12.862  19.032  0.00  0.00    +0.000 C 
ATOM      6  C   UNL     1      -3.234  12.814  20.500  0.00  0.00    +0.000 A 
ATOM      7  C   UNL     1      -1.942  12.293  20.689  0.00  0.00    +0.000 A 
ATOM      8  C   UNL     1      -1.348  11.377  19.800  0.00  0.00    +0.000 A 
ENDROOT
BRANCH   6   9
ATOM      9  C   UNL     1      -3.743  13.815  21.456  0.00  0.00    +0.000 A 
ATOM     10  N   UNL     1      -4.558  13.489  22.507  0.00  0.00    +0.000 N 
ATOM     11  N   UNL     1      -4.977  14.518  23.239  0.00  0.00    +0.000 NA
ATOM     12  C   UNL     1      -4.389  15.583  22.679  0.00  0.00    +0.000 A 
ATOM     13  C   UNL     1      -3.551  15.191  21.586  0.00  0.00    +0.000 A 
ATOM     14  C   UNL     1      -2.699  16.088  20.760  0.00  0.00    +0.000 C 
ATOM     15  H   UNL     1      -4.880  12.569  22.778  0.00  0.00    +0.000 HD
BRANCH  12  16
ATOM     16  C   UNL     1      -4.624  16.967  23.234  0.00  0.00    +0.000 C 
ATOM     17  C   UNL     1      -5.057  16.997  24.702  0.00  0.00    +0.000 C 
ATOM     18  C   UNL     1      -5.989  18.177  24.773  0.00  0.00    +0.000 C 
ATOM     19  C   UNL     1      -6.628  18.163  23.407  0.00  0.00    +0.000 C 
ATOM     20  O   UNL     1      -5.635  17.690  22.492  0.00  0.00    +0.000 OA
ENDBRANCH  12  16
ENDBRANCH   6   9
BRANCH   8  21
ATOM     21  C   UNL     1       0.080  10.973  20.041  0.00  0.00    +0.000 C 
ATOM     22  O   UNL     1       0.989  11.434  19.360  0.00  0.00    +0.000 OA
ATOM     23  N   UNL     1       0.307  10.122  21.111  0.00  0.00    +0.000 N 
ATOM     24  C   UNL     1       1.617   9.665  21.574  0.00  0.00    +0.000 C 
ATOM     25  C   UNL     1       1.077   8.224  21.525  0.00  0.00    +0.000 C 
ATOM     26  C   UNL     1      -0.327   8.816  21.308  0.00  0.00    +0.000 C 
BRANCH  25  27
ATOM     27  C   UNL     1       1.645   7.219  20.427  0.00  0.00    +0.000 A 
ATOM     28  C   UNL     1       1.629   5.826  20.639  0.00  0.00    +0.000 A 
ATOM     29  C   UNL     1       2.157   4.928  19.705  0.00  0.00    +0.000 A 
ATOM     30  C   UNL     1       2.717   5.405  18.524  0.00  0.00    +0.000 A 
ATOM     31  C   UNL     1       2.731   6.776  18.270  0.00  0.00    +0.000 A 
ATOM     32  C   UNL     1       2.196   7.662  19.206  0.00  0.00    +0.000 A 
BRANCH  30  33
ATOM     33  C   UNL     1       3.284   4.496  17.578  0.00  0.00    +0.000 C 
ATOM     34  N   UNL     1       3.749   3.754  16.811  0.00  0.00    +0.000 NA
ENDBRANCH  30  33
ENDBRANCH  25  27
ENDBRANCH   8  21
TORSDOF 5
ENDMDL
MODEL 8
REMARK VINA RESULT:      -7.1      3.023     11.704
REMARK  Name = 
REMARK  8 active torsions:
REMARK  status: ('A' for Active; 'I' for Inactive)
REMARK    1  A    between atoms: C_1  and  C_2
REMARK    2  A    between atoms: C_4  and  C_5
REMARK    3  A    between atoms: C_6  and  C_7
REMARK    4  A    between atoms: C_10  and  C_11
REMARK    5  A    between atoms: C_16  and  C_17
REMARK    6  A    between atoms: C_19  and  C_20
REMARK    7  A    between atoms: C_24  and  C_25
REMARK    8  A    between atoms: C_28  and  C_29
REMARK                            x       y       z     vdW  Elec       q    Type
REMARK                         _______ _______ _______ _____ _____    ______ ____
ROOT
ATOM      1  C   UNL     1       0.619   8.605  21.339  0.00  0.00    +0.000 C 
ATOM      2  C   UNL     1       1.458   8.018  20.239  0.00  0.00    +0.000 A 
ATOM      3  C   UNL     1       2.037   6.756  20.458  0.00  0.00    +0.000 A 
ATOM      4  C   UNL     1       2.901   6.149  19.526  0.00  0.00    +0.000 A 
ATOM      5  C   UNL     1       3.485   4.812  19.909  0.00  0.00    +0.000 C 
ATOM      6  C   UNL     1       3.192   6.816  18.320  0.00  0.00    +0.000 A 
ATOM      7  C   UNL     1       2.592   8.069  18.100  0.00  0.00    +0.000 A 
ATOM      8  C   UNL     1       1.737   8.682  19.035  0.00  0.00    +0.000 A 
ENDROOT
BRANCH   6   9
ATOM      9  C   UNL     1       4.121   6.286  17.304  0.00  0.00    +0.000 A 
ATOM     10  N   UNL     1       5.095   7.051  16.720  0.00  0.00    +0.000 N 
ATOM     11  N   UNL     1       5.808   6.436  15.778  0.00  0.00    +0.000 NA
ATOM     12  C   UNL     1       5.318   5.190  15.752  0.00  0.00    +0.000 A 
ATOM     13  C   UNL     1       4.290   5.022  16.736  0.00  0.00    +0.000 A 
ATOM     14  C   UNL     1       3.552   3.766  17.038  0.00  0.00    +0.000 C 
ATOM     15  H   UNL     1       5.322   8.016  16.913  0.00  0.00    +0.000 HD
BRANCH  12  16
ATOM     16  C   UNL     1       5.875   4.168  14.793  0.00  0.00    +0.000 C 
ATOM     17  C   UNL     1       7.029   4.676  13.924  0.00  0.00    +0.000 C 
ATOM     18  C   UNL     1       6.841   3.947  12.621  0.00  0.00    +0.000 C 
ATOM     19  C   UNL     1       5.340   3.816  12.541  0.00  0.00    +0.000 C 
ATOM     20  O   UNL     1       4.867   3.664  13.883  0.00  0.00    +0.000 OA
ENDBRANCH  12  16
ENDBRANCH   6   9
BRANCH   8  21
ATOM     21  C   UNL     1       1.242  10.072  18.743  0.00  0.00    +0.000 C 
ATOM     22  O   UNL     1       1.972  11.045  18.891  0.00  0.00    +0.000 OA
ATOM     23  N   UNL     1      -0.042  10.174  18.232  0.00  0.00    +0.000 N 
ATOM     24  C   UNL     1      -0.695  11.411  17.807  0.00  0.00    +0.000 C 
ATOM     25  C   UNL     1      -1.896  11.024  18.690  0.00  0.00    +0.000 C 
ATOM     26  C   UNL     1      -1.252   9.637  18.861  0.00  0.00    +0.000 C 
BRANCH  25  27
ATOM     27  C   UNL     1      -2.201  11.876  20.001  0.00  0.00    +0.000 A 
ATOM     28  C   UNL     1      -1.301  11.889  21.086  0.00  0.00    +0.000 A 
ATOM     29  C   UNL     1      -1.566  12.600  22.260  0.00  0.00    +0.000 A 
ATOM     30  C   UNL     1      -2.747  13.325  22.381  0.00  0.00    +0.000 A 
ATOM     31  C   UNL     1      -3.651  13.354  21.320  0.00  0.00    +0.000 A 
ATOM     32  C   UNL     1      -3.374  12.646  20.150  0.00  0.00    +0.000 A 
BRANCH  30  33
ATOM     33  C   UNL     1      -3.039  14.031  23.590  0.00  0.00    +0.000 C 
ATOM     34  N   UNL     1      -3.276  14.611  24.570  0.00  0.00    +0.000 NA
ENDBRANCH  30  33
ENDBRANCH  25  27
ENDBRANCH   8  21
TORSDOF 5
ENDMDL
MODEL 9
REMARK VINA RESULT:      -7.0      5.568      8.847
REMARK  Name = 
REMARK  8 active torsions:
REMARK  status: ('A' for Active; 'I' for Inactive)
REMARK    1  A    between atoms: C_1  and  C_2
REMARK    2  A    between atoms: C_4  and  C_5
REMARK    3  A    between atoms: C_6  and  C_7
REMARK    4  A    between atoms: C_10  and  C_11
REMARK    5  A    between atoms: C_16  and  C_17
REMARK    6  A    between atoms: C_19  and  C_20
REMARK    7  A    between atoms: C_24  and  C_25
REMARK    8  A    between atoms: C_28  and  C_29
REMARK                            x       y       z     vdW  Elec       q    Type
REMARK                         _______ _______ _______ _____ _____    ______ ____
ROOT
ATOM      1  C   UNL     1      -0.575  15.954  21.665  0.00  0.00    +0.000 C 
ATOM      2  C   UNL     1       0.876  15.665  21.401  0.00  0.00    +0.000 A 
ATOM      3  C   UNL     1       1.753  16.758  21.293  0.00  0.00    +0.000 A 
ATOM      4  C   UNL     1       3.116  16.605  20.972  0.00  0.00    +0.000 A 
ATOM      5  C   UNL     1       3.933  17.866  20.846  0.00  0.00    +0.000 C 
ATOM      6  C   UNL     1       3.633  15.310  20.763  0.00  0.00    +0.000 A 
ATOM      7  C   UNL     1       2.753  14.221  20.893  0.00  0.00    +0.000 A 
ATOM      8  C   UNL     1       1.388  14.374  21.203  0.00  0.00    +0.000 A 
ENDROOT
BRANCH   6   9
ATOM      9  C   UNL     1       5.033  15.049  20.377  0.00  0.00    +0.000 A 
ATOM     10  N   UNL     1       6.022  14.810  21.293  0.00  0.00    +0.000 N 
ATOM     11  N   UNL     1       7.241  14.654  20.782  0.00  0.00    +0.000 NA
ATOM     12  C   UNL     1       7.061  14.756  19.459  0.00  0.00    +0.000 A 
ATOM     13  C   UNL     1       5.676  14.947  19.143  0.00  0.00    +0.000 A 
ATOM     14  C   UNL     1       5.087  15.048  17.781  0.00  0.00    +0.000 C 
ATOM     15  H   UNL     1       5.933  14.751  22.298  0.00  0.00    +0.000 HD
BRANCH  12  16
ATOM     16  C   UNL     1       8.231  14.635  18.515  0.00  0.00    +0.000 C 
ATOM     17  C   UNL     1       8.324  13.291  17.788  0.00  0.00    +0.000 C 
ATOM     18  C   UNL     1       9.805  13.061  17.652  0.00  0.00    +0.000 C 
ATOM     19  C   UNL     1      10.345  13.708  18.903  0.00  0.00    +0.000 C 
ATOM     20  O   UNL     1       9.499  14.826  19.188  0.00  0.00    +0.000 OA
ENDBRANCH  12  16
ENDBRANCH   6   9
BRANCH   8  21
ATOM     21  C   UNL     1       0.518  13.148  21.207  0.00  0.00    +0.000 C 
ATOM     22  O   UNL     1       0.255  12.563  22.252  0.00  0.00    +0.000 OA
ATOM     23  N   UNL     1      -0.020  12.770  19.986  0.00  0.00    +0.000 N 
ATOM     24  C   UNL     1      -0.950  11.663  19.770  0.00  0.00    +0.000 C 
ATOM     25  C   UNL     1      -0.017  11.163  18.651  0.00  0.00    +0.000 C 
ATOM     26  C   UNL     1       0.746  12.494  18.769  0.00  0.00    +0.000 C 
BRANCH  25  27
ATOM     27  C   UNL     1       0.796   9.810  18.867  0.00  0.00    +0.000 A 
ATOM     28  C   UNL     1       0.895   9.216  20.142  0.00  0.00    +0.000 A 
ATOM     29  C   UNL     1       1.635   8.049  20.360  0.00  0.00    +0.000 A 
ATOM     30  C   UNL     1       2.298   7.440  19.301  0.00  0.00    +0.000 A 
ATOM     31  C   UNL     1       2.205   7.986  18.021  0.00  0.00    +0.000 A 
ATOM     32  C   UNL     1       1.459   9.147  17.813  0.00  0.00    +0.000 A 
BRANCH  30  33
ATOM     33  C   UNL     1       3.079   6.262  19.522  0.00  0.00    +0.000 C 
ATOM     34  N   UNL     1       3.715   5.303  19.696  0.00  0.00    +0.000 NA
ENDBRANCH  30  33
ENDBRANCH  25  27
ENDBRANCH   8  21
TORSDOF 5
ENDMDL
