MODEL 1
REMARK VINA RESULT:      -8.6      0.000      0.000
REMARK  Name = 
REMARK  10 active torsions:
REMARK  status: ('A' for Active; 'I' for Inactive)
REMARK    1  A    between atoms: C_1  and  C_2
REMARK    2  A    between atoms: C_5  and  C_6
REMARK    3  A    between atoms: C_6  and  C_8
REMARK    4  A    between atoms: C_8  and  C_9
REMARK    5  A    between atoms: C_9  and  C_10
REMARK    6  A    between atoms: C_10  and  N_11
REMARK    7  A    between atoms: N_14  and  C_15
REMARK    8  A    between atoms: C_15  and  C_16
REMARK    9  A    between atoms: C_15  and  C_22
REMARK   10  A    between atoms: C_31  and  C_32
REMARK                            x       y       z     vdW  Elec       q    Type
REMARK                         _______ _______ _______ _____ _____    ______ ____
ROOT
ATOM      1  N   UNL     1       5.295   5.419  15.951  0.00  0.00    +0.000 NA
ATOM      2  C   UNL     1       4.840   4.335  16.857  0.00  0.00    +0.000 C 
ATOM      3  C   UNL     1       4.756   4.683  18.375  0.00  0.00    +0.000 C 
ATOM      4  N   UNL     1       4.160   6.012  18.708  0.00  0.00    +0.000 NA
ATOM      5  C   UNL     1       4.821   6.990  17.830  0.00  0.00    +0.000 C 
ATOM      6  C   UNL     1       4.616   6.671  16.334  0.00  0.00    +0.000 C 
ENDROOT
BRANCH   1   7
ATOM      7  C   UNL     1       6.739   5.700  15.943  0.00  0.00    +0.000 C 
BRANCH   7   8
ATOM      8  C   UNL     1       7.378   6.213  17.217  0.00  0.00    +0.000 C 
BRANCH   8   9
ATOM      9  C   UNL     1       7.805   7.654  17.051  0.00  0.00    +0.000 C 
BRANCH   9  10
ATOM     10  C   UNL     1       8.405   8.186  18.329  0.00  0.00    +0.000 C 
ATOM     11  O   UNL     1       8.690   7.471  19.290  0.00  0.00    +0.000 OA
BRANCH  10  16
ATOM     12  C   UNL     1       9.494  13.873  18.728  0.00  0.00    +0.000 C 
ATOM     13  C   UNL     1       9.198  12.398  18.635  0.00  0.00    +0.000 A 
ATOM     14  C   UNL     1       8.351  11.935  17.610  0.00  0.00    +0.000 A 
ATOM     15  C   UNL     1       8.066  10.569  17.494  0.00  0.00    +0.000 A 
ATOM     16  C   UNL     1       8.635   9.656  18.396  0.00  0.00    +0.000 A 
ATOM     17  C   UNL     1       9.476  10.128  19.410  0.00  0.00    +0.000 A 
ATOM     18  C   UNL     1       9.751  11.482  19.540  0.00  0.00    +0.000 A 
ATOM     19  C   UNL     1      10.650  11.912  20.666  0.00  0.00    +0.000 C 
ENDBRANCH  10  16
ENDBRANCH   9  10
ENDBRANCH   8   9
ENDBRANCH   7   8
ENDBRANCH   1   7
BRANCH   4  20
ATOM     20  C   UNL     1       2.667   6.058  18.571  0.00  0.00    +0.000 C 
BRANCH  20  21
ATOM     21  C   UNL     1       2.029   4.916  19.366  0.00  0.00    +0.000 A 
ATOM     22  C   UNL     1       2.294   4.759  20.736  0.00  0.00    +0.000 A 
ATOM     23  C   UNL     1       1.902   3.600  21.403  0.00  0.00    +0.000 A 
ATOM     24  C   UNL     1       1.232   2.591  20.715  0.00  0.00    +0.000 A 
ATOM     25  C   UNL     1       0.914   2.756  19.367  0.00  0.00    +0.000 A 
ATOM     26  C   UNL     1       1.298   3.918  18.695  0.00  0.00    +0.000 A 
ENDBRANCH  20  21
BRANCH  20  27
ATOM     27  C   UNL     1       2.033   7.421  18.929  0.00  0.00    +0.000 A 
ATOM     28  C   UNL     1       1.741   8.353  17.914  0.00  0.00    +0.000 A 
ATOM     29  C   UNL     1       1.108   9.566  18.207  0.00  0.00    +0.000 A 
ATOM     30  C   UNL     1       0.764   9.882  19.520  0.00  0.00    +0.000 A 
ATOM     31  C   UNL     1       1.077   8.991  20.543  0.00  0.00    +0.000 A 
ATOM     32  C   UNL     1       1.703   7.778  20.251  0.00  0.00    +0.000 A 
ENDBRANCH  20  27
ENDBRANCH   4  20
TORSDOF 8
ENDMDL
MODEL 2
REMARK VINA RESULT:      -8.4      4.119      8.210
REMARK  Name = 
REMARK  10 active torsions:
REMARK  status: ('A' for Active; 'I' for Inactive)
REMARK    1  A    between atoms: C_1  and  C_2
REMARK    2  A    between atoms: C_5  and  C_6
REMARK    3  A    between atoms: C_6  and  C_8
REMARK    4  A    between atoms: C_8  and  C_9
REMARK    5  A    between atoms: C_9  and  C_10
REMARK    6  A    between atoms: C_10  and  N_11
REMARK    7  A    between atoms: N_14  and  C_15
REMARK    8  A    between atoms: C_15  and  C_16
REMARK    9  A    between atoms: C_15  and  C_22
REMARK   10  A    between atoms: C_31  and  C_32
REMARK                            x       y       z     vdW  Elec       q    Type
REMARK                         _______ _______ _______ _____ _____    ______ ____
ROOT
ATOM      1  N   UNL     1       1.533   8.020  18.892  0.00  0.00    +0.000 NA
ATOM      2  C   UNL     1       2.415   8.272  17.726  0.00  0.00    +0.000 C 
ATOM      3  C   UNL     1       3.879   7.743  17.829  0.00  0.00    +0.000 C 
ATOM      4  N   UNL     1       4.039   6.370  18.396  0.00  0.00    +0.000 NA
ATOM      5  C   UNL     1       3.222   6.334  19.620  0.00  0.00    +0.000 C 
ATOM      6  C   UNL     1       1.733   6.630  19.343  0.00  0.00    +0.000 C 
ENDROOT
BRANCH   1   7
ATOM      7  C   UNL     1       1.739   8.884  20.065  0.00  0.00    +0.000 C 
BRANCH   7   8
ATOM      8  C   UNL     1       1.222   8.409  21.407  0.00  0.00    +0.000 C 
BRANCH   8   9
ATOM      9  C   UNL     1      -0.184   8.914  21.641  0.00  0.00    +0.000 C 
BRANCH   9  10
ATOM     10  C   UNL     1      -0.215   9.906  22.776  0.00  0.00    +0.000 C 
ATOM     11  O   UNL     1       0.331   9.708  23.862  0.00  0.00    +0.000 OA
BRANCH  10  16
ATOM     12  C   UNL     1      -3.240  14.807  22.056  0.00  0.00    +0.000 C 
ATOM     13  C   UNL     1      -2.465  13.527  22.232  0.00  0.00    +0.000 A 
ATOM     14  C   UNL     1      -1.354  13.281  21.403  0.00  0.00    +0.000 A 
ATOM     15  C   UNL     1      -0.611  12.104  21.550  0.00  0.00    +0.000 A 
ATOM     16  C   UNL     1      -0.966  11.170  22.535  0.00  0.00    +0.000 A 
ATOM     17  C   UNL     1      -2.071  11.426  23.355  0.00  0.00    +0.000 A 
ATOM     18  C   UNL     1      -2.822  12.583  23.205  0.00  0.00    +0.000 A 
ATOM     19  C   UNL     1      -4.005  12.776  24.112  0.00  0.00    +0.000 C 
ENDBRANCH  10  16
ENDBRANCH   9  10
ENDBRANCH   8   9
ENDBRANCH   7   8
ENDBRANCH   1   7
BRANCH   4  20
ATOM     20  C   UNL     1       3.665   5.274  17.443  0.00  0.00    +0.000 C 
BRANCH  20  21
ATOM     21  C   UNL     1       4.878   4.870  16.602  0.00  0.00    +0.000 A 
ATOM     22  C   UNL     1       6.180   5.001  17.110  0.00  0.00    +0.000 A 
ATOM     23  C   UNL     1       7.284   4.853  16.273  0.00  0.00    +0.000 A 
ATOM     24  C   UNL     1       7.102   4.561  14.922  0.00  0.00    +0.000 A 
ATOM     25  C   UNL     1       5.816   4.374  14.415  0.00  0.00    +0.000 A 
ATOM     26  C   UNL     1       4.708   4.515  15.250  0.00  0.00    +0.000 A 
ENDBRANCH  20  21
BRANCH  20  27
ATOM     27  C   UNL     1       3.002   4.046  18.107  0.00  0.00    +0.000 A 
ATOM     28  C   UNL     1       3.744   3.228  18.981  0.00  0.00    +0.000 A 
ATOM     29  C   UNL     1       3.147   2.150  19.643  0.00  0.00    +0.000 A 
ATOM     30  C   UNL     1       1.800   1.857  19.439  0.00  0.00    +0.000 A 
ATOM     31  C   UNL     1       1.057   2.630  18.551  0.00  0.00    +0.000 A 
ATOM     32  C   UNL     1       1.651   3.710  17.894  0.00  0.00    +0.000 A 
ENDBRANCH  20  27
ENDBRANCH   4  20
TORSDOF 8
ENDMDL
MODEL 3
REMARK VINA RESULT:      -8.3      3.949      7.956
REMARK  Name = 
REMARK  10 active torsions:
REMARK  status: ('A' for Active; 'I' for Inactive)
REMARK    1  A    between atoms: C_1  and  C_2
REMARK    2  A    between atoms: C_5  and  C_6
REMARK    3  A    between atoms: C_6  and  C_8
REMARK    4  A    between atoms: C_8  and  C_9
REMARK    5  A    between atoms: C_9  and  C_10
REMARK    6  A    between atoms: C_10  and  N_11
REMARK    7  A    between atoms: N_14  and  C_15
REMARK    8  A    between atoms: C_15  and  C_16
REMARK    9  A    between atoms: C_15  and  C_22
REMARK   10  A    between atoms: C_31  and  C_32
REMARK                            x       y       z     vdW  Elec       q    Type
REMARK                         _______ _______ _______ _____ _____    ______ ____
ROOT
ATOM      1  N   UNL     1       1.724   8.638  20.997  0.00  0.00    +0.000 NA
ATOM      2  C   UNL     1       1.232   9.562  19.944  0.00  0.00    +0.000 C 
ATOM      3  C   UNL     1      -0.265   9.988  20.032  0.00  0.00    +0.000 C 
ATOM      4  N   UNL     1      -0.766  10.338  21.396  0.00  0.00    +0.000 NA
ATOM      5  C   UNL     1      -0.321   9.255  22.286  0.00  0.00    +0.000 C 
ATOM      6  C   UNL     1       1.214   9.097  22.302  0.00  0.00    +0.000 C 
ENDROOT
BRANCH   1   7
ATOM      7  C   UNL     1       1.337   7.226  20.858  0.00  0.00    +0.000 C 
BRANCH   7   8
ATOM      8  C   UNL     1       2.009   6.398  19.783  0.00  0.00    +0.000 C 
BRANCH   8   9
ATOM      9  C   UNL     1       1.682   4.932  19.963  0.00  0.00    +0.000 C 
BRANCH   9  10
ATOM     10  C   UNL     1       2.942   4.104  20.005  0.00  0.00    +0.000 C 
ATOM     11  O   UNL     1       3.188   3.294  20.899  0.00  0.00    +0.000 OA
BRANCH  10  16
ATOM     12  C   UNL     1       6.916   4.934  15.857  0.00  0.00    +0.000 C 
ATOM     13  C   UNL     1       5.879   4.735  16.932  0.00  0.00    +0.000 A 
ATOM     14  C   UNL     1       4.606   4.253  16.573  0.00  0.00    +0.000 A 
ATOM     15  C   UNL     1       3.626   4.050  17.551  0.00  0.00    +0.000 A 
ATOM     16  C   UNL     1       3.916   4.316  18.898  0.00  0.00    +0.000 A 
ATOM     17  C   UNL     1       5.186   4.793  19.244  0.00  0.00    +0.000 A 
ATOM     18  C   UNL     1       6.157   5.012  18.278  0.00  0.00    +0.000 A 
ATOM     19  C   UNL     1       7.489   5.543  18.727  0.00  0.00    +0.000 C 
ENDBRANCH  10  16
ENDBRANCH   9  10
ENDBRANCH   8   9
ENDBRANCH   7   8
ENDBRANCH   1   7
BRANCH   4  20
ATOM     20  C   UNL     1      -0.310  11.682  21.882  0.00  0.00    +0.000 C 
BRANCH  20  21
ATOM     21  C   UNL     1       0.122  12.552  20.699  0.00  0.00    +0.000 A 
ATOM     22  C   UNL     1      -0.754  12.794  19.628  0.00  0.00    +0.000 A 
ATOM     23  C   UNL     1      -0.290  13.388  18.456  0.00  0.00    +0.000 A 
ATOM     24  C   UNL     1       1.049  13.759  18.343  0.00  0.00    +0.000 A 
ATOM     25  C   UNL     1       1.917  13.574  19.418  0.00  0.00    +0.000 A 
ATOM     26  C   UNL     1       1.457  12.985  20.597  0.00  0.00    +0.000 A 
ENDBRANCH  20  21
BRANCH  20  27
ATOM     27  C   UNL     1      -1.328  12.416  22.784  0.00  0.00    +0.000 A 
ATOM     28  C   UNL     1      -1.047  13.713  23.255  0.00  0.00    +0.000 A 
ATOM     29  C   UNL     1      -1.981  14.421  24.020  0.00  0.00    +0.000 A 
ATOM     30  C   UNL     1      -3.210  13.847  24.340  0.00  0.00    +0.000 A 
ATOM     31  C   UNL     1      -3.492  12.552  23.915  0.00  0.00    +0.000 A 
ATOM     32  C   UNL     1      -2.563  11.846  23.147  0.00  0.00    +0.000 A 
ENDBRANCH  20  27
ENDBRANCH   4  20
TORSDOF 8
ENDMDL
MODEL 4
REMARK VINA RESULT:      -8.3      4.035      8.142
REMARK  Name = 
REMARK  10 active torsions:
REMARK  status: ('A' for Active; 'I' for Inactive)
REMARK    1  A    between atoms: C_1  and  C_2
REMARK    2  A    between atoms: C_5  and  C_6
REMARK    3  A    between atoms: C_6  and  C_8
REMARK    4  A    between atoms: C_8  and  C_9
REMARK    5  A    between atoms: C_9  and  C_10
REMARK    6  A    between atoms: C_10  and  N_11
REMARK    7  A    between atoms: N_14  and  C_15
REMARK    8  A    between atoms: C_15  and  C_16
REMARK    9  A    between atoms: C_15  and  C_22
REMARK   10  A    between atoms: C_31  and  C_32
REMARK                            x       y       z     vdW  Elec       q    Type
REMARK                         _______ _______ _______ _____ _____    ______ ____
ROOT
ATOM      1  N   UNL     1       1.513   7.470  19.328  0.00  0.00    +0.000 NA
ATOM      2  C   UNL     1       2.107   7.995  18.073  0.00  0.00    +0.000 C 
ATOM      3  C   UNL     1       3.641   7.784  17.886  0.00  0.00    +0.000 C 
ATOM      4  N   UNL     1       4.166   6.437  18.262  0.00  0.00    +0.000 NA
ATOM      5  C   UNL     1       3.603   6.132  19.586  0.00  0.00    +0.000 C 
ATOM      6  C   UNL     1       2.059   6.125  19.582  0.00  0.00    +0.000 C 
ENDROOT
BRANCH   1   7
ATOM      7  C   UNL     1       1.748   8.265  20.543  0.00  0.00    +0.000 C 
BRANCH   7   8
ATOM      8  C   UNL     1       0.629   9.152  21.050  0.00  0.00    +0.000 C 
BRANCH   8   9
ATOM      9  C   UNL     1       1.027  10.608  20.958  0.00  0.00    +0.000 C 
BRANCH   9  10
ATOM     10  C   UNL     1       0.794  11.140  19.567  0.00  0.00    +0.000 C 
ATOM     11  O   UNL     1       1.680  11.650  18.881  0.00  0.00    +0.000 OA
BRANCH  10  16
ATOM     12  C   UNL     1      -4.668  10.944  17.612  0.00  0.00    +0.000 C 
ATOM     13  C   UNL     1      -3.254  10.982  18.131  0.00  0.00    +0.000 A 
ATOM     14  C   UNL     1      -2.281  10.165  17.524  0.00  0.00    +0.000 A 
ATOM     15  C   UNL     1      -0.957  10.187  17.980  0.00  0.00    +0.000 A 
ATOM     16  C   UNL     1      -0.595  11.036  19.037  0.00  0.00    +0.000 A 
ATOM     17  C   UNL     1      -1.570  11.845  19.632  0.00  0.00    +0.000 A 
ATOM     18  C   UNL     1      -2.887  11.817  19.196  0.00  0.00    +0.000 A 
ATOM     19  C   UNL     1      -3.879  12.702  19.897  0.00  0.00    +0.000 C 
ENDBRANCH  10  16
ENDBRANCH   9  10
ENDBRANCH   8   9
ENDBRANCH   7   8
ENDBRANCH   1   7
BRANCH   4  20
ATOM     20  C   UNL     1       3.853   5.364  17.262  0.00  0.00    +0.000 C 
BRANCH  20  21
ATOM     21  C   UNL     1       5.001   5.227  16.259  0.00  0.00    +0.000 A 
ATOM     22  C   UNL     1       4.847   4.460  15.092  0.00  0.00    +0.000 A 
ATOM     23  C   UNL     1       5.951   4.148  14.301  0.00  0.00    +0.000 A 
ATOM     24  C   UNL     1       7.218   4.607  14.657  0.00  0.00    +0.000 A 
ATOM     25  C   UNL     1       7.377   5.415  15.783  0.00  0.00    +0.000 A 
ATOM     26  C   UNL     1       6.274   5.736  16.575  0.00  0.00    +0.000 A 
ENDBRANCH  20  21
BRANCH  20  27
ATOM     27  C   UNL     1       3.477   4.000  17.883  0.00  0.00    +0.000 A 
ATOM     28  C   UNL     1       2.211   3.434  17.634  0.00  0.00    +0.000 A 
ATOM     29  C   UNL     1       1.873   2.172  18.133  0.00  0.00    +0.000 A 
ATOM     30  C   UNL     1       2.786   1.450  18.901  0.00  0.00    +0.000 A 
ATOM     31  C   UNL     1       4.028   2.007  19.191  0.00  0.00    +0.000 A 
ATOM     32  C   UNL     1       4.369   3.264  18.688  0.00  0.00    +0.000 A 
ENDBRANCH  20  27
ENDBRANCH   4  20
TORSDOF 8
ENDMDL
MODEL 5
REMARK VINA RESULT:      -8.3      4.241      8.251
REMARK  Name = 
REMARK  10 active torsions:
REMARK  status: ('A' for Active; 'I' for Inactive)
REMARK    1  A    between atoms: C_1  and  C_2
REMARK    2  A    between atoms: C_5  and  C_6
REMARK    3  A    between atoms: C_6  and  C_8
REMARK    4  A    between atoms: C_8  and  C_9
REMARK    5  A    between atoms: C_9  and  C_10
REMARK    6  A    between atoms: C_10  and  N_11
REMARK    7  A    between atoms: N_14  and  C_15
REMARK    8  A    between atoms: C_15  and  C_16
REMARK    9  A    between atoms: C_15  and  C_22
REMARK   10  A    between atoms: C_31  and  C_32
REMARK                            x       y       z     vdW  Elec       q    Type
REMARK                         _______ _______ _______ _____ _____    ______ ____
ROOT
ATOM      1  N   UNL     1       0.206   8.581  20.800  0.00  0.00    +0.000 NA
ATOM      2  C   UNL     1      -0.597   8.951  21.992  0.00  0.00    +0.000 C 
ATOM      3  C   UNL     1      -0.056  10.128  22.860  0.00  0.00    +0.000 C 
ATOM      4  N   UNL     1       0.453  11.315  22.108  0.00  0.00    +0.000 NA
ATOM      5  C   UNL     1       1.343  10.786  21.062  0.00  0.00    +0.000 C 
ATOM      6  C   UNL     1       0.617   9.815  20.107  0.00  0.00    +0.000 C 
ENDROOT
BRANCH   1   7
ATOM      7  C   UNL     1       1.428   7.804  21.053  0.00  0.00    +0.000 C 
BRANCH   7   8
ATOM      8  C   UNL     1       1.875   6.805  20.005  0.00  0.00    +0.000 C 
BRANCH   8   9
ATOM      9  C   UNL     1       2.048   5.434  20.621  0.00  0.00    +0.000 C 
BRANCH   9  10
ATOM     10  C   UNL     1       2.151   4.375  19.552  0.00  0.00    +0.000 C 
ATOM     11  O   UNL     1       1.302   3.500  19.384  0.00  0.00    +0.000 OA
BRANCH  10  16
ATOM     12  C   UNL     1       7.008   4.564  16.379  0.00  0.00    +0.000 C 
ATOM     13  C   UNL     1       5.743   4.531  17.198  0.00  0.00    +0.000 A 
ATOM     14  C   UNL     1       4.561   4.041  16.611  0.00  0.00    +0.000 A 
ATOM     15  C   UNL     1       3.374   3.991  17.350  0.00  0.00    +0.000 A 
ATOM     16  C   UNL     1       3.363   4.419  18.687  0.00  0.00    +0.000 A 
ATOM     17  C   UNL     1       4.544   4.902  19.261  0.00  0.00    +0.000 A 
ATOM     18  C   UNL     1       5.721   4.970  18.529  0.00  0.00    +0.000 A 
ATOM     19  C   UNL     1       6.943   5.519  19.211  0.00  0.00    +0.000 C 
ENDBRANCH  10  16
ENDBRANCH   9  10
ENDBRANCH   8   9
ENDBRANCH   7   8
ENDBRANCH   1   7
BRANCH   4  20
ATOM     20  C   UNL     1      -0.630  12.179  21.534  0.00  0.00    +0.000 C 
BRANCH  20  21
ATOM     21  C   UNL     1      -1.565  12.661  22.646  0.00  0.00    +0.000 A 
ATOM     22  C   UNL     1      -2.850  12.114  22.793  0.00  0.00    +0.000 A 
ATOM     23  C   UNL     1      -3.776  12.705  23.649  0.00  0.00    +0.000 A 
ATOM     24  C   UNL     1      -3.429  13.841  24.378  0.00  0.00    +0.000 A 
ATOM     25  C   UNL     1      -2.139  14.364  24.283  0.00  0.00    +0.000 A 
ATOM     26  C   UNL     1      -1.205  13.772  23.432  0.00  0.00    +0.000 A 
ENDBRANCH  20  21
BRANCH  20  27
ATOM     27  C   UNL     1      -0.121  13.355  20.671  0.00  0.00    +0.000 A 
ATOM     28  C   UNL     1      -0.757  13.665  19.453  0.00  0.00    +0.000 A 
ATOM     29  C   UNL     1      -0.355  14.764  18.687  0.00  0.00    +0.000 A 
ATOM     30  C   UNL     1       0.698  15.572  19.113  0.00  0.00    +0.000 A 
ATOM     31  C   UNL     1       1.365  15.262  20.295  0.00  0.00    +0.000 A 
ATOM     32  C   UNL     1       0.960  14.168  21.064  0.00  0.00    +0.000 A 
ENDBRANCH  20  27
ENDBRANCH   4  20
TORSDOF 8
ENDMDL
MODEL 6
REMARK VINA RESULT:      -8.3      3.948      8.010
REMARK  Name = 
REMARK  10 active torsions:
REMARK  status: ('A' for Active; 'I' for Inactive)
REMARK    1  A    between atoms: C_1  and  C_2
REMARK    2  A    between atoms: C_5  and  C_6
REMARK    3  A    between atoms: C_6  and  C_8
REMARK    4  A    between atoms: C_8  and  C_9
REMARK    5  A    between atoms: C_9  and  C_10
REMARK    6  A    between atoms: C_10  and  N_11
REMARK    7  A    between atoms: N_14  and  C_15
REMARK    8  A    between atoms: C_15  and  C_16
REMARK    9  A    between atoms: C_15  and  C_22
REMARK   10  A    between atoms: C_31  and  C_32
REMARK                            x       y       z     vdW  Elec       q    Type
REMARK                         _______ _______ _______ _____ _____    ______ ____
ROOT
ATOM      1  N   UNL     1       1.458   8.587  21.162  0.00  0.00    +0.000 NA
ATOM      2  C   UNL     1       1.046   9.518  20.081  0.00  0.00    +0.000 C 
ATOM      3  C   UNL     1      -0.420  10.046  20.134  0.00  0.00    +0.000 C 
ATOM      4  N   UNL     1      -0.916  10.461  21.481  0.00  0.00    +0.000 NA
ATOM      5  C   UNL     1      -0.560   9.371  22.403  0.00  0.00    +0.000 C 
ATOM      6  C   UNL     1       0.960   9.110  22.448  0.00  0.00    +0.000 C 
ENDROOT
BRANCH   1   7
ATOM      7  C   UNL     1       0.978   7.202  21.048  0.00  0.00    +0.000 C 
BRANCH   7   8
ATOM      8  C   UNL     1       1.984   6.116  20.728  0.00  0.00    +0.000 C 
BRANCH   8   9
ATOM      9  C   UNL     1       2.585   6.339  19.358  0.00  0.00    +0.000 C 
BRANCH   9  10
ATOM     10  C   UNL     1       2.810   5.025  18.652  0.00  0.00    +0.000 C 
ATOM     11  O   UNL     1       2.117   4.026  18.847  0.00  0.00    +0.000 OA
BRANCH  10  16
ATOM     12  C   UNL     1       7.359   4.956  15.048  0.00  0.00    +0.000 C 
ATOM     13  C   UNL     1       6.169   4.985  15.973  0.00  0.00    +0.000 A 
ATOM     14  C   UNL     1       5.151   4.028  15.807  0.00  0.00    +0.000 A 
ATOM     15  C   UNL     1       4.039   4.025  16.657  0.00  0.00    +0.000 A 
ATOM     16  C   UNL     1       3.944   4.973  17.688  0.00  0.00    +0.000 A 
ATOM     17  C   UNL     1       4.963   5.919  17.845  0.00  0.00    +0.000 A 
ATOM     18  C   UNL     1       6.061   5.937  16.996  0.00  0.00    +0.000 A 
ATOM     19  C   UNL     1       7.104   6.997  17.219  0.00  0.00    +0.000 C 
ENDBRANCH  10  16
ENDBRANCH   9  10
ENDBRANCH   8   9
ENDBRANCH   7   8
ENDBRANCH   1   7
BRANCH   4  20
ATOM     20  C   UNL     1      -0.377  11.782  21.945  0.00  0.00    +0.000 C 
BRANCH  20  21
ATOM     21  C   UNL     1       0.099  12.607  20.747  0.00  0.00    +0.000 A 
ATOM     22  C   UNL     1       1.446  12.982  20.624  0.00  0.00    +0.000 A 
ATOM     23  C   UNL     1       1.835  13.917  19.666  0.00  0.00    +0.000 A 
ATOM     24  C   UNL     1       0.887  14.478  18.812  0.00  0.00    +0.000 A 
ATOM     25  C   UNL     1      -0.446  14.074  18.887  0.00  0.00    +0.000 A 
ATOM     26  C   UNL     1      -0.839  13.134  19.840  0.00  0.00    +0.000 A 
ENDBRANCH  20  21
BRANCH  20  27
ATOM     27  C   UNL     1      -1.344  12.589  22.840  0.00  0.00    +0.000 A 
ATOM     28  C   UNL     1      -0.957  13.846  23.344  0.00  0.00    +0.000 A 
ATOM     29  C   UNL     1      -1.840  14.622  24.103  0.00  0.00    +0.000 A 
ATOM     30  C   UNL     1      -3.123  14.157  24.386  0.00  0.00    +0.000 A 
ATOM     31  C   UNL     1      -3.512  12.901  23.930  0.00  0.00    +0.000 A 
ATOM     32  C   UNL     1      -2.634  12.128  23.167  0.00  0.00    +0.000 A 
ENDBRANCH  20  27
ENDBRANCH   4  20
TORSDOF 8
ENDMDL
MODEL 7
REMARK VINA RESULT:      -8.3      5.205      9.650
REMARK  Name = 
REMARK  10 active torsions:
REMARK  status: ('A' for Active; 'I' for Inactive)
REMARK    1  A    between atoms: C_1  and  C_2
REMARK    2  A    between atoms: C_5  and  C_6
REMARK    3  A    between atoms: C_6  and  C_8
REMARK    4  A    between atoms: C_8  and  C_9
REMARK    5  A    between atoms: C_9  and  C_10
REMARK    6  A    between atoms: C_10  and  N_11
REMARK    7  A    between atoms: N_14  and  C_15
REMARK    8  A    between atoms: C_15  and  C_16
REMARK    9  A    between atoms: C_15  and  C_22
REMARK   10  A    between atoms: C_31  and  C_32
REMARK                            x       y       z     vdW  Elec       q    Type
REMARK                         _______ _______ _______ _____ _____    ______ ____
ROOT
ATOM      1  N   UNL     1      -0.439  10.269  19.509  0.00  0.00    +0.000 NA
ATOM      2  C   UNL     1      -0.453  11.250  20.622  0.00  0.00    +0.000 C 
ATOM      3  C   UNL     1      -1.085  12.643  20.319  0.00  0.00    +0.000 C 
ATOM      4  N   UNL     1      -2.361  12.626  19.541  0.00  0.00    +0.000 NA
ATOM      5  C   UNL     1      -2.132  11.727  18.398  0.00  0.00    +0.000 C 
ATOM      6  C   UNL     1      -1.752  10.298  18.839  0.00  0.00    +0.000 C 
ENDROOT
BRANCH   1   7
ATOM      7  C   UNL     1       0.578  10.479  18.467  0.00  0.00    +0.000 C 
BRANCH   7   8
ATOM      8  C   UNL     1       1.208   9.263  17.821  0.00  0.00    +0.000 C 
BRANCH   8   9
ATOM      9  C   UNL     1       2.349   8.746  18.668  0.00  0.00    +0.000 C 
BRANCH   9  10
ATOM     10  C   UNL     1       2.885   7.451  18.112  0.00  0.00    +0.000 C 
ATOM     11  O   UNL     1       3.621   7.391  17.127  0.00  0.00    +0.000 OA
BRANCH  10  16
ATOM     12  C   UNL     1       1.378   2.462  20.668  0.00  0.00    +0.000 C 
ATOM     13  C   UNL     1       1.753   3.759  19.999  0.00  0.00    +0.000 A 
ATOM     14  C   UNL     1       1.669   4.957  20.734  0.00  0.00    +0.000 A 
ATOM     15  C   UNL     1       2.020   6.175  20.141  0.00  0.00    +0.000 A 
ATOM     16  C   UNL     1       2.468   6.203  18.812  0.00  0.00    +0.000 A 
ATOM     17  C   UNL     1       2.550   5.006  18.091  0.00  0.00    +0.000 A 
ATOM     18  C   UNL     1       2.190   3.796  18.667  0.00  0.00    +0.000 A 
ATOM     19  C   UNL     1       2.288   2.557  17.822  0.00  0.00    +0.000 C 
ENDBRANCH  10  16
ENDBRANCH   9  10
ENDBRANCH   8   9
ENDBRANCH   7   8
ENDBRANCH   1   7
BRANCH   4  20
ATOM     20  C   UNL     1      -3.556  12.210  20.346  0.00  0.00    +0.000 C 
BRANCH  20  21
ATOM     21  C   UNL     1      -3.667  13.070  21.607  0.00  0.00    +0.000 A 
ATOM     22  C   UNL     1      -3.597  12.487  22.883  0.00  0.00    +0.000 A 
ATOM     23  C   UNL     1      -3.925  13.226  24.017  0.00  0.00    +0.000 A 
ATOM     24  C   UNL     1      -4.313  14.559  23.894  0.00  0.00    +0.000 A 
ATOM     25  C   UNL     1      -4.334  15.167  22.639  0.00  0.00    +0.000 A 
ATOM     26  C   UNL     1      -4.001  14.433  21.500  0.00  0.00    +0.000 A 
ENDBRANCH  20  21
BRANCH  20  27
ATOM     27  C   UNL     1      -4.884  12.188  19.557  0.00  0.00    +0.000 A 
ATOM     28  C   UNL     1      -6.107  12.031  20.236  0.00  0.00    +0.000 A 
ATOM     29  C   UNL     1      -7.326  12.072  19.549  0.00  0.00    +0.000 A 
ATOM     30  C   UNL     1      -7.350  12.260  18.168  0.00  0.00    +0.000 A 
ATOM     31  C   UNL     1      -6.150  12.381  17.472  0.00  0.00    +0.000 A 
ATOM     32  C   UNL     1      -4.934  12.345  18.158  0.00  0.00    +0.000 A 
ENDBRANCH  20  27
ENDBRANCH   4  20
TORSDOF 8
ENDMDL
MODEL 8
REMARK VINA RESULT:      -8.3      5.507      7.199
REMARK  Name = 
REMARK  10 active torsions:
REMARK  status: ('A' for Active; 'I' for Inactive)
REMARK    1  A    between atoms: C_1  and  C_2
REMARK    2  A    between atoms: C_5  and  C_6
REMARK    3  A    between atoms: C_6  and  C_8
REMARK    4  A    between atoms: C_8  and  C_9
REMARK    5  A    between atoms: C_9  and  C_10
REMARK    6  A    between atoms: C_10  and  N_11
REMARK    7  A    between atoms: N_14  and  C_15
REMARK    8  A    between atoms: C_15  and  C_16
REMARK    9  A    between atoms: C_15  and  C_22
REMARK   10  A    between atoms: C_31  and  C_32
REMARK                            x       y       z     vdW  Elec       q    Type
REMARK                         _______ _______ _______ _____ _____    ______ ____
ROOT
ATOM      1  N   UNL     1       2.677  14.399  19.345  0.00  0.00    +0.000 NA
ATOM      2  C   UNL     1       2.375  13.824  20.680  0.00  0.00    +0.000 C 
ATOM      3  C   UNL     1       0.873  13.778  21.097  0.00  0.00    +0.000 C 
ATOM      4  N   UNL     1      -0.085  13.334  20.040  0.00  0.00    +0.000 NA
ATOM      5  C   UNL     1       0.254  14.100  18.830  0.00  0.00    +0.000 C 
ATOM      6  C   UNL     1       1.708  13.862  18.371  0.00  0.00    +0.000 C 
ENDROOT
BRANCH   1   7
ATOM      7  C   UNL     1       2.625  15.864  19.238  0.00  0.00    +0.000 C 
BRANCH   7   8
ATOM      8  C   UNL     1       3.801  16.582  18.606  0.00  0.00    +0.000 C 
BRANCH   8   9
ATOM      9  C   UNL     1       4.928  15.611  18.335  0.00  0.00    +0.000 C 
BRANCH   9  10
ATOM     10  C   UNL     1       6.249  16.185  18.783  0.00  0.00    +0.000 C 
ATOM     11  O   UNL     1       6.546  17.373  18.657  0.00  0.00    +0.000 OA
BRANCH  10  16
ATOM     12  C   UNL     1      10.132  12.447  20.937  0.00  0.00    +0.000 C 
ATOM     13  C   UNL     1       9.111  13.405  20.379  0.00  0.00    +0.000 A 
ATOM     14  C   UNL     1       8.376  14.214  21.266  0.00  0.00    +0.000 A 
ATOM     15  C   UNL     1       7.428  15.119  20.774  0.00  0.00    +0.000 A 
ATOM     16  C   UNL     1       7.218  15.231  19.391  0.00  0.00    +0.000 A 
ATOM     17  C   UNL     1       7.956  14.423  18.519  0.00  0.00    +0.000 A 
ATOM     18  C   UNL     1       8.886  13.513  18.999  0.00  0.00    +0.000 A 
ATOM     19  C   UNL     1       9.626  12.669  17.999  0.00  0.00    +0.000 C 
ENDBRANCH  10  16
ENDBRANCH   9  10
ENDBRANCH   8   9
ENDBRANCH   7   8
ENDBRANCH   1   7
BRANCH   4  20
ATOM     20  C   UNL     1      -0.065  11.855  19.788  0.00  0.00    +0.000 C 
BRANCH  20  21
ATOM     21  C   UNL     1       0.026  11.095  21.113  0.00  0.00    +0.000 A 
ATOM     22  C   UNL     1       0.996  10.098  21.303  0.00  0.00    +0.000 A 
ATOM     23  C   UNL     1       0.936   9.255  22.411  0.00  0.00    +0.000 A 
ATOM     24  C   UNL     1      -0.086   9.405  23.348  0.00  0.00    +0.000 A 
ATOM     25  C   UNL     1      -1.025  10.426  23.200  0.00  0.00    +0.000 A 
ATOM     26  C   UNL     1      -0.965  11.277  22.095  0.00  0.00    +0.000 A 
ENDBRANCH  20  21
BRANCH  20  27
ATOM     27  C   UNL     1      -1.233  11.338  18.917  0.00  0.00    +0.000 A 
ATOM     28  C   UNL     1      -2.509  11.923  19.028  0.00  0.00    +0.000 A 
ATOM     29  C   UNL     1      -3.565  11.515  18.205  0.00  0.00    +0.000 A 
ATOM     30  C   UNL     1      -3.373  10.507  17.262  0.00  0.00    +0.000 A 
ATOM     31  C   UNL     1      -2.129   9.890  17.161  0.00  0.00    +0.000 A 
ATOM     32  C   UNL     1      -1.074  10.301  17.978  0.00  0.00    +0.000 A 
ENDBRANCH  20  27
ENDBRANCH   4  20
TORSDOF 8
ENDMDL
MODEL 9
REMARK VINA RESULT:      -8.3      3.140     10.310
REMARK  Name = 
REMARK  10 active torsions:
REMARK  status: ('A' for Active; 'I' for Inactive)
REMARK    1  A    between atoms: C_1  and  C_2
REMARK    2  A    between atoms: C_5  and  C_6
REMARK    3  A    between atoms: C_6  and  C_8
REMARK    4  A    between atoms: C_8  and  C_9
REMARK    5  A    between atoms: C_9  and  C_10
REMARK    6  A    between atoms: C_10  and  N_11
REMARK    7  A    between atoms: N_14  and  C_15
REMARK    8  A    between atoms: C_15  and  C_16
REMARK    9  A    between atoms: C_15  and  C_22
REMARK   10  A    between atoms: C_31  and  C_32
REMARK                            x       y       z     vdW  Elec       q    Type
REMARK                         _______ _______ _______ _____ _____    ______ ____
ROOT
ATOM      1  N   UNL     1       9.628  10.706  18.357  0.00  0.00    +0.000 NA
ATOM      2  C   UNL     1       9.549  12.009  17.652  0.00  0.00    +0.000 C 
ATOM      3  C   UNL     1       8.679  13.115  18.323  0.00  0.00    +0.000 C 
ATOM      4  N   UNL     1       8.835  13.261  19.802  0.00  0.00    +0.000 NA
ATOM      5  C   UNL     1       8.744  11.903  20.360  0.00  0.00    +0.000 C 
ATOM      6  C   UNL     1       9.828  10.961  19.796  0.00  0.00    +0.000 C 
ENDROOT
BRANCH   1   7
ATOM      7  C   UNL     1       8.456   9.826  18.237  0.00  0.00    +0.000 C 
BRANCH   7   8
ATOM      8  C   UNL     1       8.600   8.376  18.652  0.00  0.00    +0.000 C 
BRANCH   8   9
ATOM      9  C   UNL     1       7.758   7.487  17.765  0.00  0.00    +0.000 C 
BRANCH   9  10
ATOM     10  C   UNL     1       7.342   6.237  18.499  0.00  0.00    +0.000 C 
ATOM     11  O   UNL     1       8.095   5.610  19.245  0.00  0.00    +0.000 OA
BRANCH  10  16
ATOM     12  C   UNL     1       1.940   4.234  17.797  0.00  0.00    +0.000 C 
ATOM     13  C   UNL     1       3.348   4.746  17.965  0.00  0.00    +0.000 A 
ATOM     14  C   UNL     1       3.686   6.003  17.429  0.00  0.00    +0.000 A 
ATOM     15  C   UNL     1       4.983   6.507  17.577  0.00  0.00    +0.000 A 
ATOM     16  C   UNL     1       5.948   5.764  18.273  0.00  0.00    +0.000 A 
ATOM     17  C   UNL     1       5.600   4.516  18.804  0.00  0.00    +0.000 A 
ATOM     18  C   UNL     1       4.321   4.003  18.648  0.00  0.00    +0.000 A 
ATOM     19  C   UNL     1       4.030   2.648  19.231  0.00  0.00    +0.000 C 
ENDBRANCH  10  16
ENDBRANCH   9  10
ENDBRANCH   8   9
ENDBRANCH   7   8
ENDBRANCH   1   7
BRANCH   4  20
ATOM     20  C   UNL     1      10.103  13.949  20.212  0.00  0.00    +0.000 C 
BRANCH  20  21
ATOM     21  C   UNL     1      10.559  14.912  19.114  0.00  0.00    +0.000 A 
ATOM     22  C   UNL     1       9.700  15.913  18.634  0.00  0.00    +0.000 A 
ATOM     23  C   UNL     1      10.027  16.635  17.488  0.00  0.00    +0.000 A 
ATOM     24  C   UNL     1      11.219  16.376  16.815  0.00  0.00    +0.000 A 
ATOM     25  C   UNL     1      12.108  15.422  17.311  0.00  0.00    +0.000 A 
ATOM     26  C   UNL     1      11.789  14.701  18.462  0.00  0.00    +0.000 A 
ENDBRANCH  20  21
BRANCH  20  27
ATOM     27  C   UNL     1      10.035  14.649  21.588  0.00  0.00    +0.000 A 
ATOM     28  C   UNL     1      10.911  15.712  21.884  0.00  0.00    +0.000 A 
ATOM     29  C   UNL     1      10.824  16.403  23.098  0.00  0.00    +0.000 A 
ATOM     30  C   UNL     1       9.871  16.040  24.048  0.00  0.00    +0.000 A 
ATOM     31  C   UNL     1       9.021  14.969  23.791  0.00  0.00    +0.000 A 
ATOM     32  C   UNL     1       9.102  14.283  22.578  0.00  0.00    +0.000 A 
ENDBRANCH  20  27
ENDBRANCH   4  20
TORSDOF 8
ENDMDL
