MODEL 1
REMARK VINA RESULT:      -8.2      0.000      0.000
REMARK  Name = 
REMARK  9 active torsions:
REMARK  status: ('A' for Active; 'I' for Inactive)
REMARK    1  A    between atoms: C_1  and  N_2
REMARK    2  A    between atoms: N_2  and  C_3
REMARK    3  A    between atoms: N_2  and  C_4
REMARK    4  A    between atoms: C_4  and  C_5
REMARK    5  A    between atoms: C_5  and  N_6
REMARK    6  A    between atoms: C_9  and  N_10
REMARK    7  A    between atoms: C_13  and  C_14
REMARK    8  A    between atoms: C_20  and  C_21
REMARK    9  A    between atoms: C_25  and  C_26
REMARK                            x       y       z     vdW  Elec       q    Type
REMARK                         _______ _______ _______ _____ _____    ______ ____
ROOT
ATOM      1  N   UNL     1       4.710   3.593  19.739  0.00  0.00    +0.000 N 
ATOM      2  C   UNL     1       4.588   4.758  18.951  0.00  0.00    +0.000 A 
ATOM      3  C   UNL     1       5.444   4.928  17.883  0.00  0.00    +0.000 A 
ATOM      4  C   UNL     1       5.280   6.065  17.119  0.00  0.00    +0.000 A 
ATOM      5  N   UNL     1       4.333   6.973  17.404  0.00  0.00    +0.000 NA
ATOM      6  C   UNL     1       3.569   6.753  18.479  0.00  0.00    +0.000 A 
ATOM      7  N   UNL     1       3.676   5.685  19.279  0.00  0.00    +0.000 NA
ATOM      8  H   UNL     1       4.931   2.810  19.122  0.00  0.00    +0.000 HD
ENDROOT
BRANCH   4   9
ATOM      9  N   UNL     1       6.145   6.282  16.024  0.00  0.00    +0.000 N 
ATOM     10  C   UNL     1       6.298   5.427  14.991  0.00  0.00    +0.000 A 
ATOM     11  C   UNL     1       5.234   4.681  14.429  0.00  0.00    +0.000 A 
ATOM     12  C   UNL     1       5.809   3.897  13.467  0.00  0.00    +0.000 A 
ATOM     13  N   UNL     1       7.128   4.244  13.452  0.00  0.00    +0.000 N 
ATOM     14  N   UNL     1       7.446   5.200  14.347  0.00  0.00    +0.000 NA
ATOM     15  H   UNL     1       6.993   6.751  16.317  0.00  0.00    +0.000 HD
ATOM     16  H   UNL     1       7.864   3.875  12.862  0.00  0.00    +0.000 HD
BRANCH  12  17
ATOM     17  C   UNL     1       5.138   2.846  12.610  0.00  0.00    +0.000 C 
ATOM     18  C   UNL     1       4.622   3.257  11.244  0.00  0.00    +0.000 C 
ATOM     19  C   UNL     1       5.829   2.389  11.342  0.00  0.00    +0.000 C 
ENDBRANCH  12  17
ENDBRANCH   4   9
BRANCH   6  20
ATOM     20  C   UNL     1       2.517   7.732  18.788  0.00  0.00    +0.000 A 
ATOM     21  C   UNL     1       1.974   8.561  17.787  0.00  0.00    +0.000 A 
ATOM     22  C   UNL     1       0.966   9.484  18.075  0.00  0.00    +0.000 A 
ATOM     23  C   UNL     1       0.486   9.606  19.377  0.00  0.00    +0.000 A 
ATOM     24  C   UNL     1       1.009   8.800  20.390  0.00  0.00    +0.000 A 
ATOM     25  C   UNL     1       2.009   7.866  20.094  0.00  0.00    +0.000 A 
BRANCH  24  26
ATOM     26  C   UNL     1       0.526   8.930  21.733  0.00  0.00    +0.000 C 
ATOM     27  N   UNL     1       0.134   9.043  22.821  0.00  0.00    +0.000 NA
ENDBRANCH  24  26
ENDBRANCH   6  20
BRANCH   1  28
ATOM     28  C   UNL     1       3.459   3.259  20.444  0.00  0.00    +0.000 C 
BRANCH  28  29
ATOM     29  C   UNL     1       2.538   2.365  19.567  0.00  0.00    +0.000 C 
BRANCH  29  31
ATOM     30  C   UNL     1       0.855   3.976  20.268  0.00  0.00    +0.000 C 
ATOM     31  N   UNL     1       1.216   2.973  19.264  0.00  0.00    +0.000 NA
ATOM     32  C   UNL     1       1.261   3.602  17.938  0.00  0.00    +0.000 C 
ENDBRANCH  29  31
ENDBRANCH  28  29
ENDBRANCH   1  28
TORSDOF 7
ENDMDL
MODEL 2
REMARK VINA RESULT:      -8.0      1.038      1.229
REMARK  Name = 
REMARK  9 active torsions:
REMARK  status: ('A' for Active; 'I' for Inactive)
REMARK    1  A    between atoms: C_1  and  N_2
REMARK    2  A    between atoms: N_2  and  C_3
REMARK    3  A    between atoms: N_2  and  C_4
REMARK    4  A    between atoms: C_4  and  C_5
REMARK    5  A    between atoms: C_5  and  N_6
REMARK    6  A    between atoms: C_9  and  N_10
REMARK    7  A    between atoms: C_13  and  C_14
REMARK    8  A    between atoms: C_20  and  C_21
REMARK    9  A    between atoms: C_25  and  C_26
REMARK                            x       y       z     vdW  Elec       q    Type
REMARK                         _______ _______ _______ _____ _____    ______ ____
ROOT
ATOM      1  N   UNL     1       3.633   4.045  20.026  0.00  0.00    +0.000 N 
ATOM      2  C   UNL     1       3.712   5.271  19.330  0.00  0.00    +0.000 A 
ATOM      3  C   UNL     1       4.756   5.469  18.451  0.00  0.00    +0.000 A 
ATOM      4  C   UNL     1       4.787   6.667  17.769  0.00  0.00    +0.000 A 
ATOM      5  N   UNL     1       3.845   7.607  17.954  0.00  0.00    +0.000 NA
ATOM      6  C   UNL     1       2.888   7.352  18.852  0.00  0.00    +0.000 A 
ATOM      7  N   UNL     1       2.798   6.224  19.566  0.00  0.00    +0.000 NA
ATOM      8  H   UNL     1       3.929   3.298  19.396  0.00  0.00    +0.000 HD
ENDROOT
BRANCH   4   9
ATOM      9  N   UNL     1       5.847   6.913  16.869  0.00  0.00    +0.000 N 
ATOM     10  C   UNL     1       6.258   6.047  15.919  0.00  0.00    +0.000 A 
ATOM     11  C   UNL     1       5.377   5.227  15.175  0.00  0.00    +0.000 A 
ATOM     12  C   UNL     1       6.181   4.458  14.379  0.00  0.00    +0.000 A 
ATOM     13  N   UNL     1       7.454   4.884  14.625  0.00  0.00    +0.000 N 
ATOM     14  N   UNL     1       7.526   5.876  15.534  0.00  0.00    +0.000 NA
ATOM     15  H   UNL     1       6.589   7.438  17.315  0.00  0.00    +0.000 HD
ATOM     16  H   UNL     1       8.315   4.548  14.212  0.00  0.00    +0.000 HD
BRANCH  12  17
ATOM     17  C   UNL     1       5.762   3.351  13.437  0.00  0.00    +0.000 C 
ATOM     18  C   UNL     1       4.977   3.725  12.194  0.00  0.00    +0.000 C 
ATOM     19  C   UNL     1       6.394   3.284  12.062  0.00  0.00    +0.000 C 
ENDBRANCH  12  17
ENDBRANCH   4   9
BRANCH   6  20
ATOM     20  C   UNL     1       1.842   8.367  19.048  0.00  0.00    +0.000 A 
ATOM     21  C   UNL     1       1.191   8.966  17.953  0.00  0.00    +0.000 A 
ATOM     22  C   UNL     1       0.189   9.922  18.136  0.00  0.00    +0.000 A 
ATOM     23  C   UNL     1      -0.176  10.309  19.423  0.00  0.00    +0.000 A 
ATOM     24  C   UNL     1       0.456   9.735  20.528  0.00  0.00    +0.000 A 
ATOM     25  C   UNL     1       1.450   8.767  20.339  0.00  0.00    +0.000 A 
BRANCH  24  26
ATOM     26  C   UNL     1       0.091  10.138  21.854  0.00  0.00    +0.000 C 
ATOM     27  N   UNL     1      -0.211  10.462  22.928  0.00  0.00    +0.000 NA
ENDBRANCH  24  26
ENDBRANCH   6  20
BRANCH   1  28
ATOM     28  C   UNL     1       2.261   3.735  20.465  0.00  0.00    +0.000 C 
BRANCH  28  29
ATOM     29  C   UNL     1       1.814   2.332  19.969  0.00  0.00    +0.000 C 
BRANCH  29  31
ATOM     30  C   UNL     1       0.988   3.532  18.020  0.00  0.00    +0.000 C 
ATOM     31  N   UNL     1       1.536   2.266  18.510  0.00  0.00    +0.000 NA
ATOM     32  C   UNL     1       2.778   1.959  17.790  0.00  0.00    +0.000 C 
ENDBRANCH  29  31
ENDBRANCH  28  29
ENDBRANCH   1  28
TORSDOF 7
ENDMDL
MODEL 3
REMARK VINA RESULT:      -7.7      1.632      5.096
REMARK  Name = 
REMARK  9 active torsions:
REMARK  status: ('A' for Active; 'I' for Inactive)
REMARK    1  A    between atoms: C_1  and  N_2
REMARK    2  A    between atoms: N_2  and  C_3
REMARK    3  A    between atoms: N_2  and  C_4
REMARK    4  A    between atoms: C_4  and  C_5
REMARK    5  A    between atoms: C_5  and  N_6
REMARK    6  A    between atoms: C_9  and  N_10
REMARK    7  A    between atoms: C_13  and  C_14
REMARK    8  A    between atoms: C_20  and  C_21
REMARK    9  A    between atoms: C_25  and  C_26
REMARK                            x       y       z     vdW  Elec       q    Type
REMARK                         _______ _______ _______ _____ _____    ______ ____
ROOT
ATOM      1  N   UNL     1       1.858   9.128  18.004  0.00  0.00    +0.000 N 
ATOM      2  C   UNL     1       2.723   8.013  18.017  0.00  0.00    +0.000 A 
ATOM      3  C   UNL     1       3.881   8.064  17.270  0.00  0.00    +0.000 A 
ATOM      4  C   UNL     1       4.717   6.968  17.328  0.00  0.00    +0.000 A 
ATOM      5  N   UNL     1       4.415   5.892  18.073  0.00  0.00    +0.000 NA
ATOM      6  C   UNL     1       3.255   5.907  18.737  0.00  0.00    +0.000 A 
ATOM      7  N   UNL     1       2.384   6.922  18.721  0.00  0.00    +0.000 NA
ATOM      8  H   UNL     1       2.426   9.976  17.986  0.00  0.00    +0.000 HD
ENDROOT
BRANCH   4   9
ATOM      9  N   UNL     1       5.906   6.976  16.567  0.00  0.00    +0.000 N 
ATOM     10  C   UNL     1       6.276   5.993  15.720  0.00  0.00    +0.000 A 
ATOM     11  C   UNL     1       5.366   5.282  14.902  0.00  0.00    +0.000 A 
ATOM     12  C   UNL     1       6.118   4.341  14.255  0.00  0.00    +0.000 A 
ATOM     13  N   UNL     1       7.405   4.566  14.649  0.00  0.00    +0.000 N 
ATOM     14  N   UNL     1       7.534   5.591  15.515  0.00  0.00    +0.000 NA
ATOM     15  H   UNL     1       6.667   7.400  17.084  0.00  0.00    +0.000 HD
ATOM     16  H   UNL     1       8.240   4.066  14.370  0.00  0.00    +0.000 HD
BRANCH  12  17
ATOM     17  C   UNL     1       5.634   3.257  13.316  0.00  0.00    +0.000 C 
ATOM     18  C   UNL     1       5.027   3.676  11.990  0.00  0.00    +0.000 C 
ATOM     19  C   UNL     1       6.373   3.038  12.012  0.00  0.00    +0.000 C 
ENDBRANCH  12  17
ENDBRANCH   4   9
BRANCH   6  20
ATOM     20  C   UNL     1       2.925   4.741  19.571  0.00  0.00    +0.000 A 
ATOM     21  C   UNL     1       1.616   4.530  20.046  0.00  0.00    +0.000 A 
ATOM     22  C   UNL     1       1.297   3.417  20.828  0.00  0.00    +0.000 A 
ATOM     23  C   UNL     1       2.286   2.496  21.164  0.00  0.00    +0.000 A 
ATOM     24  C   UNL     1       3.594   2.683  20.711  0.00  0.00    +0.000 A 
ATOM     25  C   UNL     1       3.906   3.792  19.915  0.00  0.00    +0.000 A 
BRANCH  24  26
ATOM     26  C   UNL     1       4.617   1.744  21.064  0.00  0.00    +0.000 C 
ATOM     27  N   UNL     1       5.443   0.979  21.354  0.00  0.00    +0.000 NA
ENDBRANCH  24  26
ENDBRANCH   6  20
BRANCH   1  28
ATOM     28  C   UNL     1       1.006   9.193  19.205  0.00  0.00    +0.000 C 
BRANCH  28  29
ATOM     29  C   UNL     1      -0.102  10.273  19.054  0.00  0.00    +0.000 C 
BRANCH  29  31
ATOM     30  C   UNL     1       0.214  10.789  21.410  0.00  0.00    +0.000 C 
ATOM     31  N   UNL     1      -0.765  10.642  20.331  0.00  0.00    +0.000 NA
ATOM     32  C   UNL     1      -1.493  11.905  20.156  0.00  0.00    +0.000 C 
ENDBRANCH  29  31
ENDBRANCH  28  29
ENDBRANCH   1  28
TORSDOF 7
ENDMDL
MODEL 4
REMARK VINA RESULT:      -7.7      1.229      1.748
REMARK  Name = 
REMARK  9 active torsions:
REMARK  status: ('A' for Active; 'I' for Inactive)
REMARK    1  A    between atoms: C_1  and  N_2
REMARK    2  A    between atoms: N_2  and  C_3
REMARK    3  A    between atoms: N_2  and  C_4
REMARK    4  A    between atoms: C_4  and  C_5
REMARK    5  A    between atoms: C_5  and  N_6
REMARK    6  A    between atoms: C_9  and  N_10
REMARK    7  A    between atoms: C_13  and  C_14
REMARK    8  A    between atoms: C_20  and  C_21
REMARK    9  A    between atoms: C_25  and  C_26
REMARK                            x       y       z     vdW  Elec       q    Type
REMARK                         _______ _______ _______ _____ _____    ______ ____
ROOT
ATOM      1  N   UNL     1       5.175   2.950  19.576  0.00  0.00    +0.000 N 
ATOM      2  C   UNL     1       4.900   4.203  18.986  0.00  0.00    +0.000 A 
ATOM      3  C   UNL     1       5.613   4.579  17.867  0.00  0.00    +0.000 A 
ATOM      4  C   UNL     1       5.300   5.797  17.301  0.00  0.00    +0.000 A 
ATOM      5  N   UNL     1       4.345   6.588  17.818  0.00  0.00    +0.000 NA
ATOM      6  C   UNL     1       3.727   6.167  18.925  0.00  0.00    +0.000 A 
ATOM      7  N   UNL     1       3.984   5.009  19.544  0.00  0.00    +0.000 NA
ATOM      8  H   UNL     1       5.365   2.278  18.831  0.00  0.00    +0.000 HD
ENDROOT
BRANCH   4   9
ATOM      9  N   UNL     1       6.016   6.224  16.162  0.00  0.00    +0.000 N 
ATOM     10  C   UNL     1       6.256   5.456  15.079  0.00  0.00    +0.000 A 
ATOM     11  C   UNL     1       5.322   4.531  14.554  0.00  0.00    +0.000 A 
ATOM     12  C   UNL     1       5.965   3.915  13.515  0.00  0.00    +0.000 A 
ATOM     13  N   UNL     1       7.184   4.523  13.428  0.00  0.00    +0.000 N 
ATOM     14  N   UNL     1       7.373   5.490  14.347  0.00  0.00    +0.000 NA
ATOM     15  H   UNL     1       6.774   6.845  16.419  0.00  0.00    +0.000 HD
ATOM     16  H   UNL     1       7.931   4.333  12.770  0.00  0.00    +0.000 HD
BRANCH  12  17
ATOM     17  C   UNL     1       5.454   2.782  12.654  0.00  0.00    +0.000 C 
ATOM     18  C   UNL     1       4.691   3.130  11.389  0.00  0.00    +0.000 C 
ATOM     19  C   UNL     1       6.068   2.571  11.285  0.00  0.00    +0.000 C 
ENDBRANCH  12  17
ENDBRANCH   4   9
BRANCH   6  20
ATOM     20  C   UNL     1       2.667   7.018  19.488  0.00  0.00    +0.000 A 
ATOM     21  C   UNL     1       1.957   6.633  20.641  0.00  0.00    +0.000 A 
ATOM     22  C   UNL     1       0.958   7.444  21.184  0.00  0.00    +0.000 A 
ATOM     23  C   UNL     1       0.639   8.656  20.577  0.00  0.00    +0.000 A 
ATOM     24  C   UNL     1       1.324   9.061  19.429  0.00  0.00    +0.000 A 
ATOM     25  C   UNL     1       2.335   8.251  18.897  0.00  0.00    +0.000 A 
BRANCH  24  26
ATOM     26  C   UNL     1       0.992  10.302  18.794  0.00  0.00    +0.000 C 
ATOM     27  N   UNL     1       0.716  11.307  18.280  0.00  0.00    +0.000 NA
ENDBRANCH  24  26
ENDBRANCH   6  20
BRANCH   1  28
ATOM     28  C   UNL     1       4.037   2.435  20.358  0.00  0.00    +0.000 C 
BRANCH  28  29
ATOM     29  C   UNL     1       2.859   2.019  19.432  0.00  0.00    +0.000 C 
BRANCH  29  31
ATOM     30  C   UNL     1       0.528   2.319  18.804  0.00  0.00    +0.000 C 
ATOM     31  N   UNL     1       1.638   2.850  19.598  0.00  0.00    +0.000 NA
ATOM     32  C   UNL     1       1.256   2.880  21.015  0.00  0.00    +0.000 C 
ENDBRANCH  29  31
ENDBRANCH  28  29
ENDBRANCH   1  28
TORSDOF 7
ENDMDL
MODEL 5
REMARK VINA RESULT:      -7.6      1.127      1.516
REMARK  Name = 
REMARK  9 active torsions:
REMARK  status: ('A' for Active; 'I' for Inactive)
REMARK    1  A    between atoms: C_1  and  N_2
REMARK    2  A    between atoms: N_2  and  C_3
REMARK    3  A    between atoms: N_2  and  C_4
REMARK    4  A    between atoms: C_4  and  C_5
REMARK    5  A    between atoms: C_5  and  N_6
REMARK    6  A    between atoms: C_9  and  N_10
REMARK    7  A    between atoms: C_13  and  C_14
REMARK    8  A    between atoms: C_20  and  C_21
REMARK    9  A    between atoms: C_25  and  C_26
REMARK                            x       y       z     vdW  Elec       q    Type
REMARK                         _______ _______ _______ _____ _____    ______ ____
ROOT
ATOM      1  N   UNL     1       2.765   3.588  18.488  0.00  0.00    +0.000 N 
ATOM      2  C   UNL     1       3.112   4.932  18.230  0.00  0.00    +0.000 A 
ATOM      3  C   UNL     1       4.227   5.193  17.462  0.00  0.00    +0.000 A 
ATOM      4  C   UNL     1       4.521   6.516  17.208  0.00  0.00    +0.000 A 
ATOM      5  N   UNL     1       3.759   7.512  17.692  0.00  0.00    +0.000 NA
ATOM      6  C   UNL     1       2.718   7.175  18.459  0.00  0.00    +0.000 A 
ATOM      7  N   UNL     1       2.376   5.918  18.765  0.00  0.00    +0.000 NA
ATOM      8  H   UNL     1       2.956   3.040  17.648  0.00  0.00    +0.000 HD
ENDROOT
BRANCH   4   9
ATOM      9  N   UNL     1       5.662   6.826  16.436  0.00  0.00    +0.000 N 
ATOM     10  C   UNL     1       6.246   5.978  15.564  0.00  0.00    +0.000 A 
ATOM     11  C   UNL     1       5.523   5.083  14.740  0.00  0.00    +0.000 A 
ATOM     12  C   UNL     1       6.471   4.364  14.065  0.00  0.00    +0.000 A 
ATOM     13  N   UNL     1       7.670   4.886  14.451  0.00  0.00    +0.000 N 
ATOM     14  N   UNL     1       7.561   5.895  15.338  0.00  0.00    +0.000 NA
ATOM     15  H   UNL     1       6.305   7.412  16.955  0.00  0.00    +0.000 HD
ATOM     16  H   UNL     1       8.597   4.608  14.153  0.00  0.00    +0.000 HD
BRANCH  12  17
ATOM     17  C   UNL     1       6.249   3.214  13.107  0.00  0.00    +0.000 C 
ATOM     18  C   UNL     1       5.273   3.411  11.963  0.00  0.00    +0.000 C 
ATOM     19  C   UNL     1       6.735   3.350  11.679  0.00  0.00    +0.000 C 
ENDBRANCH  12  17
ENDBRANCH   4   9
BRANCH   6  20
ATOM     20  C   UNL     1       1.867   8.257  18.977  0.00  0.00    +0.000 A 
ATOM     21  C   UNL     1       1.275   9.198  18.113  0.00  0.00    +0.000 A 
ATOM     22  C   UNL     1       0.458  10.220  18.601  0.00  0.00    +0.000 A 
ATOM     23  C   UNL     1       0.223  10.330  19.969  0.00  0.00    +0.000 A 
ATOM     24  C   UNL     1       0.801   9.413  20.850  0.00  0.00    +0.000 A 
ATOM     25  C   UNL     1       1.608   8.382  20.355  0.00  0.00    +0.000 A 
BRANCH  24  26
ATOM     26  C   UNL     1       0.572   9.529  22.260  0.00  0.00    +0.000 C 
ATOM     27  N   UNL     1       0.379   9.621  23.402  0.00  0.00    +0.000 NA
ENDBRANCH  24  26
ENDBRANCH   6  20
BRANCH   1  28
ATOM     28  C   UNL     1       1.334   3.428  18.804  0.00  0.00    +0.000 C 
BRANCH  28  29
ATOM     29  C   UNL     1       1.115   2.338  19.890  0.00  0.00    +0.000 C 
BRANCH  29  31
ATOM     30  C   UNL     1       3.233   2.229  21.082  0.00  0.00    +0.000 C 
ATOM     31  N   UNL     1       1.821   2.608  21.170  0.00  0.00    +0.000 NA
ATOM     32  C   UNL     1       1.717   4.036  21.493  0.00  0.00    +0.000 C 
ENDBRANCH  29  31
ENDBRANCH  28  29
ENDBRANCH   1  28
TORSDOF 7
ENDMDL
MODEL 6
REMARK VINA RESULT:      -7.6      1.588      4.878
REMARK  Name = 
REMARK  9 active torsions:
REMARK  status: ('A' for Active; 'I' for Inactive)
REMARK    1  A    between atoms: C_1  and  N_2
REMARK    2  A    between atoms: N_2  and  C_3
REMARK    3  A    between atoms: N_2  and  C_4
REMARK    4  A    between atoms: C_4  and  C_5
REMARK    5  A    between atoms: C_5  and  N_6
REMARK    6  A    between atoms: C_9  and  N_10
REMARK    7  A    between atoms: C_13  and  C_14
REMARK    8  A    between atoms: C_20  and  C_21
REMARK    9  A    between atoms: C_25  and  C_26
REMARK                            x       y       z     vdW  Elec       q    Type
REMARK                         _______ _______ _______ _____ _____    ______ ____
ROOT
ATOM      1  N   UNL     1       1.435   9.074  17.950  0.00  0.00    +0.000 N 
ATOM      2  C   UNL     1       2.383   8.031  18.021  0.00  0.00    +0.000 A 
ATOM      3  C   UNL     1       3.575   8.171  17.342  0.00  0.00    +0.000 A 
ATOM      4  C   UNL     1       4.490   7.145  17.456  0.00  0.00    +0.000 A 
ATOM      5  N   UNL     1       4.231   6.050  18.191  0.00  0.00    +0.000 NA
ATOM      6  C   UNL     1       3.037   5.975  18.786  0.00  0.00    +0.000 A 
ATOM      7  N   UNL     1       2.091   6.919  18.712  0.00  0.00    +0.000 NA
ATOM      8  H   UNL     1       1.935   9.964  17.958  0.00  0.00    +0.000 HD
ENDROOT
BRANCH   4   9
ATOM      9  N   UNL     1       5.717   7.245  16.766  0.00  0.00    +0.000 N 
ATOM     10  C   UNL     1       6.218   6.286  15.959  0.00  0.00    +0.000 A 
ATOM     11  C   UNL     1       5.421   5.489  15.103  0.00  0.00    +0.000 A 
ATOM     12  C   UNL     1       6.287   4.608  14.517  0.00  0.00    +0.000 A 
ATOM     13  N   UNL     1       7.525   4.947  14.980  0.00  0.00    +0.000 N 
ATOM     14  N   UNL     1       7.515   5.990  15.834  0.00  0.00    +0.000 NA
ATOM     15  H   UNL     1       6.407   7.739  17.318  0.00  0.00    +0.000 HD
ATOM     16  H   UNL     1       8.415   4.517  14.759  0.00  0.00    +0.000 HD
BRANCH  12  17
ATOM     17  C   UNL     1       5.953   3.475  13.571  0.00  0.00    +0.000 C 
ATOM     18  C   UNL     1       5.081   3.779  12.367  0.00  0.00    +0.000 C 
ATOM     19  C   UNL     1       6.532   3.499  12.171  0.00  0.00    +0.000 C 
ENDBRANCH  12  17
ENDBRANCH   4   9
BRANCH   6  20
ATOM     20  C   UNL     1       2.752   4.789  19.609  0.00  0.00    +0.000 A 
ATOM     21  C   UNL     1       1.458   4.538  20.104  0.00  0.00    +0.000 A 
ATOM     22  C   UNL     1       1.181   3.407  20.876  0.00  0.00    +0.000 A 
ATOM     23  C   UNL     1       2.199   2.506  21.178  0.00  0.00    +0.000 A 
ATOM     24  C   UNL     1       3.493   2.732  20.704  0.00  0.00    +0.000 A 
ATOM     25  C   UNL     1       3.762   3.860  19.919  0.00  0.00    +0.000 A 
BRANCH  24  26
ATOM     26  C   UNL     1       4.546   1.814  21.022  0.00  0.00    +0.000 C 
ATOM     27  N   UNL     1       5.403   1.070  21.274  0.00  0.00    +0.000 NA
ENDBRANCH  24  26
ENDBRANCH   6  20
BRANCH   1  28
ATOM     28  C   UNL     1       0.512   9.074  19.099  0.00  0.00    +0.000 C 
BRANCH  28  29
ATOM     29  C   UNL     1       1.038   9.985  20.244  0.00  0.00    +0.000 C 
BRANCH  29  31
ATOM     30  C   UNL     1      -0.454   8.533  21.503  0.00  0.00    +0.000 C 
ATOM     31  N   UNL     1       0.498   9.642  21.586  0.00  0.00    +0.000 NA
ATOM     32  C   UNL     1       1.604   9.272  22.478  0.00  0.00    +0.000 C 
ENDBRANCH  29  31
ENDBRANCH  28  29
ENDBRANCH   1  28
TORSDOF 7
ENDMDL
MODEL 7
REMARK VINA RESULT:      -7.5      1.611      4.770
REMARK  Name = 
REMARK  9 active torsions:
REMARK  status: ('A' for Active; 'I' for Inactive)
REMARK    1  A    between atoms: C_1  and  N_2
REMARK    2  A    between atoms: N_2  and  C_3
REMARK    3  A    between atoms: N_2  and  C_4
REMARK    4  A    between atoms: C_4  and  C_5
REMARK    5  A    between atoms: C_5  and  N_6
REMARK    6  A    between atoms: C_9  and  N_10
REMARK    7  A    between atoms: C_13  and  C_14
REMARK    8  A    between atoms: C_20  and  C_21
REMARK    9  A    between atoms: C_25  and  C_26
REMARK                            x       y       z     vdW  Elec       q    Type
REMARK                         _______ _______ _______ _____ _____    ______ ____
ROOT
ATOM      1  N   UNL     1       1.847   9.211  18.457  0.00  0.00    +0.000 N 
ATOM      2  C   UNL     1       2.598   8.058  18.141  0.00  0.00    +0.000 A 
ATOM      3  C   UNL     1       3.807   8.211  17.496  0.00  0.00    +0.000 A 
ATOM      4  C   UNL     1       4.526   7.065  17.227  0.00  0.00    +0.000 A 
ATOM      5  N   UNL     1       4.068   5.849  17.571  0.00  0.00    +0.000 NA
ATOM      6  C   UNL     1       2.870   5.785  18.158  0.00  0.00    +0.000 A 
ATOM      7  N   UNL     1       2.104   6.846  18.439  0.00  0.00    +0.000 NA
ATOM      8  H   UNL     1       2.494   9.949  18.737  0.00  0.00    +0.000 HD
ENDROOT
BRANCH   4   9
ATOM      9  N   UNL     1       5.764   7.178  16.557  0.00  0.00    +0.000 N 
ATOM     10  C   UNL     1       6.293   6.220  15.767  0.00  0.00    +0.000 A 
ATOM     11  C   UNL     1       5.523   5.404  14.904  0.00  0.00    +0.000 A 
ATOM     12  C   UNL     1       6.412   4.531  14.340  0.00  0.00    +0.000 A 
ATOM     13  N   UNL     1       7.636   4.893  14.822  0.00  0.00    +0.000 N 
ATOM     14  N   UNL     1       7.596   5.943  15.666  0.00  0.00    +0.000 NA
ATOM     15  H   UNL     1       6.437   7.687  17.116  0.00  0.00    +0.000 HD
ATOM     16  H   UNL     1       8.536   4.475  14.619  0.00  0.00    +0.000 HD
BRANCH  12  17
ATOM     17  C   UNL     1       6.112   3.386  13.399  0.00  0.00    +0.000 C 
ATOM     18  C   UNL     1       5.229   3.659  12.195  0.00  0.00    +0.000 C 
ATOM     19  C   UNL     1       6.687   3.422  11.998  0.00  0.00    +0.000 C 
ENDBRANCH  12  17
ENDBRANCH   4   9
BRANCH   6  20
ATOM     20  C   UNL     1       2.368   4.461  18.556  0.00  0.00    +0.000 A 
ATOM     21  C   UNL     1       2.189   3.434  17.609  0.00  0.00    +0.000 A 
ATOM     22  C   UNL     1       1.724   2.171  17.985  0.00  0.00    +0.000 A 
ATOM     23  C   UNL     1       1.417   1.912  19.318  0.00  0.00    +0.000 A 
ATOM     24  C   UNL     1       1.581   2.913  20.278  0.00  0.00    +0.000 A 
ATOM     25  C   UNL     1       2.061   4.173  19.899  0.00  0.00    +0.000 A 
BRANCH  24  26
ATOM     26  C   UNL     1       1.255   2.655  21.649  0.00  0.00    +0.000 C 
ATOM     27  N   UNL     1       0.998   2.445  22.763  0.00  0.00    +0.000 NA
ENDBRANCH  24  26
ENDBRANCH   6  20
BRANCH   1  28
ATOM     28  C   UNL     1       0.920   8.987  19.580  0.00  0.00    +0.000 C 
BRANCH  28  29
ATOM     29  C   UNL     1       0.369  10.332  20.133  0.00  0.00    +0.000 C 
BRANCH  29  31
ATOM     30  C   UNL     1      -0.415  11.231  22.253  0.00  0.00    +0.000 C 
ATOM     31  N   UNL     1       0.698  10.579  21.561  0.00  0.00    +0.000 NA
ATOM     32  C   UNL     1       1.004   9.303  22.219  0.00  0.00    +0.000 C 
ENDBRANCH  29  31
ENDBRANCH  28  29
ENDBRANCH   1  28
TORSDOF 7
ENDMDL
MODEL 8
REMARK VINA RESULT:      -7.4      3.371      6.763
REMARK  Name = 
REMARK  9 active torsions:
REMARK  status: ('A' for Active; 'I' for Inactive)
REMARK    1  A    between atoms: C_1  and  N_2
REMARK    2  A    between atoms: N_2  and  C_3
REMARK    3  A    between atoms: N_2  and  C_4
REMARK    4  A    between atoms: C_4  and  C_5
REMARK    5  A    between atoms: C_5  and  N_6
REMARK    6  A    between atoms: C_9  and  N_10
REMARK    7  A    between atoms: C_13  and  C_14
REMARK    8  A    between atoms: C_20  and  C_21
REMARK    9  A    between atoms: C_25  and  C_26
REMARK                            x       y       z     vdW  Elec       q    Type
REMARK                         _______ _______ _______ _____ _____    ______ ____
ROOT
ATOM      1  N   UNL     1       0.737   9.234  21.999  0.00  0.00    +0.000 N 
ATOM      2  C   UNL     1       0.681   9.282  20.589  0.00  0.00    +0.000 A 
ATOM      3  C   UNL     1       1.743   8.783  19.866  0.00  0.00    +0.000 A 
ATOM      4  C   UNL     1       1.643   8.822  18.491  0.00  0.00    +0.000 A 
ATOM      5  N   UNL     1       0.560   9.330  17.879  0.00  0.00    +0.000 NA
ATOM      6  C   UNL     1      -0.409   9.828  18.652  0.00  0.00    +0.000 A 
ATOM      7  N   UNL     1      -0.381   9.843  19.990  0.00  0.00    +0.000 NA
ATOM      8  H   UNL     1       1.185   8.359  22.273  0.00  0.00    +0.000 HD
ENDROOT
BRANCH   4   9
ATOM      9  N   UNL     1       2.715   8.332  17.714  0.00  0.00    +0.000 N 
ATOM     10  C   UNL     1       3.129   7.048  17.710  0.00  0.00    +0.000 A 
ATOM     11  C   UNL     1       2.251   5.942  17.795  0.00  0.00    +0.000 A 
ATOM     12  C   UNL     1       3.058   4.838  17.829  0.00  0.00    +0.000 A 
ATOM     13  N   UNL     1       4.331   5.311  17.701  0.00  0.00    +0.000 N 
ATOM     14  N   UNL     1       4.401   6.653  17.591  0.00  0.00    +0.000 NA
ATOM     15  H   UNL     1       3.456   9.018  17.641  0.00  0.00    +0.000 HD
ATOM     16  H   UNL     1       5.195   4.783  17.679  0.00  0.00    +0.000 HD
BRANCH  12  17
ATOM     17  C   UNL     1       2.641   3.393  17.997  0.00  0.00    +0.000 C 
ATOM     18  C   UNL     1       2.559   2.829  19.403  0.00  0.00    +0.000 C 
ATOM     19  C   UNL     1       1.305   3.089  18.642  0.00  0.00    +0.000 C 
ENDBRANCH  12  17
ENDBRANCH   4   9
BRANCH   6  20
ATOM     20  C   UNL     1      -1.607  10.369  17.992  0.00  0.00    +0.000 A 
ATOM     21  C   UNL     1      -2.486  11.235  18.669  0.00  0.00    +0.000 A 
ATOM     22  C   UNL     1      -3.619  11.760  18.041  0.00  0.00    +0.000 A 
ATOM     23  C   UNL     1      -3.902  11.419  16.721  0.00  0.00    +0.000 A 
ATOM     24  C   UNL     1      -3.050  10.558  16.025  0.00  0.00    +0.000 A 
ATOM     25  C   UNL     1      -1.909  10.046  16.655  0.00  0.00    +0.000 A 
BRANCH  24  26
ATOM     26  C   UNL     1      -3.343  10.195  14.671  0.00  0.00    +0.000 C 
ATOM     27  N   UNL     1      -3.583   9.908  13.571  0.00  0.00    +0.000 NA
ENDBRANCH  24  26
ENDBRANCH   6  20
BRANCH   1  28
ATOM     28  C   UNL     1      -0.601   9.258  22.616  0.00  0.00    +0.000 C 
BRANCH  28  29
ATOM     29  C   UNL     1      -0.862  10.605  23.345  0.00  0.00    +0.000 C 
BRANCH  29  31
ATOM     30  C   UNL     1      -2.763  12.118  23.218  0.00  0.00    +0.000 C 
ATOM     31  N   UNL     1      -1.581  11.610  22.519  0.00  0.00    +0.000 NA
ATOM     32  C   UNL     1      -0.678  12.725  22.210  0.00  0.00    +0.000 C 
ENDBRANCH  29  31
ENDBRANCH  28  29
ENDBRANCH   1  28
TORSDOF 7
ENDMDL
MODEL 9
REMARK VINA RESULT:      -7.2      1.766      4.837
REMARK  Name = 
REMARK  9 active torsions:
REMARK  status: ('A' for Active; 'I' for Inactive)
REMARK    1  A    between atoms: C_1  and  N_2
REMARK    2  A    between atoms: N_2  and  C_3
REMARK    3  A    between atoms: N_2  and  C_4
REMARK    4  A    between atoms: C_4  and  C_5
REMARK    5  A    between atoms: C_5  and  N_6
REMARK    6  A    between atoms: C_9  and  N_10
REMARK    7  A    between atoms: C_13  and  C_14
REMARK    8  A    between atoms: C_20  and  C_21
REMARK    9  A    between atoms: C_25  and  C_26
REMARK                            x       y       z     vdW  Elec       q    Type
REMARK                         _______ _______ _______ _____ _____    ______ ____
ROOT
ATOM      1  N   UNL     1       2.139   9.053  18.381  0.00  0.00    +0.000 N 
ATOM      2  C   UNL     1       2.843   7.889  18.002  0.00  0.00    +0.000 A 
ATOM      3  C   UNL     1       3.998   8.025  17.260  0.00  0.00    +0.000 A 
ATOM      4  C   UNL     1       4.674   6.870  16.930  0.00  0.00    +0.000 A 
ATOM      5  N   UNL     1       4.227   5.660  17.308  0.00  0.00    +0.000 NA
ATOM      6  C   UNL     1       3.080   5.613  17.992  0.00  0.00    +0.000 A 
ATOM      7  N   UNL     1       2.357   6.684  18.336  0.00  0.00    +0.000 NA
ATOM      8  H   UNL     1       2.819   9.780  18.608  0.00  0.00    +0.000 HD
ENDROOT
BRANCH   4   9
ATOM      9  N   UNL     1       5.854   6.965  16.160  0.00  0.00    +0.000 N 
ATOM     10  C   UNL     1       6.323   5.987  15.358  0.00  0.00    +0.000 A 
ATOM     11  C   UNL     1       5.490   5.145  14.583  0.00  0.00    +0.000 A 
ATOM     12  C   UNL     1       6.335   4.258  13.976  0.00  0.00    +0.000 A 
ATOM     13  N   UNL     1       7.592   4.636  14.348  0.00  0.00    +0.000 N 
ATOM     14  N   UNL     1       7.615   5.709  15.162  0.00  0.00    +0.000 NA
ATOM     15  H   UNL     1       6.567   7.492  16.650  0.00  0.00    +0.000 HD
ATOM     16  H   UNL     1       8.475   4.213  14.086  0.00  0.00    +0.000 HD
BRANCH  12  17
ATOM     17  C   UNL     1       5.965   3.085  13.094  0.00  0.00    +0.000 C 
ATOM     18  C   UNL     1       5.254   3.369  11.784  0.00  0.00    +0.000 C 
ATOM     19  C   UNL     1       6.674   2.919  11.766  0.00  0.00    +0.000 C 
ENDBRANCH  12  17
ENDBRANCH   4   9
BRANCH   6  20
ATOM     20  C   UNL     1       2.592   4.295  18.426  0.00  0.00    +0.000 A 
ATOM     21  C   UNL     1       2.534   3.207  17.534  0.00  0.00    +0.000 A 
ATOM     22  C   UNL     1       2.082   1.951  17.946  0.00  0.00    +0.000 A 
ATOM     23  C   UNL     1       1.667   1.759  19.261  0.00  0.00    +0.000 A 
ATOM     24  C   UNL     1       1.709   2.821  20.167  0.00  0.00    +0.000 A 
ATOM     25  C   UNL     1       2.177   4.074  19.753  0.00  0.00    +0.000 A 
BRANCH  24  26
ATOM     26  C   UNL     1       1.272   2.631  21.518  0.00  0.00    +0.000 C 
ATOM     27  N   UNL     1       0.921   2.483  22.616  0.00  0.00    +0.000 NA
ENDBRANCH  24  26
ENDBRANCH   6  20
BRANCH   1  28
ATOM     28  C   UNL     1       1.304   8.839  19.576  0.00  0.00    +0.000 C 
BRANCH  28  29
ATOM     29  C   UNL     1       0.472  10.108  19.917  0.00  0.00    +0.000 C 
BRANCH  29  31
ATOM     30  C   UNL     1      -1.137  10.967  18.308  0.00  0.00    +0.000 C 
ATOM     31  N   UNL     1       0.254  11.016  18.761  0.00  0.00    +0.000 NA
ATOM     32  C   UNL     1       0.594  12.390  19.149  0.00  0.00    +0.000 C 
ENDBRANCH  29  31
ENDBRANCH  28  29
ENDBRANCH   1  28
TORSDOF 7
ENDMDL
