MODEL 1
REMARK VINA RESULT:      -4.1      0.000      0.000
REMARK  Name = 
REMARK  7 active torsions:
REMARK  status: ('A' for Active; 'I' for Inactive)
REMARK    1  A    between atoms: C_1  and  C_2
REMARK    2  A    between atoms: C_2  and  O_3
REMARK    3  A    between atoms: O_3  and  C_4
REMARK    4  A    between atoms: C_4  and  C_5
REMARK    5  A    between atoms: C_5  and  O_6
REMARK    6  A    between atoms: O_6  and  C_7
REMARK    7  A    between atoms: C_7  and  C_8
REMARK                            x       y       z     vdW  Elec       q    Type
REMARK                         _______ _______ _______ _____ _____    ______ ____
ROOT
ATOM      1  C   UNL     1       7.615   4.569  17.374  0.00  0.00    +0.000 C 
ENDROOT
BRANCH   1   2
ATOM      2  C   UNL     1       7.073   5.459  18.490  0.00  0.00    +0.000 C 
BRANCH   2   3
ATOM      3  O   UNL     1       7.884   6.628  18.624  0.00  0.00    +0.000 OA
BRANCH   3   5
ATOM      4  C   UNL     1       8.177   8.914  17.954  0.00  0.00    +0.000 C 
ATOM      5  C   UNL     1       7.625   7.555  17.568  0.00  0.00    +0.000 C 
ENDBRANCH   3   5
ENDBRANCH   2   3
ENDBRANCH   1   2
BRANCH   1   6
ATOM      6  O   UNL     1       6.594   4.267  16.407  0.00  0.00    +0.000 OA
BRANCH   6   7
ATOM      7  C   UNL     1       6.866   4.657  15.133  0.00  0.00    +0.000 C 
ATOM      8  C   UNL     1       5.919   4.021  14.159  0.00  0.00    +0.000 C 
ATOM      9  O   UNL     1       7.769   5.414  14.801  0.00  0.00    +0.000 OA
ENDBRANCH   6   7
ENDBRANCH   1   6
TORSDOF 5
ENDMDL
MODEL 2
REMARK VINA RESULT:      -3.9      3.044      4.673
REMARK  Name = 
REMARK  7 active torsions:
REMARK  status: ('A' for Active; 'I' for Inactive)
REMARK    1  A    between atoms: C_1  and  C_2
REMARK    2  A    between atoms: C_2  and  O_3
REMARK    3  A    between atoms: O_3  and  C_4
REMARK    4  A    between atoms: C_4  and  C_5
REMARK    5  A    between atoms: C_5  and  O_6
REMARK    6  A    between atoms: O_6  and  C_7
REMARK    7  A    between atoms: C_7  and  C_8
REMARK                            x       y       z     vdW  Elec       q    Type
REMARK                         _______ _______ _______ _____ _____    ______ ____
ROOT
ATOM      1  C   UNL     1       5.314   5.332  18.810  0.00  0.00    +0.000 C 
ENDROOT
BRANCH   1   2
ATOM      2  C   UNL     1       4.166   4.681  18.043  0.00  0.00    +0.000 C 
BRANCH   2   3
ATOM      3  O   UNL     1       4.264   3.258  18.127  0.00  0.00    +0.000 OA
BRANCH   3   5
ATOM      4  C   UNL     1       1.953   3.706  17.663  0.00  0.00    +0.000 C 
ATOM      5  C   UNL     1       3.020   2.638  17.801  0.00  0.00    +0.000 C 
ENDBRANCH   3   5
ENDBRANCH   2   3
ENDBRANCH   1   2
BRANCH   1   6
ATOM      6  O   UNL     1       6.507   4.532  18.741  0.00  0.00    +0.000 OA
BRANCH   6   7
ATOM      7  C   UNL     1       7.447   4.963  17.858  0.00  0.00    +0.000 C 
ATOM      8  C   UNL     1       7.656   6.444  17.971  0.00  0.00    +0.000 C 
ATOM      9  O   UNL     1       8.045   4.256  17.058  0.00  0.00    +0.000 OA
ENDBRANCH   6   7
ENDBRANCH   1   6
TORSDOF 5
ENDMDL
MODEL 3
REMARK VINA RESULT:      -3.9      3.227      4.654
REMARK  Name = 
REMARK  7 active torsions:
REMARK  status: ('A' for Active; 'I' for Inactive)
REMARK    1  A    between atoms: C_1  and  C_2
REMARK    2  A    between atoms: C_2  and  O_3
REMARK    3  A    between atoms: O_3  and  C_4
REMARK    4  A    between atoms: C_4  and  C_5
REMARK    5  A    between atoms: C_5  and  O_6
REMARK    6  A    between atoms: O_6  and  C_7
REMARK    7  A    between atoms: C_7  and  C_8
REMARK                            x       y       z     vdW  Elec       q    Type
REMARK                         _______ _______ _______ _____ _____    ______ ____
ROOT
ATOM      1  C   UNL     1       5.369   5.142  19.140  0.00  0.00    +0.000 C 
ENDROOT
BRANCH   1   2
ATOM      2  C   UNL     1       4.257   4.944  18.113  0.00  0.00    +0.000 C 
BRANCH   2   3
ATOM      3  O   UNL     1       3.108   4.369  18.738  0.00  0.00    +0.000 OA
BRANCH   3   5
ATOM      4  C   UNL     1       1.560   4.847  20.509  0.00  0.00    +0.000 C 
ATOM      5  C   UNL     1       3.021   4.760  20.109  0.00  0.00    +0.000 C 
ENDBRANCH   3   5
ENDBRANCH   2   3
ENDBRANCH   1   2
BRANCH   1   6
ATOM      6  O   UNL     1       6.517   4.334  18.827  0.00  0.00    +0.000 OA
BRANCH   6   7
ATOM      7  C   UNL     1       7.444   4.925  18.026  0.00  0.00    +0.000 C 
ATOM      8  C   UNL     1       7.711   6.336  18.457  0.00  0.00    +0.000 C 
ATOM      9  O   UNL     1       7.989   4.398  17.065  0.00  0.00    +0.000 OA
ENDBRANCH   6   7
ENDBRANCH   1   6
TORSDOF 5
ENDMDL
MODEL 4
REMARK VINA RESULT:      -3.9      0.942      1.164
REMARK  Name = 
REMARK  7 active torsions:
REMARK  status: ('A' for Active; 'I' for Inactive)
REMARK    1  A    between atoms: C_1  and  C_2
REMARK    2  A    between atoms: C_2  and  O_3
REMARK    3  A    between atoms: O_3  and  C_4
REMARK    4  A    between atoms: C_4  and  C_5
REMARK    5  A    between atoms: C_5  and  O_6
REMARK    6  A    between atoms: O_6  and  C_7
REMARK    7  A    between atoms: C_7  and  C_8
REMARK                            x       y       z     vdW  Elec       q    Type
REMARK                         _______ _______ _______ _____ _____    ______ ____
ROOT
ATOM      1  C   UNL     1       6.749   5.392  17.502  0.00  0.00    +0.000 C 
ENDROOT
BRANCH   1   2
ATOM      2  C   UNL     1       6.688   6.913  17.387  0.00  0.00    +0.000 C 
BRANCH   2   3
ATOM      3  O   UNL     1       7.886   7.493  17.908  0.00  0.00    +0.000 OA
BRANCH   3   5
ATOM      4  C   UNL     1       8.827   9.556  18.692  0.00  0.00    +0.000 C 
ATOM      5  C   UNL     1       7.921   8.900  17.669  0.00  0.00    +0.000 C 
ENDBRANCH   3   5
ENDBRANCH   2   3
ENDBRANCH   1   2
BRANCH   1   6
ATOM      6  O   UNL     1       7.659   4.832  16.539  0.00  0.00    +0.000 OA
BRANCH   6   7
ATOM      7  C   UNL     1       7.227   4.851  15.250  0.00  0.00    +0.000 C 
ATOM      8  C   UNL     1       6.012   3.988  15.075  0.00  0.00    +0.000 C 
ATOM      9  O   UNL     1       7.753   5.470  14.335  0.00  0.00    +0.000 OA
ENDBRANCH   6   7
ENDBRANCH   1   6
TORSDOF 5
ENDMDL
MODEL 5
REMARK VINA RESULT:      -3.8      1.761      2.821
REMARK  Name = 
REMARK  7 active torsions:
REMARK  status: ('A' for Active; 'I' for Inactive)
REMARK    1  A    between atoms: C_1  and  C_2
REMARK    2  A    between atoms: C_2  and  O_3
REMARK    3  A    between atoms: O_3  and  C_4
REMARK    4  A    between atoms: C_4  and  C_5
REMARK    5  A    between atoms: C_5  and  O_6
REMARK    6  A    between atoms: O_6  and  C_7
REMARK    7  A    between atoms: C_7  and  C_8
REMARK                            x       y       z     vdW  Elec       q    Type
REMARK                         _______ _______ _______ _____ _____    ______ ____
ROOT
ATOM      1  C   UNL     1       7.343   6.536  17.392  0.00  0.00    +0.000 C 
ENDROOT
BRANCH   1   2
ATOM      2  C   UNL     1       7.676   5.976  18.772  0.00  0.00    +0.000 C 
BRANCH   2   3
ATOM      3  O   UNL     1       6.934   4.778  19.008  0.00  0.00    +0.000 OA
BRANCH   3   5
ATOM      4  C   UNL     1       4.732   3.824  19.002  0.00  0.00    +0.000 C 
ATOM      5  C   UNL     1       5.559   5.068  19.264  0.00  0.00    +0.000 C 
ENDBRANCH   3   5
ENDBRANCH   2   3
ENDBRANCH   1   2
BRANCH   1   6
ATOM      6  O   UNL     1       7.431   5.518  16.381  0.00  0.00    +0.000 OA
BRANCH   6   7
ATOM      7  C   UNL     1       6.314   5.349  15.625  0.00  0.00    +0.000 C 
ATOM      8  C   UNL     1       6.053   3.896  15.362  0.00  0.00    +0.000 C 
ATOM      9  O   UNL     1       5.608   6.251  15.192  0.00  0.00    +0.000 OA
ENDBRANCH   6   7
ENDBRANCH   1   6
TORSDOF 5
ENDMDL
MODEL 6
REMARK VINA RESULT:      -3.8      1.986      2.848
REMARK  Name = 
REMARK  7 active torsions:
REMARK  status: ('A' for Active; 'I' for Inactive)
REMARK    1  A    between atoms: C_1  and  C_2
REMARK    2  A    between atoms: C_2  and  O_3
REMARK    3  A    between atoms: O_3  and  C_4
REMARK    4  A    between atoms: C_4  and  C_5
REMARK    5  A    between atoms: C_5  and  O_6
REMARK    6  A    between atoms: O_6  and  C_7
REMARK    7  A    between atoms: C_7  and  C_8
REMARK                            x       y       z     vdW  Elec       q    Type
REMARK                         _______ _______ _______ _____ _____    ______ ____
ROOT
ATOM      1  C   UNL     1       6.851   4.485  16.606  0.00  0.00    +0.000 C 
ENDROOT
BRANCH   1   2
ATOM      2  C   UNL     1       7.508   4.926  17.912  0.00  0.00    +0.000 C 
BRANCH   2   3
ATOM      3  O   UNL     1       6.735   4.474  19.026  0.00  0.00    +0.000 OA
BRANCH   3   5
ATOM      4  C   UNL     1       4.596   3.435  19.344  0.00  0.00    +0.000 C 
ATOM      5  C   UNL     1       5.338   4.631  18.778  0.00  0.00    +0.000 C 
ENDBRANCH   3   5
ENDBRANCH   2   3
ENDBRANCH   1   2
BRANCH   1   6
ATOM      6  O   UNL     1       6.919   5.523  15.612  0.00  0.00    +0.000 OA
BRANCH   6   7
ATOM      7  C   UNL     1       7.145   5.098  14.341  0.00  0.00    +0.000 C 
ATOM      8  C   UNL     1       6.215   3.982  13.970  0.00  0.00    +0.000 C 
ATOM      9  O   UNL     1       8.000   5.543  13.587  0.00  0.00    +0.000 OA
ENDBRANCH   6   7
ENDBRANCH   1   6
TORSDOF 5
ENDMDL
MODEL 7
REMARK VINA RESULT:      -3.8      2.829      3.757
REMARK  Name = 
REMARK  7 active torsions:
REMARK  status: ('A' for Active; 'I' for Inactive)
REMARK    1  A    between atoms: C_1  and  C_2
REMARK    2  A    between atoms: C_2  and  O_3
REMARK    3  A    between atoms: O_3  and  C_4
REMARK    4  A    between atoms: C_4  and  C_5
REMARK    5  A    between atoms: C_5  and  O_6
REMARK    6  A    between atoms: O_6  and  C_7
REMARK    7  A    between atoms: C_7  and  C_8
REMARK                            x       y       z     vdW  Elec       q    Type
REMARK                         _______ _______ _______ _____ _____    ______ ____
ROOT
ATOM      1  C   UNL     1       4.994   6.064  16.358  0.00  0.00    +0.000 C 
ENDROOT
BRANCH   1   2
ATOM      2  C   UNL     1       5.041   6.085  17.884  0.00  0.00    +0.000 C 
BRANCH   2   3
ATOM      3  O   UNL     1       4.104   5.148  18.417  0.00  0.00    +0.000 OA
BRANCH   3   5
ATOM      4  C   UNL     1       2.017   4.175  17.741  0.00  0.00    +0.000 C 
ATOM      5  C   UNL     1       3.470   4.407  17.374  0.00  0.00    +0.000 C 
ENDBRANCH   3   5
ENDBRANCH   2   3
ENDBRANCH   1   2
BRANCH   1   6
ATOM      6  O   UNL     1       6.318   6.042  15.796  0.00  0.00    +0.000 OA
BRANCH   6   7
ATOM      7  C   UNL     1       6.902   4.816  15.730  0.00  0.00    +0.000 C 
ATOM      8  C   UNL     1       6.168   3.918  14.778  0.00  0.00    +0.000 C 
ATOM      9  O   UNL     1       7.887   4.465  16.366  0.00  0.00    +0.000 OA
ENDBRANCH   6   7
ENDBRANCH   1   6
TORSDOF 5
ENDMDL
MODEL 8
REMARK VINA RESULT:      -3.8      5.708      7.163
REMARK  Name = 
REMARK  7 active torsions:
REMARK  status: ('A' for Active; 'I' for Inactive)
REMARK    1  A    between atoms: C_1  and  C_2
REMARK    2  A    between atoms: C_2  and  O_3
REMARK    3  A    between atoms: O_3  and  C_4
REMARK    4  A    between atoms: C_4  and  C_5
REMARK    5  A    between atoms: C_5  and  O_6
REMARK    6  A    between atoms: O_6  and  C_7
REMARK    7  A    between atoms: C_7  and  C_8
REMARK                            x       y       z     vdW  Elec       q    Type
REMARK                         _______ _______ _______ _____ _____    ______ ____
ROOT
ATOM      1  C   UNL     1       1.452   3.148  18.746  0.00  0.00    +0.000 C 
ENDROOT
BRANCH   1   2
ATOM      2  C   UNL     1       2.322   1.906  18.564  0.00  0.00    +0.000 C 
BRANCH   2   3
ATOM      3  O   UNL     1       3.433   2.206  17.716  0.00  0.00    +0.000 OA
BRANCH   3   5
ATOM      4  C   UNL     1       4.503   4.100  16.704  0.00  0.00    +0.000 C 
ATOM      5  C   UNL     1       3.947   3.511  17.986  0.00  0.00    +0.000 C 
ENDBRANCH   3   5
ENDBRANCH   2   3
ENDBRANCH   1   2
BRANCH   1   6
ATOM      6  O   UNL     1       0.723   3.096  19.984  0.00  0.00    +0.000 OA
BRANCH   6   7
ATOM      7  C   UNL     1       1.459   3.329  21.104  0.00  0.00    +0.000 C 
ATOM      8  C   UNL     1       2.147   4.660  21.031  0.00  0.00    +0.000 C 
ATOM      9  O   UNL     1       1.571   2.562  22.050  0.00  0.00    +0.000 OA
ENDBRANCH   6   7
ENDBRANCH   1   6
TORSDOF 5
ENDMDL
MODEL 9
REMARK VINA RESULT:      -3.7      5.510      6.801
REMARK  Name = 
REMARK  7 active torsions:
REMARK  status: ('A' for Active; 'I' for Inactive)
REMARK    1  A    between atoms: C_1  and  C_2
REMARK    2  A    between atoms: C_2  and  O_3
REMARK    3  A    between atoms: O_3  and  C_4
REMARK    4  A    between atoms: C_4  and  C_5
REMARK    5  A    between atoms: C_5  and  O_6
REMARK    6  A    between atoms: O_6  and  C_7
REMARK    7  A    between atoms: C_7  and  C_8
REMARK                            x       y       z     vdW  Elec       q    Type
REMARK                         _______ _______ _______ _____ _____    ______ ____
ROOT
ATOM      1  C   UNL     1       1.731   2.177  18.961  0.00  0.00    +0.000 C 
ENDROOT
BRANCH   1   2
ATOM      2  C   UNL     1       2.546   2.263  17.672  0.00  0.00    +0.000 C 
BRANCH   2   3
ATOM      3  O   UNL     1       2.653   3.624  17.250  0.00  0.00    +0.000 OA
BRANCH   3   5
ATOM      4  C   UNL     1       4.094   5.542  17.323  0.00  0.00    +0.000 C 
ATOM      5  C   UNL     1       4.019   4.034  17.178  0.00  0.00    +0.000 C 
ENDBRANCH   3   5
ENDBRANCH   2   3
ENDBRANCH   1   2
BRANCH   1   6
ATOM      6  O   UNL     1       2.551   2.434  20.114  0.00  0.00    +0.000 OA
BRANCH   6   7
ATOM      7  C   UNL     1       1.985   3.222  21.067  0.00  0.00    +0.000 C 
ATOM      8  C   UNL     1       1.079   4.246  20.453  0.00  0.00    +0.000 C 
ATOM      9  O   UNL     1       2.188   3.134  22.271  0.00  0.00    +0.000 OA
ENDBRANCH   6   7
ENDBRANCH   1   6
TORSDOF 5
ENDMDL
