MODEL 1
REMARK VINA RESULT:      -7.0      0.000      0.000
REMARK  Name = 
REMARK  7 active torsions:
REMARK  status: ('A' for Active; 'I' for Inactive)
REMARK    1  A    between atoms: C_1  and  C_2
REMARK    2  A    between atoms: C_4  and  C_5
REMARK    3  A    between atoms: C_5  and  N_6
REMARK    4  A    between atoms: N_6  and  S_7
REMARK    5  A    between atoms: S_7  and  C_10
REMARK    6  A    between atoms: C_13  and  C_14
REMARK    7  A    between atoms: C_18  and  C_19
REMARK                            x       y       z     vdW  Elec       q    Type
REMARK                         _______ _______ _______ _____ _____    ______ ____
ROOT
ATOM      1  S   UNL     1       2.302   4.330  20.124  0.00  0.00    +0.000 S 
ATOM      2  O   UNL     1       2.740   3.505  21.227  0.00  0.00    +0.000 OA
ATOM      3  O   UNL     1       1.074   4.055  19.412  0.00  0.00    +0.000 OA
ENDROOT
BRANCH   1   4
ATOM      4  C   UNL     1       3.628   4.394  18.936  0.00  0.00    +0.000 A 
ATOM      5  C   UNL     1       3.377   4.113  17.588  0.00  0.00    +0.000 A 
ATOM      6  C   UNL     1       4.412   4.234  16.653  0.00  0.00    +0.000 A 
ATOM      7  C   UNL     1       5.690   4.640  17.056  0.00  0.00    +0.000 A 
ATOM      8  C   UNL     1       5.925   4.940  18.405  0.00  0.00    +0.000 A 
ATOM      9  C   UNL     1       4.894   4.827  19.343  0.00  0.00    +0.000 A 
BRANCH   7  10
ATOM     10  C   UNL     1       6.750   4.757  16.100  0.00  0.00    +0.000 C 
ATOM     11  N   UNL     1       7.607   4.845  15.325  0.00  0.00    +0.000 NA
ENDBRANCH   7  10
ENDBRANCH   1   4
BRANCH   1  12
ATOM     12  N   UNL     1       2.237   5.902  20.711  0.00  0.00    +0.000 NA
ATOM     13  H   UNL     1       1.555   6.000  21.463  0.00  0.00    +0.000 HD
BRANCH  12  14
ATOM     14  C   UNL     1       2.277   6.973  19.719  0.00  0.00    +0.000 C 
BRANCH  14  18
ATOM     15  C   UNL     1      -0.375   9.840  23.074  0.00  0.00    +0.000 C 
ATOM     16  C   UNL     1       0.323   9.420  21.825  0.00  0.00    +0.000 A 
ATOM     17  C   UNL     1       1.050   8.274  21.589  0.00  0.00    +0.000 A 
ATOM     18  C   UNL     1       1.538   8.176  20.237  0.00  0.00    +0.000 A 
ATOM     19  C   UNL     1       1.172   9.299  19.508  0.00  0.00    +0.000 A 
ATOM     20  C   UNL     1       1.448   9.636  18.078  0.00  0.00    +0.000 C 
ATOM     21  S   UNL     1       0.262  10.412  20.441  0.00  0.00    +0.000 S 
ENDBRANCH  14  18
ENDBRANCH  12  14
ENDBRANCH   1  12
TORSDOF 5
ENDMDL
MODEL 2
REMARK VINA RESULT:      -6.9      0.142      1.088
REMARK  Name = 
REMARK  7 active torsions:
REMARK  status: ('A' for Active; 'I' for Inactive)
REMARK    1  A    between atoms: C_1  and  C_2
REMARK    2  A    between atoms: C_4  and  C_5
REMARK    3  A    between atoms: C_5  and  N_6
REMARK    4  A    between atoms: N_6  and  S_7
REMARK    5  A    between atoms: S_7  and  C_10
REMARK    6  A    between atoms: C_13  and  C_14
REMARK    7  A    between atoms: C_18  and  C_19
REMARK                            x       y       z     vdW  Elec       q    Type
REMARK                         _______ _______ _______ _____ _____    ______ ____
ROOT
ATOM      1  S   UNL     1       2.267   4.426  20.105  0.00  0.00    +0.000 S 
ATOM      2  O   UNL     1       2.736   3.584  21.182  0.00  0.00    +0.000 OA
ATOM      3  O   UNL     1       1.059   4.119  19.373  0.00  0.00    +0.000 OA
ENDROOT
BRANCH   1   4
ATOM      4  C   UNL     1       3.597   4.595  18.932  0.00  0.00    +0.000 A 
ATOM      5  C   UNL     1       4.906   4.803  19.381  0.00  0.00    +0.000 A 
ATOM      6  C   UNL     1       5.953   4.864  18.454  0.00  0.00    +0.000 A 
ATOM      7  C   UNL     1       5.700   4.713  17.085  0.00  0.00    +0.000 A 
ATOM      8  C   UNL     1       4.387   4.484  16.647  0.00  0.00    +0.000 A 
ATOM      9  C   UNL     1       3.338   4.416  17.570  0.00  0.00    +0.000 A 
BRANCH   7  10
ATOM     10  C   UNL     1       6.769   4.784  16.136  0.00  0.00    +0.000 C 
ATOM     11  N   UNL     1       7.641   4.840  15.372  0.00  0.00    +0.000 NA
ENDBRANCH   7  10
ENDBRANCH   1   4
BRANCH   1  12
ATOM     12  N   UNL     1       2.124   5.972  20.746  0.00  0.00    +0.000 NA
ATOM     13  H   UNL     1       1.344   6.042  21.400  0.00  0.00    +0.000 HD
BRANCH  12  14
ATOM     14  C   UNL     1       2.304   7.085  19.818  0.00  0.00    +0.000 C 
BRANCH  14  18
ATOM     15  C   UNL     1      -0.490   9.960  23.048  0.00  0.00    +0.000 C 
ATOM     16  C   UNL     1       0.232   9.523  21.818  0.00  0.00    +0.000 A 
ATOM     17  C   UNL     1       1.011   8.402  21.631  0.00  0.00    +0.000 A 
ATOM     18  C   UNL     1       1.509   8.272  20.286  0.00  0.00    +0.000 A 
ATOM     19  C   UNL     1       1.097   9.348  19.511  0.00  0.00    +0.000 A 
ATOM     20  C   UNL     1       1.364   9.640  18.069  0.00  0.00    +0.000 C 
ATOM     21  S   UNL     1       0.133  10.455  20.396  0.00  0.00    +0.000 S 
ENDBRANCH  14  18
ENDBRANCH  12  14
ENDBRANCH   1  12
TORSDOF 5
ENDMDL
MODEL 3
REMARK VINA RESULT:      -6.8      2.493      6.925
REMARK  Name = 
REMARK  7 active torsions:
REMARK  status: ('A' for Active; 'I' for Inactive)
REMARK    1  A    between atoms: C_1  and  C_2
REMARK    2  A    between atoms: C_4  and  C_5
REMARK    3  A    between atoms: C_5  and  N_6
REMARK    4  A    between atoms: N_6  and  S_7
REMARK    5  A    between atoms: S_7  and  C_10
REMARK    6  A    between atoms: C_13  and  C_14
REMARK    7  A    between atoms: C_18  and  C_19
REMARK                            x       y       z     vdW  Elec       q    Type
REMARK                         _______ _______ _______ _____ _____    ______ ____
ROOT
ATOM      1  S   UNL     1       2.533   5.435  19.681  0.00  0.00    +0.000 S 
ATOM      2  O   UNL     1       2.028   4.699  18.544  0.00  0.00    +0.000 OA
ATOM      3  O   UNL     1       2.183   5.075  21.036  0.00  0.00    +0.000 OA
ENDROOT
BRANCH   1   4
ATOM      4  C   UNL     1       2.120   7.151  19.440  0.00  0.00    +0.000 A 
ATOM      5  C   UNL     1       2.312   7.751  18.190  0.00  0.00    +0.000 A 
ATOM      6  C   UNL     1       1.919   9.080  17.993  0.00  0.00    +0.000 A 
ATOM      7  C   UNL     1       1.331   9.809  19.035  0.00  0.00    +0.000 A 
ATOM      8  C   UNL     1       1.123   9.192  20.277  0.00  0.00    +0.000 A 
ATOM      9  C   UNL     1       1.508   7.862  20.477  0.00  0.00    +0.000 A 
BRANCH   7  10
ATOM     10  C   UNL     1       0.935  11.170  18.836  0.00  0.00    +0.000 C 
ATOM     11  N   UNL     1       0.612  12.273  18.681  0.00  0.00    +0.000 NA
ENDBRANCH   7  10
ENDBRANCH   1   4
BRANCH   1  12
ATOM     12  N   UNL     1       4.207   5.422  19.541  0.00  0.00    +0.000 NA
ATOM     13  H   UNL     1       4.563   6.292  19.146  0.00  0.00    +0.000 HD
BRANCH  12  14
ATOM     14  C   UNL     1       4.814   4.185  19.056  0.00  0.00    +0.000 C 
BRANCH  14  18
ATOM     15  C   UNL     1       5.588   4.003  13.970  0.00  0.00    +0.000 C 
ATOM     16  C   UNL     1       5.797   4.304  15.415  0.00  0.00    +0.000 A 
ATOM     17  C   UNL     1       4.952   4.062  16.475  0.00  0.00    +0.000 A 
ATOM     18  C   UNL     1       5.511   4.438  17.748  0.00  0.00    +0.000 A 
ATOM     19  C   UNL     1       6.773   4.992  17.578  0.00  0.00    +0.000 A 
ATOM     20  C   UNL     1       7.727   5.518  18.601  0.00  0.00    +0.000 C 
ATOM     21  S   UNL     1       7.248   5.033  15.932  0.00  0.00    +0.000 S 
ENDBRANCH  14  18
ENDBRANCH  12  14
ENDBRANCH   1  12
TORSDOF 5
ENDMDL
MODEL 4
REMARK VINA RESULT:      -6.7      1.241      1.403
REMARK  Name = 
REMARK  7 active torsions:
REMARK  status: ('A' for Active; 'I' for Inactive)
REMARK    1  A    between atoms: C_1  and  C_2
REMARK    2  A    between atoms: C_4  and  C_5
REMARK    3  A    between atoms: C_5  and  N_6
REMARK    4  A    between atoms: N_6  and  S_7
REMARK    5  A    between atoms: S_7  and  C_10
REMARK    6  A    between atoms: C_13  and  C_14
REMARK    7  A    between atoms: C_18  and  C_19
REMARK                            x       y       z     vdW  Elec       q    Type
REMARK                         _______ _______ _______ _____ _____    ______ ____
ROOT
ATOM      1  S   UNL     1       2.602   3.333  19.500  0.00  0.00    +0.000 S 
ATOM      2  O   UNL     1       3.235   3.037  20.765  0.00  0.00    +0.000 OA
ATOM      3  O   UNL     1       1.701   2.397  18.865  0.00  0.00    +0.000 OA
ENDROOT
BRANCH   1   4
ATOM      4  C   UNL     1       3.886   3.741  18.334  0.00  0.00    +0.000 A 
ATOM      5  C   UNL     1       3.592   3.832  16.969  0.00  0.00    +0.000 A 
ATOM      6  C   UNL     1       4.592   4.222  16.071  0.00  0.00    +0.000 A 
ATOM      7  C   UNL     1       5.880   4.526  16.530  0.00  0.00    +0.000 A 
ATOM      8  C   UNL     1       6.158   4.453  17.903  0.00  0.00    +0.000 A 
ATOM      9  C   UNL     1       5.161   4.070  18.805  0.00  0.00    +0.000 A 
BRANCH   7  10
ATOM     10  C   UNL     1       6.905   4.918  15.611  0.00  0.00    +0.000 C 
ATOM     11  N   UNL     1       7.732   5.233  14.861  0.00  0.00    +0.000 NA
ENDBRANCH   7  10
ENDBRANCH   1   4
BRANCH   1  12
ATOM     12  N   UNL     1       1.796   4.791  19.708  0.00  0.00    +0.000 NA
ATOM     13  H   UNL     1       1.381   5.125  18.838  0.00  0.00    +0.000 HD
BRANCH  12  14
ATOM     14  C   UNL     1       2.455   5.789  20.546  0.00  0.00    +0.000 C 
BRANCH  14  18
ATOM     15  C   UNL     1      -0.141  10.216  20.959  0.00  0.00    +0.000 C 
ATOM     16  C   UNL     1       0.762   9.159  20.419  0.00  0.00    +0.000 A 
ATOM     17  C   UNL     1       1.143   7.972  21.005  0.00  0.00    +0.000 A 
ATOM     18  C   UNL     1       1.988   7.166  20.162  0.00  0.00    +0.000 A 
ATOM     19  C   UNL     1       2.238   7.817  18.961  0.00  0.00    +0.000 A 
ATOM     20  C   UNL     1       3.050   7.373  17.788  0.00  0.00    +0.000 C 
ATOM     21  S   UNL     1       1.457   9.341  18.874  0.00  0.00    +0.000 S 
ENDBRANCH  14  18
ENDBRANCH  12  14
ENDBRANCH   1  12
TORSDOF 5
ENDMDL
MODEL 5
REMARK VINA RESULT:      -6.6      2.445      6.898
REMARK  Name = 
REMARK  7 active torsions:
REMARK  status: ('A' for Active; 'I' for Inactive)
REMARK    1  A    between atoms: C_1  and  C_2
REMARK    2  A    between atoms: C_4  and  C_5
REMARK    3  A    between atoms: C_5  and  N_6
REMARK    4  A    between atoms: N_6  and  S_7
REMARK    5  A    between atoms: S_7  and  C_10
REMARK    6  A    between atoms: C_13  and  C_14
REMARK    7  A    between atoms: C_18  and  C_19
REMARK                            x       y       z     vdW  Elec       q    Type
REMARK                         _______ _______ _______ _____ _____    ______ ____
ROOT
ATOM      1  S   UNL     1       2.568   5.265  19.820  0.00  0.00    +0.000 S 
ATOM      2  O   UNL     1       2.042   4.455  18.745  0.00  0.00    +0.000 OA
ATOM      3  O   UNL     1       2.305   4.950  21.206  0.00  0.00    +0.000 OA
ENDROOT
BRANCH   1   4
ATOM      4  C   UNL     1       2.057   6.947  19.528  0.00  0.00    +0.000 A 
ATOM      5  C   UNL     1       1.487   7.696  20.563  0.00  0.00    +0.000 A 
ATOM      6  C   UNL     1       1.153   9.038  20.343  0.00  0.00    +0.000 A 
ATOM      7  C   UNL     1       1.393   9.634  19.098  0.00  0.00    +0.000 A 
ATOM      8  C   UNL     1       1.985   8.880  18.074  0.00  0.00    +0.000 A 
ATOM      9  C   UNL     1       2.325   7.542  18.291  0.00  0.00    +0.000 A 
BRANCH   7  10
ATOM     10  C   UNL     1       1.045  11.004  18.871  0.00  0.00    +0.000 C 
ATOM     11  N   UNL     1       0.767  12.114  18.680  0.00  0.00    +0.000 NA
ENDBRANCH   7  10
ENDBRANCH   1   4
BRANCH   1  12
ATOM     12  N   UNL     1       4.230   5.325  19.592  0.00  0.00    +0.000 NA
ATOM     13  H   UNL     1       4.527   6.209  19.179  0.00  0.00    +0.000 HD
BRANCH  12  14
ATOM     14  C   UNL     1       4.864   4.115  19.074  0.00  0.00    +0.000 C 
BRANCH  14  18
ATOM     15  C   UNL     1       5.590   3.984  13.979  0.00  0.00    +0.000 C 
ATOM     16  C   UNL     1       5.797   4.297  15.422  0.00  0.00    +0.000 A 
ATOM     17  C   UNL     1       4.980   4.002  16.492  0.00  0.00    +0.000 A 
ATOM     18  C   UNL     1       5.530   4.411  17.759  0.00  0.00    +0.000 A 
ATOM     19  C   UNL     1       6.754   5.040  17.575  0.00  0.00    +0.000 A 
ATOM     20  C   UNL     1       7.686   5.622  18.589  0.00  0.00    +0.000 C 
ATOM     21  S   UNL     1       7.207   5.111  15.924  0.00  0.00    +0.000 S 
ENDBRANCH  14  18
ENDBRANCH  12  14
ENDBRANCH   1  12
TORSDOF 5
ENDMDL
MODEL 6
REMARK VINA RESULT:      -6.6      1.982      2.630
REMARK  Name = 
REMARK  7 active torsions:
REMARK  status: ('A' for Active; 'I' for Inactive)
REMARK    1  A    between atoms: C_1  and  C_2
REMARK    2  A    between atoms: C_4  and  C_5
REMARK    3  A    between atoms: C_5  and  N_6
REMARK    4  A    between atoms: N_6  and  S_7
REMARK    5  A    between atoms: S_7  and  C_10
REMARK    6  A    between atoms: C_13  and  C_14
REMARK    7  A    between atoms: C_18  and  C_19
REMARK                            x       y       z     vdW  Elec       q    Type
REMARK                         _______ _______ _______ _____ _____    ______ ____
ROOT
ATOM      1  S   UNL     1       5.277   4.785  19.127  0.00  0.00    +0.000 S 
ATOM      2  O   UNL     1       6.501   5.173  19.790  0.00  0.00    +0.000 OA
ATOM      3  O   UNL     1       4.518   3.629  19.550  0.00  0.00    +0.000 OA
ENDROOT
BRANCH   1   4
ATOM      4  C   UNL     1       5.635   4.607  17.391  0.00  0.00    +0.000 A 
ATOM      5  C   UNL     1       6.939   4.797  16.921  0.00  0.00    +0.000 A 
ATOM      6  C   UNL     1       7.223   4.586  15.566  0.00  0.00    +0.000 A 
ATOM      7  C   UNL     1       6.213   4.182  14.683  0.00  0.00    +0.000 A 
ATOM      8  C   UNL     1       4.914   3.973  15.169  0.00  0.00    +0.000 A 
ATOM      9  C   UNL     1       4.627   4.176  16.523  0.00  0.00    +0.000 A 
BRANCH   7  10
ATOM     10  C   UNL     1       6.501   3.974  13.297  0.00  0.00    +0.000 C 
ATOM     11  N   UNL     1       6.728   3.806  12.172  0.00  0.00    +0.000 NA
ENDBRANCH   7  10
ENDBRANCH   1   4
BRANCH   1  12
ATOM     12  N   UNL     1       4.272   6.130  19.175  0.00  0.00    +0.000 NA
ATOM     13  H   UNL     1       4.678   6.889  19.721  0.00  0.00    +0.000 HD
BRANCH  12  14
ATOM     14  C   UNL     1       2.846   5.875  19.363  0.00  0.00    +0.000 C 
BRANCH  14  18
ATOM     15  C   UNL     1       0.035   9.056  22.276  0.00  0.00    +0.000 C 
ATOM     16  C   UNL     1       0.848   8.540  21.138  0.00  0.00    +0.000 A 
ATOM     17  C   UNL     1       1.503   7.332  21.026  0.00  0.00    +0.000 A 
ATOM     18  C   UNL     1       2.148   7.149  19.752  0.00  0.00    +0.000 A 
ATOM     19  C   UNL     1       1.972   8.271  18.954  0.00  0.00    +0.000 A 
ATOM     20  C   UNL     1       2.453   8.535  17.564  0.00  0.00    +0.000 C 
ATOM     21  S   UNL     1       1.046   9.484  19.733  0.00  0.00    +0.000 S 
ENDBRANCH  14  18
ENDBRANCH  12  14
ENDBRANCH   1  12
TORSDOF 5
ENDMDL
MODEL 7
REMARK VINA RESULT:      -6.6      2.890      6.734
REMARK  Name = 
REMARK  7 active torsions:
REMARK  status: ('A' for Active; 'I' for Inactive)
REMARK    1  A    between atoms: C_1  and  C_2
REMARK    2  A    between atoms: C_4  and  C_5
REMARK    3  A    between atoms: C_5  and  N_6
REMARK    4  A    between atoms: N_6  and  S_7
REMARK    5  A    between atoms: S_7  and  C_10
REMARK    6  A    between atoms: C_13  and  C_14
REMARK    7  A    between atoms: C_18  and  C_19
REMARK                            x       y       z     vdW  Elec       q    Type
REMARK                         _______ _______ _______ _____ _____    ______ ____
ROOT
ATOM      1  S   UNL     1       2.494   2.786  18.313  0.00  0.00    +0.000 S 
ATOM      2  O   UNL     1       2.233   2.882  16.895  0.00  0.00    +0.000 OA
ATOM      3  O   UNL     1       1.866   1.774  19.133  0.00  0.00    +0.000 OA
ENDROOT
BRANCH   1   4
ATOM      4  C   UNL     1       2.147   4.377  19.035  0.00  0.00    +0.000 A 
ATOM      5  C   UNL     1       1.792   4.473  20.385  0.00  0.00    +0.000 A 
ATOM      6  C   UNL     1       1.589   5.734  20.959  0.00  0.00    +0.000 A 
ATOM      7  C   UNL     1       1.746   6.896  20.194  0.00  0.00    +0.000 A 
ATOM      8  C   UNL     1       2.123   6.790  18.847  0.00  0.00    +0.000 A 
ATOM      9  C   UNL     1       2.332   5.534  18.270  0.00  0.00    +0.000 A 
BRANCH   7  10
ATOM     10  C   UNL     1       1.531   8.185  20.779  0.00  0.00    +0.000 C 
ATOM     11  N   UNL     1       1.353   9.227  21.257  0.00  0.00    +0.000 NA
ENDBRANCH   7  10
ENDBRANCH   1   4
BRANCH   1  12
ATOM     12  N   UNL     1       4.160   2.647  18.476  0.00  0.00    +0.000 NA
ATOM     13  H   UNL     1       4.421   1.847  19.051  0.00  0.00    +0.000 HD
BRANCH  12  14
ATOM     14  C   UNL     1       4.901   3.885  18.699  0.00  0.00    +0.000 C 
BRANCH  14  18
ATOM     15  C   UNL     1       6.093   3.889  13.690  0.00  0.00    +0.000 C 
ATOM     16  C   UNL     1       6.136   4.204  15.147  0.00  0.00    +0.000 A 
ATOM     17  C   UNL     1       5.260   3.815  16.137  0.00  0.00    +0.000 A 
ATOM     18  C   UNL     1       5.649   4.263  17.450  0.00  0.00    +0.000 A 
ATOM     19  C   UNL     1       6.812   5.017  17.380  0.00  0.00    +0.000 A 
ATOM     20  C   UNL     1       7.584   5.680  18.474  0.00  0.00    +0.000 C 
ATOM     21  S   UNL     1       7.403   5.153  15.776  0.00  0.00    +0.000 S 
ENDBRANCH  14  18
ENDBRANCH  12  14
ENDBRANCH   1  12
TORSDOF 5
ENDMDL
MODEL 8
REMARK VINA RESULT:      -6.6      3.050      4.032
REMARK  Name = 
REMARK  7 active torsions:
REMARK  status: ('A' for Active; 'I' for Inactive)
REMARK    1  A    between atoms: C_1  and  C_2
REMARK    2  A    between atoms: C_4  and  C_5
REMARK    3  A    between atoms: C_5  and  N_6
REMARK    4  A    between atoms: N_6  and  S_7
REMARK    5  A    between atoms: S_7  and  C_10
REMARK    6  A    between atoms: C_13  and  C_14
REMARK    7  A    between atoms: C_18  and  C_19
REMARK                            x       y       z     vdW  Elec       q    Type
REMARK                         _______ _______ _______ _____ _____    ______ ____
ROOT
ATOM      1  S   UNL     1       3.653   1.896  18.228  0.00  0.00    +0.000 S 
ATOM      2  O   UNL     1       3.447   1.738  19.650  0.00  0.00    +0.000 OA
ATOM      3  O   UNL     1       4.252   0.851  17.428  0.00  0.00    +0.000 OA
ENDROOT
BRANCH   1   4
ATOM      4  C   UNL     1       4.590   3.390  17.979  0.00  0.00    +0.000 A 
ATOM      5  C   UNL     1       5.202   4.023  19.067  0.00  0.00    +0.000 A 
ATOM      6  C   UNL     1       5.993   5.158  18.851  0.00  0.00    +0.000 A 
ATOM      7  C   UNL     1       6.181   5.657  17.555  0.00  0.00    +0.000 A 
ATOM      8  C   UNL     1       5.581   5.002  16.470  0.00  0.00    +0.000 A 
ATOM      9  C   UNL     1       4.794   3.865  16.680  0.00  0.00    +0.000 A 
BRANCH   7  10
ATOM     10  C   UNL     1       6.984   6.821  17.335  0.00  0.00    +0.000 C 
ATOM     11  N   UNL     1       7.630   7.767  17.153  0.00  0.00    +0.000 NA
ENDBRANCH   7  10
ENDBRANCH   1   4
BRANCH   1  12
ATOM     12  N   UNL     1       2.152   2.273  17.576  0.00  0.00    +0.000 NA
ATOM     13  H   UNL     1       2.234   2.701  16.654  0.00  0.00    +0.000 HD
BRANCH  12  14
ATOM     14  C   UNL     1       1.170   2.858  18.486  0.00  0.00    +0.000 C 
BRANCH  14  18
ATOM     15  C   UNL     1       2.690   7.720  17.742  0.00  0.00    +0.000 C 
ATOM     16  C   UNL     1       2.289   6.461  18.433  0.00  0.00    +0.000 A 
ATOM     17  C   UNL     1       1.827   5.286  17.882  0.00  0.00    +0.000 A 
ATOM     18  C   UNL     1       1.589   4.254  18.857  0.00  0.00    +0.000 A 
ATOM     19  C   UNL     1       1.858   4.723  20.135  0.00  0.00    +0.000 A 
ATOM     20  C   UNL     1       1.760   4.017  21.449  0.00  0.00    +0.000 C 
ATOM     21  S   UNL     1       2.392   6.352  20.131  0.00  0.00    +0.000 S 
ENDBRANCH  14  18
ENDBRANCH  12  14
ENDBRANCH   1  12
TORSDOF 5
ENDMDL
MODEL 9
REMARK VINA RESULT:      -6.5      2.865      6.109
REMARK  Name = 
REMARK  7 active torsions:
REMARK  status: ('A' for Active; 'I' for Inactive)
REMARK    1  A    between atoms: C_1  and  C_2
REMARK    2  A    between atoms: C_4  and  C_5
REMARK    3  A    between atoms: C_5  and  N_6
REMARK    4  A    between atoms: N_6  and  S_7
REMARK    5  A    between atoms: S_7  and  C_10
REMARK    6  A    between atoms: C_13  and  C_14
REMARK    7  A    between atoms: C_18  and  C_19
REMARK                            x       y       z     vdW  Elec       q    Type
REMARK                         _______ _______ _______ _____ _____    ______ ____
ROOT
ATOM      1  S   UNL     1       2.562   2.969  17.953  0.00  0.00    +0.000 S 
ATOM      2  O   UNL     1       2.083   3.150  16.602  0.00  0.00    +0.000 OA
ATOM      3  O   UNL     1       2.148   1.843  18.760  0.00  0.00    +0.000 OA
ENDROOT
BRANCH   1   4
ATOM      4  C   UNL     1       2.204   4.460  18.859  0.00  0.00    +0.000 A 
ATOM      5  C   UNL     1       1.755   4.387  20.182  0.00  0.00    +0.000 A 
ATOM      6  C   UNL     1       1.543   5.567  20.906  0.00  0.00    +0.000 A 
ATOM      7  C   UNL     1       1.782   6.815  20.317  0.00  0.00    +0.000 A 
ATOM      8  C   UNL     1       2.252   6.876  18.997  0.00  0.00    +0.000 A 
ATOM      9  C   UNL     1       2.472   5.701  18.272  0.00  0.00    +0.000 A 
BRANCH   7  10
ATOM     10  C   UNL     1       1.558   8.021  21.055  0.00  0.00    +0.000 C 
ATOM     11  N   UNL     1       1.373   9.001  21.648  0.00  0.00    +0.000 NA
ENDBRANCH   7  10
ENDBRANCH   1   4
BRANCH   1  12
ATOM     12  N   UNL     1       4.239   2.971  17.861  0.00  0.00    +0.000 NA
ATOM     13  H   UNL     1       4.670   3.176  18.762  0.00  0.00    +0.000 HD
BRANCH  12  14
ATOM     14  C   UNL     1       4.830   3.614  16.690  0.00  0.00    +0.000 C 
BRANCH  14  18
ATOM     15  C   UNL     1       8.322   5.988  19.635  0.00  0.00    +0.000 C 
ATOM     16  C   UNL     1       7.355   5.730  18.529  0.00  0.00    +0.000 A 
ATOM     17  C   UNL     1       6.656   4.576  18.249  0.00  0.00    +0.000 A 
ATOM     18  C   UNL     1       5.763   4.709  17.127  0.00  0.00    +0.000 A 
ATOM     19  C   UNL     1       5.859   5.981  16.580  0.00  0.00    +0.000 A 
ATOM     20  C   UNL     1       5.129   6.575  15.418  0.00  0.00    +0.000 C 
ATOM     21  S   UNL     1       6.984   6.966  17.417  0.00  0.00    +0.000 S 
ENDBRANCH  14  18
ENDBRANCH  12  14
ENDBRANCH   1  12
TORSDOF 5
ENDMDL
