MODEL 1
REMARK VINA RESULT:      -7.5      0.000      0.000
REMARK  Name = 
REMARK  5 active torsions:
REMARK  status: ('A' for Active; 'I' for Inactive)
REMARK    1  A    between atoms: C_2  and  C_3
REMARK    2  A    between atoms: C_3  and  O_4
REMARK    3  A    between atoms: O_4  and  C_5
REMARK    4  A    between atoms: N_14  and  C_15
REMARK    5  A    between atoms: C_15  and  C_16
REMARK                            x       y       z     vdW  Elec       q    Type
REMARK                         _______ _______ _______ _____ _____    ______ ____
ROOT
ATOM      1  O   UNL     1       5.406   6.127  15.205  0.00  0.00    +0.000 OA
ATOM      2  C   UNL     1       5.261   5.710  16.350  0.00  0.00    +0.000 C 
ATOM      3  N   UNL     1       4.510   6.371  17.302  0.00  0.00    +0.000 N 
ATOM      4  H   UNL     1       4.490   6.020  18.249  0.00  0.00    +0.000 HD
ENDROOT
BRANCH   2   5
ATOM      5  C   UNL     1       5.880   4.390  16.825  0.00  0.00    +0.000 C 
BRANCH   5   6
ATOM      6  O   UNL     1       4.952   3.320  16.701  0.00  0.00    +0.000 OA
BRANCH   6   7
ATOM      7  C   UNL     1       3.842   3.366  17.510  0.00  0.00    +0.000 A 
ATOM      8  C   UNL     1       2.532   3.658  17.088  0.00  0.00    +0.000 A 
ATOM      9  C   UNL     1       1.468   3.683  18.000  0.00  0.00    +0.000 A 
ATOM     10  C   UNL     1       1.724   3.403  19.330  0.00  0.00    +0.000 A 
ATOM     11  C   UNL     1       3.024   3.118  19.760  0.00  0.00    +0.000 A 
ATOM     12  C   UNL     1       4.088   3.105  18.868  0.00  0.00    +0.000 A 
ATOM     13  C   UNL     1       3.049   2.892  21.241  0.00  0.00    +0.000 C 
ATOM     14  C   UNL     1       1.568   2.595  21.521  0.00  0.00    +0.000 C 
ATOM     15  C   UNL     1       0.761   3.380  20.476  0.00  0.00    +0.000 C 
ENDBRANCH   6   7
ENDBRANCH   5   6
ENDBRANCH   2   5
BRANCH   3  16
ATOM     16  C   UNL     1       3.848   7.633  17.035  0.00  0.00    +0.000 C 
BRANCH  16  17
ATOM     17  C   UNL     1       2.864   7.969  18.128  0.00  0.00    +0.000 A 
ATOM     18  C   UNL     1       2.103   9.146  18.054  0.00  0.00    +0.000 A 
ATOM     19  C   UNL     1       1.202   9.478  19.067  0.00  0.00    +0.000 A 
ATOM     20  C   UNL     1       1.045   8.629  20.161  0.00  0.00    +0.000 A 
ATOM     21 CL   UNL     1      -0.050   9.047  21.420  0.00  0.00    +0.000 Cl
ATOM     22  C   UNL     1       1.777   7.444  20.241  0.00  0.00    +0.000 A 
ATOM     23  C   UNL     1       2.681   7.114  19.226  0.00  0.00    +0.000 A 
ENDBRANCH  16  17
ENDBRANCH   3  16
TORSDOF 5
ENDMDL
MODEL 2
REMARK VINA RESULT:      -7.3      4.908      5.516
REMARK  Name = 
REMARK  5 active torsions:
REMARK  status: ('A' for Active; 'I' for Inactive)
REMARK    1  A    between atoms: C_2  and  C_3
REMARK    2  A    between atoms: C_3  and  O_4
REMARK    3  A    between atoms: O_4  and  C_5
REMARK    4  A    between atoms: N_14  and  C_15
REMARK    5  A    between atoms: C_15  and  C_16
REMARK                            x       y       z     vdW  Elec       q    Type
REMARK                         _______ _______ _______ _____ _____    ______ ____
ROOT
ATOM      1  O   UNL     1       6.639   7.030  16.788  0.00  0.00    +0.000 OA
ATOM      2  C   UNL     1       7.354   6.976  17.784  0.00  0.00    +0.000 C 
ATOM      3  N   UNL     1       8.139   8.032  18.204  0.00  0.00    +0.000 N 
ATOM      4  H   UNL     1       8.766   7.904  18.985  0.00  0.00    +0.000 HD
ENDROOT
BRANCH   2   5
ATOM      5  C   UNL     1       7.421   5.733  18.679  0.00  0.00    +0.000 C 
BRANCH   5   6
ATOM      6  O   UNL     1       6.304   5.679  19.558  0.00  0.00    +0.000 OA
BRANCH   6   7
ATOM      7  C   UNL     1       5.218   4.952  19.135  0.00  0.00    +0.000 A 
ATOM      8  C   UNL     1       5.204   4.051  18.055  0.00  0.00    +0.000 A 
ATOM      9  C   UNL     1       4.036   3.361  17.704  0.00  0.00    +0.000 A 
ATOM     10  C   UNL     1       2.889   3.572  18.447  0.00  0.00    +0.000 A 
ATOM     11  C   UNL     1       2.890   4.472  19.519  0.00  0.00    +0.000 A 
ATOM     12  C   UNL     1       4.039   5.172  19.866  0.00  0.00    +0.000 A 
ATOM     13  C   UNL     1       1.527   4.557  20.134  0.00  0.00    +0.000 C 
ATOM     14  C   UNL     1       0.888   3.259  19.620  0.00  0.00    +0.000 C 
ATOM     15  C   UNL     1       1.534   2.965  18.259  0.00  0.00    +0.000 C 
ENDBRANCH   6   7
ENDBRANCH   5   6
ENDBRANCH   2   5
BRANCH   3  16
ATOM     16  C   UNL     1       8.204   9.290  17.486  0.00  0.00    +0.000 C 
BRANCH  16  17
ATOM     17  C   UNL     1       8.786  10.378  18.352  0.00  0.00    +0.000 A 
ATOM     18  C   UNL     1       9.241  10.082  19.647  0.00  0.00    +0.000 A 
ATOM     19  C   UNL     1       9.765  11.083  20.465  0.00  0.00    +0.000 A 
ATOM     20  C   UNL     1       9.849  12.392  19.993  0.00  0.00    +0.000 A 
ATOM     21 CL   UNL     1      10.477  13.631  21.008  0.00  0.00    +0.000 Cl
ATOM     22  C   UNL     1       9.422  12.701  18.701  0.00  0.00    +0.000 A 
ATOM     23  C   UNL     1       8.895  11.697  17.883  0.00  0.00    +0.000 A 
ENDBRANCH  16  17
ENDBRANCH   3  16
TORSDOF 5
ENDMDL
MODEL 3
REMARK VINA RESULT:      -7.3      2.147      4.444
REMARK  Name = 
REMARK  5 active torsions:
REMARK  status: ('A' for Active; 'I' for Inactive)
REMARK    1  A    between atoms: C_2  and  C_3
REMARK    2  A    between atoms: C_3  and  O_4
REMARK    3  A    between atoms: O_4  and  C_5
REMARK    4  A    between atoms: N_14  and  C_15
REMARK    5  A    between atoms: C_15  and  C_16
REMARK                            x       y       z     vdW  Elec       q    Type
REMARK                         _______ _______ _______ _____ _____    ______ ____
ROOT
ATOM      1  O   UNL     1       1.553   2.981  18.951  0.00  0.00    +0.000 OA
ATOM      2  C   UNL     1       2.714   3.284  19.209  0.00  0.00    +0.000 C 
ATOM      3  N   UNL     1       3.048   4.298  20.086  0.00  0.00    +0.000 N 
ATOM      4  H   UNL     1       4.019   4.555  20.199  0.00  0.00    +0.000 HD
ENDROOT
BRANCH   2   5
ATOM      5  C   UNL     1       3.909   2.541  18.603  0.00  0.00    +0.000 C 
BRANCH   5   6
ATOM      6  O   UNL     1       4.188   3.012  17.290  0.00  0.00    +0.000 OA
BRANCH   6   7
ATOM      7  C   UNL     1       4.918   4.171  17.190  0.00  0.00    +0.000 A 
ATOM      8  C   UNL     1       4.676   5.217  16.280  0.00  0.00    +0.000 A 
ATOM      9  C   UNL     1       5.489   6.359  16.259  0.00  0.00    +0.000 A 
ATOM     10  C   UNL     1       6.534   6.450  17.160  0.00  0.00    +0.000 A 
ATOM     11  C   UNL     1       6.787   5.412  18.064  0.00  0.00    +0.000 A 
ATOM     12  C   UNL     1       5.997   4.270  18.084  0.00  0.00    +0.000 A 
ATOM     13  C   UNL     1       7.991   5.726  18.900  0.00  0.00    +0.000 C 
ATOM     14  C   UNL     1       8.091   7.248  18.714  0.00  0.00    +0.000 C 
ATOM     15  C   UNL     1       7.531   7.554  17.318  0.00  0.00    +0.000 C 
ENDBRANCH   6   7
ENDBRANCH   5   6
ENDBRANCH   2   5
BRANCH   3  16
ATOM     16  C   UNL     1       2.052   5.110  20.756  0.00  0.00    +0.000 C 
BRANCH  16  17
ATOM     17  C   UNL     1       1.955   6.477  20.127  0.00  0.00    +0.000 A 
ATOM     18  C   UNL     1       1.386   7.544  20.841  0.00  0.00    +0.000 A 
ATOM     19  C   UNL     1       1.274   8.809  20.263  0.00  0.00    +0.000 A 
ATOM     20  C   UNL     1       1.740   9.024  18.968  0.00  0.00    +0.000 A 
ATOM     21 CL   UNL     1       1.585  10.578  18.247  0.00  0.00    +0.000 Cl
ATOM     22  C   UNL     1       2.329   7.982  18.251  0.00  0.00    +0.000 A 
ATOM     23  C   UNL     1       2.439   6.714  18.830  0.00  0.00    +0.000 A 
ENDBRANCH  16  17
ENDBRANCH   3  16
TORSDOF 5
ENDMDL
MODEL 4
REMARK VINA RESULT:      -7.2      6.061      7.070
REMARK  Name = 
REMARK  5 active torsions:
REMARK  status: ('A' for Active; 'I' for Inactive)
REMARK    1  A    between atoms: C_2  and  C_3
REMARK    2  A    between atoms: C_3  and  O_4
REMARK    3  A    between atoms: O_4  and  C_5
REMARK    4  A    between atoms: N_14  and  C_15
REMARK    5  A    between atoms: C_15  and  C_16
REMARK                            x       y       z     vdW  Elec       q    Type
REMARK                         _______ _______ _______ _____ _____    ______ ____
ROOT
ATOM      1  O   UNL     1       8.576   7.444  19.010  0.00  0.00    +0.000 OA
ATOM      2  C   UNL     1       8.179   8.299  18.224  0.00  0.00    +0.000 C 
ATOM      3  N   UNL     1       8.532   9.631  18.322  0.00  0.00    +0.000 N 
ATOM      4  H   UNL     1       8.112  10.302  17.693  0.00  0.00    +0.000 HD
ENDROOT
BRANCH   2   5
ATOM      5  C   UNL     1       7.274   7.962  17.033  0.00  0.00    +0.000 C 
BRANCH   5   6
ATOM      6  O   UNL     1       7.473   6.619  16.609  0.00  0.00    +0.000 OA
BRANCH   6   7
ATOM      7  C   UNL     1       6.394   5.773  16.703  0.00  0.00    +0.000 A 
ATOM      8  C   UNL     1       6.350   4.445  16.240  0.00  0.00    +0.000 A 
ATOM      9  C   UNL     1       5.193   3.669  16.382  0.00  0.00    +0.000 A 
ATOM     10  C   UNL     1       4.087   4.226  16.998  0.00  0.00    +0.000 A 
ATOM     11  C   UNL     1       4.118   5.548  17.455  0.00  0.00    +0.000 A 
ATOM     12  C   UNL     1       5.256   6.332  17.307  0.00  0.00    +0.000 A 
ATOM     13  C   UNL     1       2.795   5.931  18.043  0.00  0.00    +0.000 C 
ATOM     14  C   UNL     1       2.180   4.550  18.316  0.00  0.00    +0.000 C 
ATOM     15  C   UNL     1       2.751   3.602  17.251  0.00  0.00    +0.000 C 
ENDBRANCH   6   7
ENDBRANCH   5   6
ENDBRANCH   2   5
BRANCH   3  16
ATOM     16  C   UNL     1       9.381  10.138  19.381  0.00  0.00    +0.000 C 
BRANCH  16  17
ATOM     17  C   UNL     1      10.119  11.376  18.938  0.00  0.00    +0.000 A 
ATOM     18  C   UNL     1      11.229  11.835  19.665  0.00  0.00    +0.000 A 
ATOM     19  C   UNL     1      11.909  12.989  19.275  0.00  0.00    +0.000 A 
ATOM     20  C   UNL     1      11.492  13.693  18.147  0.00  0.00    +0.000 A 
ATOM     21 CL   UNL     1      12.317  15.127  17.678  0.00  0.00    +0.000 Cl
ATOM     22  C   UNL     1      10.405  13.240  17.400  0.00  0.00    +0.000 A 
ATOM     23  C   UNL     1       9.722  12.084  17.792  0.00  0.00    +0.000 A 
ENDBRANCH  16  17
ENDBRANCH   3  16
TORSDOF 5
ENDMDL
MODEL 5
REMARK VINA RESULT:      -7.2      4.882      5.398
REMARK  Name = 
REMARK  5 active torsions:
REMARK  status: ('A' for Active; 'I' for Inactive)
REMARK    1  A    between atoms: C_2  and  C_3
REMARK    2  A    between atoms: C_3  and  O_4
REMARK    3  A    between atoms: O_4  and  C_5
REMARK    4  A    between atoms: N_14  and  C_15
REMARK    5  A    between atoms: C_15  and  C_16
REMARK                            x       y       z     vdW  Elec       q    Type
REMARK                         _______ _______ _______ _____ _____    ______ ____
ROOT
ATOM      1  O   UNL     1       6.419   7.063  16.917  0.00  0.00    +0.000 OA
ATOM      2  C   UNL     1       7.223   6.952  17.839  0.00  0.00    +0.000 C 
ATOM      3  N   UNL     1       8.107   7.953  18.189  0.00  0.00    +0.000 N 
ATOM      4  H   UNL     1       8.798   7.775  18.905  0.00  0.00    +0.000 HD
ENDROOT
BRANCH   2   5
ATOM      5  C   UNL     1       7.299   5.694  18.712  0.00  0.00    +0.000 C 
BRANCH   5   6
ATOM      6  O   UNL     1       6.187   5.620  19.595  0.00  0.00    +0.000 OA
BRANCH   6   7
ATOM      7  C   UNL     1       5.105   4.890  19.168  0.00  0.00    +0.000 A 
ATOM      8  C   UNL     1       5.084   4.028  18.056  0.00  0.00    +0.000 A 
ATOM      9  C   UNL     1       3.920   3.331  17.704  0.00  0.00    +0.000 A 
ATOM     10  C   UNL     1       2.785   3.495  18.477  0.00  0.00    +0.000 A 
ATOM     11  C   UNL     1       2.794   4.356  19.580  0.00  0.00    +0.000 A 
ATOM     12  C   UNL     1       3.937   5.062  19.930  0.00  0.00    +0.000 A 
ATOM     13  C   UNL     1       1.442   4.395  20.225  0.00  0.00    +0.000 C 
ATOM     14  C   UNL     1       0.814   3.105  19.676  0.00  0.00    +0.000 C 
ATOM     15  C   UNL     1       1.438   2.871  18.292  0.00  0.00    +0.000 C 
ENDBRANCH   6   7
ENDBRANCH   5   6
ENDBRANCH   2   5
BRANCH   3  16
ATOM     16  C   UNL     1       8.179   9.215  17.479  0.00  0.00    +0.000 C 
BRANCH  16  17
ATOM     17  C   UNL     1       8.770  10.294  18.351  0.00  0.00    +0.000 A 
ATOM     18  C   UNL     1       8.893  11.605  17.866  0.00  0.00    +0.000 A 
ATOM     19  C   UNL     1       9.455  12.608  18.657  0.00  0.00    +0.000 A 
ATOM     20  C   UNL     1       9.891  12.312  19.946  0.00  0.00    +0.000 A 
ATOM     21 CL   UNL     1      10.602  13.544  20.915  0.00  0.00    +0.000 Cl
ATOM     22  C   UNL     1       9.758  11.020  20.454  0.00  0.00    +0.000 A 
ATOM     23  C   UNL     1       9.197  10.015  19.660  0.00  0.00    +0.000 A 
ENDBRANCH  16  17
ENDBRANCH   3  16
TORSDOF 5
ENDMDL
MODEL 6
REMARK VINA RESULT:      -7.2      0.593      1.188
REMARK  Name = 
REMARK  5 active torsions:
REMARK  status: ('A' for Active; 'I' for Inactive)
REMARK    1  A    between atoms: C_2  and  C_3
REMARK    2  A    between atoms: C_3  and  O_4
REMARK    3  A    between atoms: O_4  and  C_5
REMARK    4  A    between atoms: N_14  and  C_15
REMARK    5  A    between atoms: C_15  and  C_16
REMARK                            x       y       z     vdW  Elec       q    Type
REMARK                         _______ _______ _______ _____ _____    ______ ____
ROOT
ATOM      1  O   UNL     1       5.925   6.929  16.304  0.00  0.00    +0.000 OA
ATOM      2  C   UNL     1       5.366   6.158  17.079  0.00  0.00    +0.000 C 
ATOM      3  N   UNL     1       4.147   6.434  17.666  0.00  0.00    +0.000 N 
ATOM      4  H   UNL     1       3.773   5.797  18.356  0.00  0.00    +0.000 HD
ENDROOT
BRANCH   2   5
ATOM      5  C   UNL     1       5.960   4.792  17.446  0.00  0.00    +0.000 C 
BRANCH   5   6
ATOM      6  O   UNL     1       5.094   3.738  17.044  0.00  0.00    +0.000 OA
BRANCH   6   7
ATOM      7  C   UNL     1       3.915   3.606  17.737  0.00  0.00    +0.000 A 
ATOM      8  C   UNL     1       2.627   3.609  17.172  0.00  0.00    +0.000 A 
ATOM      9  C   UNL     1       1.486   3.471  17.973  0.00  0.00    +0.000 A 
ATOM     10  C   UNL     1       1.645   3.320  19.339  0.00  0.00    +0.000 A 
ATOM     11  C   UNL     1       2.921   3.323  19.911  0.00  0.00    +0.000 A 
ATOM     12  C   UNL     1       4.059   3.473  19.128  0.00  0.00    +0.000 A 
ATOM     13  C   UNL     1       2.828   3.188  21.401  0.00  0.00    +0.000 C 
ATOM     14  C   UNL     1       1.411   2.617  21.559  0.00  0.00    +0.000 C 
ATOM     15  C   UNL     1       0.587   3.167  20.386  0.00  0.00    +0.000 C 
ENDBRANCH   6   7
ENDBRANCH   5   6
ENDBRANCH   2   5
BRANCH   3  16
ATOM     16  C   UNL     1       3.434   7.675  17.437  0.00  0.00    +0.000 C 
BRANCH  16  17
ATOM     17  C   UNL     1       2.506   7.986  18.584  0.00  0.00    +0.000 A 
ATOM     18  C   UNL     1       2.388   7.090  19.659  0.00  0.00    +0.000 A 
ATOM     19  C   UNL     1       1.520   7.358  20.718  0.00  0.00    +0.000 A 
ATOM     20  C   UNL     1       0.767   8.530  20.719  0.00  0.00    +0.000 A 
ATOM     21 CL   UNL     1      -0.319   8.851  22.014  0.00  0.00    +0.000 Cl
ATOM     22  C   UNL     1       0.887   9.442  19.671  0.00  0.00    +0.000 A 
ATOM     23  C   UNL     1       1.756   9.173  18.608  0.00  0.00    +0.000 A 
ENDBRANCH  16  17
ENDBRANCH   3  16
TORSDOF 5
ENDMDL
MODEL 7
REMARK VINA RESULT:      -7.2      6.042      8.622
REMARK  Name = 
REMARK  5 active torsions:
REMARK  status: ('A' for Active; 'I' for Inactive)
REMARK    1  A    between atoms: C_2  and  C_3
REMARK    2  A    between atoms: C_3  and  O_4
REMARK    3  A    between atoms: O_4  and  C_5
REMARK    4  A    between atoms: N_14  and  C_15
REMARK    5  A    between atoms: C_15  and  C_16
REMARK                            x       y       z     vdW  Elec       q    Type
REMARK                         _______ _______ _______ _____ _____    ______ ____
ROOT
ATOM      1  O   UNL     1       7.749   7.051  16.382  0.00  0.00    +0.000 OA
ATOM      2  C   UNL     1       7.788   7.480  17.531  0.00  0.00    +0.000 C 
ATOM      3  N   UNL     1       7.655   6.670  18.641  0.00  0.00    +0.000 N 
ATOM      4  H   UNL     1       7.617   7.089  19.560  0.00  0.00    +0.000 HD
ENDROOT
BRANCH   2   5
ATOM      5  C   UNL     1       8.022   8.963  17.845  0.00  0.00    +0.000 C 
BRANCH   5   6
ATOM      6  O   UNL     1       8.907   9.116  18.947  0.00  0.00    +0.000 OA
BRANCH   6   7
ATOM      7  C   UNL     1       9.435  10.368  19.149  0.00  0.00    +0.000 A 
ATOM      8  C   UNL     1      10.160  11.114  18.201  0.00  0.00    +0.000 A 
ATOM      9  C   UNL     1      10.660  12.385  18.513  0.00  0.00    +0.000 A 
ATOM     10  C   UNL     1      10.421  12.906  19.772  0.00  0.00    +0.000 A 
ATOM     11  C   UNL     1       9.708  12.168  20.723  0.00  0.00    +0.000 A 
ATOM     12  C   UNL     1       9.220  10.901  20.430  0.00  0.00    +0.000 A 
ATOM     13  C   UNL     1       9.619  12.923  22.014  0.00  0.00    +0.000 C 
ATOM     14  C   UNL     1       9.923  14.353  21.542  0.00  0.00    +0.000 C 
ATOM     15  C   UNL     1      10.859  14.222  20.332  0.00  0.00    +0.000 C 
ENDBRANCH   6   7
ENDBRANCH   5   6
ENDBRANCH   2   5
BRANCH   3  16
ATOM     16  C   UNL     1       7.429   5.241  18.542  0.00  0.00    +0.000 C 
BRANCH  16  17
ATOM     17  C   UNL     1       5.969   4.938  18.315  0.00  0.00    +0.000 A 
ATOM     18  C   UNL     1       5.027   5.216  19.318  0.00  0.00    +0.000 A 
ATOM     19  C   UNL     1       3.676   4.924  19.128  0.00  0.00    +0.000 A 
ATOM     20  C   UNL     1       3.251   4.359  17.927  0.00  0.00    +0.000 A 
ATOM     21 CL   UNL     1       1.588   3.980  17.699  0.00  0.00    +0.000 Cl
ATOM     22  C   UNL     1       4.169   4.096  16.911  0.00  0.00    +0.000 A 
ATOM     23  C   UNL     1       5.523   4.387  17.103  0.00  0.00    +0.000 A 
ENDBRANCH  16  17
ENDBRANCH   3  16
TORSDOF 5
ENDMDL
MODEL 8
REMARK VINA RESULT:      -7.1      5.919      8.348
REMARK  Name = 
REMARK  5 active torsions:
REMARK  status: ('A' for Active; 'I' for Inactive)
REMARK    1  A    between atoms: C_2  and  C_3
REMARK    2  A    between atoms: C_3  and  O_4
REMARK    3  A    between atoms: O_4  and  C_5
REMARK    4  A    between atoms: N_14  and  C_15
REMARK    5  A    between atoms: C_15  and  C_16
REMARK                            x       y       z     vdW  Elec       q    Type
REMARK                         _______ _______ _______ _____ _____    ______ ____
ROOT
ATOM      1  O   UNL     1       7.963   6.597  18.520  0.00  0.00    +0.000 OA
ATOM      2  C   UNL     1       7.560   7.448  17.732  0.00  0.00    +0.000 C 
ATOM      3  N   UNL     1       6.581   7.196  16.791  0.00  0.00    +0.000 N 
ATOM      4  H   UNL     1       6.345   7.912  16.118  0.00  0.00    +0.000 HD
ENDROOT
BRANCH   2   5
ATOM      5  C   UNL     1       8.087   8.887  17.739  0.00  0.00    +0.000 C 
BRANCH   5   6
ATOM      6  O   UNL     1       8.837   9.147  18.920  0.00  0.00    +0.000 OA
BRANCH   6   7
ATOM      7  C   UNL     1       9.385  10.401  19.042  0.00  0.00    +0.000 A 
ATOM      8  C   UNL     1      10.043  11.111  18.021  0.00  0.00    +0.000 A 
ATOM      9  C   UNL     1      10.571  12.388  18.254  0.00  0.00    +0.000 A 
ATOM     10  C   UNL     1      10.426  12.950  19.510  0.00  0.00    +0.000 A 
ATOM     11  C   UNL     1       9.780  12.249  20.533  0.00  0.00    +0.000 A 
ATOM     12  C   UNL     1       9.265  10.977  20.317  0.00  0.00    +0.000 A 
ATOM     13  C   UNL     1       9.788  13.046  21.802  0.00  0.00    +0.000 C 
ATOM     14  C   UNL     1      10.065  14.458  21.263  0.00  0.00    +0.000 C 
ATOM     15  C   UNL     1      10.910  14.281  19.993  0.00  0.00    +0.000 C 
ENDBRANCH   6   7
ENDBRANCH   5   6
ENDBRANCH   2   5
BRANCH   3  16
ATOM     16  C   UNL     1       5.963   5.894  16.636  0.00  0.00    +0.000 C 
BRANCH  16  17
ATOM     17  C   UNL     1       4.841   5.705  17.627  0.00  0.00    +0.000 A 
ATOM     18  C   UNL     1       3.831   6.674  17.742  0.00  0.00    +0.000 A 
ATOM     19  C   UNL     1       2.798   6.520  18.667  0.00  0.00    +0.000 A 
ATOM     20  C   UNL     1       2.758   5.390  19.481  0.00  0.00    +0.000 A 
ATOM     21 CL   UNL     1       1.496   5.208  20.635  0.00  0.00    +0.000 Cl
ATOM     22  C   UNL     1       3.741   4.406  19.365  0.00  0.00    +0.000 A 
ATOM     23  C   UNL     1       4.777   4.562  18.440  0.00  0.00    +0.000 A 
ENDBRANCH  16  17
ENDBRANCH   3  16
TORSDOF 5
ENDMDL
MODEL 9
REMARK VINA RESULT:      -7.1      3.809      5.761
REMARK  Name = 
REMARK  5 active torsions:
REMARK  status: ('A' for Active; 'I' for Inactive)
REMARK    1  A    between atoms: C_2  and  C_3
REMARK    2  A    between atoms: C_3  and  O_4
REMARK    3  A    between atoms: O_4  and  C_5
REMARK    4  A    between atoms: N_14  and  C_15
REMARK    5  A    between atoms: C_15  and  C_16
REMARK                            x       y       z     vdW  Elec       q    Type
REMARK                         _______ _______ _______ _____ _____    ______ ____
ROOT
ATOM      1  O   UNL     1       8.423   4.067  17.729  0.00  0.00    +0.000 OA
ATOM      2  C   UNL     1       7.478   4.848  17.672  0.00  0.00    +0.000 C 
ATOM      3  N   UNL     1       7.102   5.489  16.509  0.00  0.00    +0.000 N 
ATOM      4  H   UNL     1       6.365   6.180  16.539  0.00  0.00    +0.000 HD
ENDROOT
BRANCH   2   5
ATOM      5  C   UNL     1       6.600   5.161  18.889  0.00  0.00    +0.000 C 
BRANCH   5   6
ATOM      6  O   UNL     1       5.439   5.887  18.505  0.00  0.00    +0.000 OA
BRANCH   6   7
ATOM      7  C   UNL     1       4.228   5.372  18.900  0.00  0.00    +0.000 A 
ATOM      8  C   UNL     1       3.245   6.061  19.634  0.00  0.00    +0.000 A 
ATOM      9  C   UNL     1       2.041   5.439  19.991  0.00  0.00    +0.000 A 
ATOM     10  C   UNL     1       1.826   4.130  19.599  0.00  0.00    +0.000 A 
ATOM     11  C   UNL     1       2.800   3.434  18.875  0.00  0.00    +0.000 A 
ATOM     12  C   UNL     1       4.003   4.037  18.528  0.00  0.00    +0.000 A 
ATOM     13  C   UNL     1       2.352   2.030  18.608  0.00  0.00    +0.000 C 
ATOM     14  C   UNL     1       0.836   2.156  18.824  0.00  0.00    +0.000 C 
ATOM     15  C   UNL     1       0.636   3.263  19.868  0.00  0.00    +0.000 C 
ENDBRANCH   6   7
ENDBRANCH   5   6
ENDBRANCH   2   5
BRANCH   3  16
ATOM     16  C   UNL     1       7.812   5.316  15.257  0.00  0.00    +0.000 C 
BRANCH  16  17
ATOM     17  C   UNL     1       6.925   4.683  14.214  0.00  0.00    +0.000 A 
ATOM     18  C   UNL     1       5.585   4.390  14.512  0.00  0.00    +0.000 A 
ATOM     19  C   UNL     1       4.759   3.788  13.562  0.00  0.00    +0.000 A 
ATOM     20  C   UNL     1       5.262   3.480  12.300  0.00  0.00    +0.000 A 
ATOM     21 CL   UNL     1       4.250   2.720  11.135  0.00  0.00    +0.000 Cl
ATOM     22  C   UNL     1       6.585   3.784  11.978  0.00  0.00    +0.000 A 
ATOM     23  C   UNL     1       7.413   4.385  12.932  0.00  0.00    +0.000 A 
ENDBRANCH  16  17
ENDBRANCH   3  16
TORSDOF 5
ENDMDL
