MODEL 1
REMARK VINA RESULT:      -6.6      0.000      0.000
REMARK  Name = 
REMARK  17 active torsions:
REMARK  status: ('A' for Active; 'I' for Inactive)
REMARK    1  A    between atoms: C_2  and  O_3
REMARK    2  A    between atoms: C_2  and  O_20
REMARK    3  A    between atoms: O_3  and  C_4
REMARK    4  A    between atoms: C_4  and  C_5
REMARK    5  A    between atoms: C_5  and  O_6
REMARK    6  A    between atoms: O_6  and  C_7
REMARK    7  A    between atoms: C_7  and  O_9
REMARK    8  A    between atoms: O_9  and  C_10
REMARK    9  A    between atoms: C_10  and  C_11
REMARK   10  A    between atoms: C_11  and  C_12
REMARK   11  A    between atoms: C_15  and  O_16
REMARK   12  A    between atoms: C_17  and  O_18
REMARK   13  A    between atoms: O_20  and  C_21
REMARK   14  A    between atoms: C_21  and  C_22
REMARK   15  A    between atoms: C_22  and  C_23
REMARK   16  A    between atoms: C_26  and  O_27
REMARK   17  A    between atoms: C_28  and  O_29
REMARK                            x       y       z     vdW  Elec       q    Type
REMARK                         _______ _______ _______ _____ _____    ______ ____
ROOT
ATOM      1  C   UNL     1       5.187   7.152  17.101  0.00  0.00    +0.000 C 
ENDROOT
BRANCH   1   2
ATOM      2  C   UNL     1       6.681   7.117  17.379  0.00  0.00    +0.000 C 
BRANCH   2   3
ATOM      3  O   UNL     1       7.314   6.368  16.330  0.00  0.00    +0.000 OA
BRANCH   3   4
ATOM      4  C   UNL     1       7.330   5.026  16.524  0.00  0.00    +0.000 C 
ATOM      5  O   UNL     1       7.888   4.436  17.437  0.00  0.00    +0.000 OA
BRANCH   4   6
ATOM      6  O   UNL     1       6.487   4.468  15.623  0.00  0.00    +0.000 OA
BRANCH   6   7
ATOM      7  C   UNL     1       5.772   3.349  16.159  0.00  0.00    +0.000 C 
BRANCH   7   8
ATOM      8  C   UNL     1       4.308   3.778  16.235  0.00  0.00    +0.000 C 
BRANCH   8   9
ATOM      9  C   UNL     1       3.639   3.370  17.509  0.00  0.00    +0.000 A 
ATOM     10  C   UNL     1       4.363   3.348  18.710  0.00  0.00    +0.000 A 
ATOM     11  C   UNL     1       3.737   2.996  19.908  0.00  0.00    +0.000 A 
ATOM     12  C   UNL     1       2.392   2.648  19.892  0.00  0.00    +0.000 A 
ATOM     13  C   UNL     1       1.676   2.652  18.697  0.00  0.00    +0.000 A 
ATOM     14  C   UNL     1       2.288   3.008  17.506  0.00  0.00    +0.000 A 
BRANCH  13  15
ATOM     15  O   UNL     1       0.355   2.315  18.686  0.00  0.00    +0.000 OA
ATOM     16  H   UNL     1       0.336   1.410  19.054  0.00  0.00    +0.000 HD
ENDBRANCH  13  15
BRANCH  12  17
ATOM     17  O   UNL     1       1.722   2.296  21.031  0.00  0.00    +0.000 OA
ATOM     18  H   UNL     1       0.792   2.560  20.927  0.00  0.00    +0.000 HD
ENDBRANCH  12  17
ENDBRANCH   8   9
ENDBRANCH   7   8
ENDBRANCH   6   7
ENDBRANCH   4   6
ENDBRANCH   3   4
ENDBRANCH   2   3
ENDBRANCH   1   2
BRANCH   1  19
ATOM     19  O   UNL     1       4.478   6.630  18.236  0.00  0.00    +0.000 OA
BRANCH  19  21
ATOM     20  O   UNL     1       2.302   6.323  18.896  0.00  0.00    +0.000 OA
ATOM     21  C   UNL     1       3.181   6.991  18.377  0.00  0.00    +0.000 C 
BRANCH  21  22
ATOM     22  O   UNL     1       3.017   8.182  17.754  0.00  0.00    +0.000 OA
BRANCH  22  23
ATOM     23  C   UNL     1       1.678   8.685  17.750  0.00  0.00    +0.000 C 
BRANCH  23  24
ATOM     24  C   UNL     1       1.399   9.807  18.750  0.00  0.00    +0.000 C 
BRANCH  24  25
ATOM     25  C   UNL     1       0.056  10.432  18.439  0.00  0.00    +0.000 A 
ATOM     26  C   UNL     1      -0.889   9.755  17.648  0.00  0.00    +0.000 A 
ATOM     27  C   UNL     1      -2.167  10.289  17.445  0.00  0.00    +0.000 A 
ATOM     28  C   UNL     1      -2.503  11.496  18.039  0.00  0.00    +0.000 A 
ATOM     29  C   UNL     1      -1.573  12.175  18.821  0.00  0.00    +0.000 A 
ATOM     30  C   UNL     1      -0.299  11.659  19.021  0.00  0.00    +0.000 A 
BRANCH  29  31
ATOM     31  O   UNL     1      -1.916  13.355  19.416  0.00  0.00    +0.000 OA
ATOM     32  H   UNL     1      -1.092  13.660  19.844  0.00  0.00    +0.000 HD
ENDBRANCH  29  31
BRANCH  28  33
ATOM     33  O   UNL     1      -3.743  12.056  17.897  0.00  0.00    +0.000 OA
ATOM     34  H   UNL     1      -3.629  13.012  17.757  0.00  0.00    +0.000 HD
ENDBRANCH  28  33
ENDBRANCH  24  25
ENDBRANCH  23  24
ENDBRANCH  22  23
ENDBRANCH  21  22
ENDBRANCH  19  21
ENDBRANCH   1  19
TORSDOF 17
ENDMDL
MODEL 2
REMARK VINA RESULT:      -6.5      3.230      7.501
REMARK  Name = 
REMARK  17 active torsions:
REMARK  status: ('A' for Active; 'I' for Inactive)
REMARK    1  A    between atoms: C_2  and  O_3
REMARK    2  A    between atoms: C_2  and  O_20
REMARK    3  A    between atoms: O_3  and  C_4
REMARK    4  A    between atoms: C_4  and  C_5
REMARK    5  A    between atoms: C_5  and  O_6
REMARK    6  A    between atoms: O_6  and  C_7
REMARK    7  A    between atoms: C_7  and  O_9
REMARK    8  A    between atoms: O_9  and  C_10
REMARK    9  A    between atoms: C_10  and  C_11
REMARK   10  A    between atoms: C_11  and  C_12
REMARK   11  A    between atoms: C_15  and  O_16
REMARK   12  A    between atoms: C_17  and  O_18
REMARK   13  A    between atoms: O_20  and  C_21
REMARK   14  A    between atoms: C_21  and  C_22
REMARK   15  A    between atoms: C_22  and  C_23
REMARK   16  A    between atoms: C_26  and  O_27
REMARK   17  A    between atoms: C_28  and  O_29
REMARK                            x       y       z     vdW  Elec       q    Type
REMARK                         _______ _______ _______ _____ _____    ______ ____
ROOT
ATOM      1  C   UNL     1       4.937   4.343  16.852  0.00  0.00    +0.000 C 
ENDROOT
BRANCH   1   2
ATOM      2  C   UNL     1       3.592   3.647  16.987  0.00  0.00    +0.000 C 
BRANCH   2   3
ATOM      3  O   UNL     1       3.465   3.178  18.338  0.00  0.00    +0.000 OA
BRANCH   3   4
ATOM      4  C   UNL     1       2.187   2.985  18.751  0.00  0.00    +0.000 C 
ATOM      5  O   UNL     1       1.296   2.447  18.112  0.00  0.00    +0.000 OA
BRANCH   4   6
ATOM      6  O   UNL     1       2.116   3.347  20.054  0.00  0.00    +0.000 OA
BRANCH   6   7
ATOM      7  C   UNL     1       1.249   4.467  20.266  0.00  0.00    +0.000 C 
BRANCH   7   8
ATOM      8  C   UNL     1       2.135   5.598  20.784  0.00  0.00    +0.000 C 
BRANCH   8   9
ATOM      9  C   UNL     1       2.120   6.809  19.907  0.00  0.00    +0.000 A 
ATOM     10  C   UNL     1       2.727   6.773  18.644  0.00  0.00    +0.000 A 
ATOM     11  C   UNL     1       2.693   7.891  17.808  0.00  0.00    +0.000 A 
ATOM     12  C   UNL     1       2.065   9.048  18.252  0.00  0.00    +0.000 A 
ATOM     13  C   UNL     1       1.476   9.092  19.514  0.00  0.00    +0.000 A 
ATOM     14  C   UNL     1       1.500   7.984  20.346  0.00  0.00    +0.000 A 
BRANCH  13  15
ATOM     15  O   UNL     1       0.856  10.228  19.945  0.00  0.00    +0.000 OA
ATOM     16  H   UNL     1       1.547  10.702  20.448  0.00  0.00    +0.000 HD
ENDBRANCH  13  15
BRANCH  12  17
ATOM     17  O   UNL     1       1.995  10.176  17.481  0.00  0.00    +0.000 OA
ATOM     18  H   UNL     1       2.885  10.361  17.137  0.00  0.00    +0.000 HD
ENDBRANCH  12  17
ENDBRANCH   8   9
ENDBRANCH   7   8
ENDBRANCH   6   7
ENDBRANCH   4   6
ENDBRANCH   3   4
ENDBRANCH   2   3
ENDBRANCH   1   2
BRANCH   1  19
ATOM     19  O   UNL     1       5.633   4.283  18.108  0.00  0.00    +0.000 OA
BRANCH  19  21
ATOM     20  O   UNL     1       7.908   4.433  18.358  0.00  0.00    +0.000 OA
ATOM     21  C   UNL     1       6.811   4.942  18.196  0.00  0.00    +0.000 C 
BRANCH  21  22
ATOM     22  O   UNL     1       6.542   6.268  18.170  0.00  0.00    +0.000 OA
BRANCH  22  23
ATOM     23  C   UNL     1       7.680   7.121  18.323  0.00  0.00    +0.000 C 
BRANCH  23  24
ATOM     24  C   UNL     1       7.775   8.271  17.320  0.00  0.00    +0.000 C 
BRANCH  24  25
ATOM     25  C   UNL     1       8.320   9.499  18.017  0.00  0.00    +0.000 A 
ATOM     26  C   UNL     1       9.041   9.387  19.219  0.00  0.00    +0.000 A 
ATOM     27  C   UNL     1       9.631  10.511  19.809  0.00  0.00    +0.000 A 
ATOM     28  C   UNL     1       9.506  11.747  19.192  0.00  0.00    +0.000 A 
ATOM     29  C   UNL     1       8.792  11.869  18.004  0.00  0.00    +0.000 A 
ATOM     30  C   UNL     1       8.194  10.761  17.415  0.00  0.00    +0.000 A 
BRANCH  29  31
ATOM     31  O   UNL     1       8.687  13.086  17.394  0.00  0.00    +0.000 OA
ATOM     32  H   UNL     1       8.543  13.714  18.129  0.00  0.00    +0.000 HD
ENDBRANCH  29  31
BRANCH  28  33
ATOM     33  O   UNL     1      10.079  12.878  19.707  0.00  0.00    +0.000 OA
ATOM     34  H   UNL     1      10.765  13.179  19.087  0.00  0.00    +0.000 HD
ENDBRANCH  28  33
ENDBRANCH  24  25
ENDBRANCH  23  24
ENDBRANCH  22  23
ENDBRANCH  21  22
ENDBRANCH  19  21
ENDBRANCH   1  19
TORSDOF 17
ENDMDL
MODEL 3
REMARK VINA RESULT:      -6.5      1.887      4.975
REMARK  Name = 
REMARK  17 active torsions:
REMARK  status: ('A' for Active; 'I' for Inactive)
REMARK    1  A    between atoms: C_2  and  O_3
REMARK    2  A    between atoms: C_2  and  O_20
REMARK    3  A    between atoms: O_3  and  C_4
REMARK    4  A    between atoms: C_4  and  C_5
REMARK    5  A    between atoms: C_5  and  O_6
REMARK    6  A    between atoms: O_6  and  C_7
REMARK    7  A    between atoms: C_7  and  O_9
REMARK    8  A    between atoms: O_9  and  C_10
REMARK    9  A    between atoms: C_10  and  C_11
REMARK   10  A    between atoms: C_11  and  C_12
REMARK   11  A    between atoms: C_15  and  O_16
REMARK   12  A    between atoms: C_17  and  O_18
REMARK   13  A    between atoms: O_20  and  C_21
REMARK   14  A    between atoms: C_21  and  C_22
REMARK   15  A    between atoms: C_22  and  C_23
REMARK   16  A    between atoms: C_26  and  O_27
REMARK   17  A    between atoms: C_28  and  O_29
REMARK                            x       y       z     vdW  Elec       q    Type
REMARK                         _______ _______ _______ _____ _____    ______ ____
ROOT
ATOM      1  C   UNL     1       1.438   4.662  20.404  0.00  0.00    +0.000 C 
ENDROOT
BRANCH   1   2
ATOM      2  C   UNL     1       1.826   3.565  21.382  0.00  0.00    +0.000 C 
BRANCH   2   3
ATOM      3  O   UNL     1       2.819   2.738  20.755  0.00  0.00    +0.000 OA
BRANCH   3   4
ATOM      4  C   UNL     1       2.426   2.168  19.589  0.00  0.00    +0.000 C 
ATOM      5  O   UNL     1       1.276   1.918  19.261  0.00  0.00    +0.000 OA
BRANCH   4   6
ATOM      6  O   UNL     1       3.514   2.073  18.789  0.00  0.00    +0.000 OA
BRANCH   6   7
ATOM      7  C   UNL     1       4.223   3.312  18.677  0.00  0.00    +0.000 C 
BRANCH   7   8
ATOM      8  C   UNL     1       3.788   3.932  17.351  0.00  0.00    +0.000 C 
BRANCH   8   9
ATOM      9  C   UNL     1       4.937   4.363  16.495  0.00  0.00    +0.000 A 
ATOM     10  C   UNL     1       5.151   3.764  15.247  0.00  0.00    +0.000 A 
ATOM     11  C   UNL     1       6.205   4.181  14.431  0.00  0.00    +0.000 A 
ATOM     12  C   UNL     1       7.053   5.185  14.882  0.00  0.00    +0.000 A 
ATOM     13  C   UNL     1       6.852   5.770  16.131  0.00  0.00    +0.000 A 
ATOM     14  C   UNL     1       5.804   5.366  16.942  0.00  0.00    +0.000 A 
BRANCH  13  15
ATOM     15  O   UNL     1       7.683   6.759  16.568  0.00  0.00    +0.000 OA
ATOM     16  H   UNL     1       8.492   6.648  16.030  0.00  0.00    +0.000 HD
ENDBRANCH  13  15
BRANCH  12  17
ATOM     17  O   UNL     1       8.101   5.640  14.130  0.00  0.00    +0.000 OA
ATOM     18  H   UNL     1       8.900   5.621  14.685  0.00  0.00    +0.000 HD
ENDBRANCH  12  17
ENDBRANCH   8   9
ENDBRANCH   7   8
ENDBRANCH   6   7
ENDBRANCH   4   6
ENDBRANCH   3   4
ENDBRANCH   2   3
ENDBRANCH   1   2
BRANCH   1  19
ATOM     19  O   UNL     1       2.382   5.741  20.498  0.00  0.00    +0.000 OA
BRANCH  19  21
ATOM     20  O   UNL     1       2.285   7.646  19.223  0.00  0.00    +0.000 OA
ATOM     21  C   UNL     1       1.940   6.981  20.187  0.00  0.00    +0.000 C 
BRANCH  21  22
ATOM     22  O   UNL     1       1.123   7.388  21.186  0.00  0.00    +0.000 OA
BRANCH  22  23
ATOM     23  C   UNL     1       1.304   8.744  21.603  0.00  0.00    +0.000 C 
BRANCH  23  24
ATOM     24  C   UNL     1       0.018   9.503  21.937  0.00  0.00    +0.000 C 
BRANCH  24  25
ATOM     25  C   UNL     1      -0.312  10.450  20.804  0.00  0.00    +0.000 A 
ATOM     26  C   UNL     1      -0.204  11.842  20.972  0.00  0.00    +0.000 A 
ATOM     27  C   UNL     1      -0.413  12.712  19.895  0.00  0.00    +0.000 A 
ATOM     28  C   UNL     1      -0.720  12.189  18.647  0.00  0.00    +0.000 A 
ATOM     29  C   UNL     1      -0.832  10.813  18.472  0.00  0.00    +0.000 A 
ATOM     30  C   UNL     1      -0.637   9.941  19.536  0.00  0.00    +0.000 A 
BRANCH  29  31
ATOM     31  O   UNL     1      -1.119  10.304  17.237  0.00  0.00    +0.000 OA
ATOM     32  H   UNL     1      -1.806   9.630  17.407  0.00  0.00    +0.000 HD
ENDBRANCH  29  31
BRANCH  28  33
ATOM     33  O   UNL     1      -0.912  12.986  17.552  0.00  0.00    +0.000 OA
ATOM     34  H   UNL     1      -1.593  13.644  17.772  0.00  0.00    +0.000 HD
ENDBRANCH  28  33
ENDBRANCH  24  25
ENDBRANCH  23  24
ENDBRANCH  22  23
ENDBRANCH  21  22
ENDBRANCH  19  21
ENDBRANCH   1  19
TORSDOF 17
ENDMDL
MODEL 4
REMARK VINA RESULT:      -6.5      3.971      7.379
REMARK  Name = 
REMARK  17 active torsions:
REMARK  status: ('A' for Active; 'I' for Inactive)
REMARK    1  A    between atoms: C_2  and  O_3
REMARK    2  A    between atoms: C_2  and  O_20
REMARK    3  A    between atoms: O_3  and  C_4
REMARK    4  A    between atoms: C_4  and  C_5
REMARK    5  A    between atoms: C_5  and  O_6
REMARK    6  A    between atoms: O_6  and  C_7
REMARK    7  A    between atoms: C_7  and  O_9
REMARK    8  A    between atoms: O_9  and  C_10
REMARK    9  A    between atoms: C_10  and  C_11
REMARK   10  A    between atoms: C_11  and  C_12
REMARK   11  A    between atoms: C_15  and  O_16
REMARK   12  A    between atoms: C_17  and  O_18
REMARK   13  A    between atoms: O_20  and  C_21
REMARK   14  A    between atoms: C_21  and  C_22
REMARK   15  A    between atoms: C_22  and  C_23
REMARK   16  A    between atoms: C_26  and  O_27
REMARK   17  A    between atoms: C_28  and  O_29
REMARK                            x       y       z     vdW  Elec       q    Type
REMARK                         _______ _______ _______ _____ _____    ______ ____
ROOT
ATOM      1  C   UNL     1       5.480   5.368  17.806  0.00  0.00    +0.000 C 
ENDROOT
BRANCH   1   2
ATOM      2  C   UNL     1       4.446   6.230  17.101  0.00  0.00    +0.000 C 
BRANCH   2   3
ATOM      3  O   UNL     1       3.176   6.014  17.736  0.00  0.00    +0.000 OA
BRANCH   3   4
ATOM      4  C   UNL     1       2.805   6.987  18.604  0.00  0.00    +0.000 C 
ATOM      5  O   UNL     1       2.431   8.113  18.309  0.00  0.00    +0.000 OA
BRANCH   4   6
ATOM      6  O   UNL     1       2.769   6.443  19.843  0.00  0.00    +0.000 OA
BRANCH   6   7
ATOM      7  C   UNL     1       1.448   6.046  20.230  0.00  0.00    +0.000 C 
BRANCH   7   8
ATOM      8  C   UNL     1       1.604   4.720  20.972  0.00  0.00    +0.000 C 
BRANCH   8   9
ATOM      9  C   UNL     1       2.241   3.651  20.143  0.00  0.00    +0.000 A 
ATOM     10  C   UNL     1       1.595   3.169  18.996  0.00  0.00    +0.000 A 
ATOM     11  C   UNL     1       2.197   2.190  18.201  0.00  0.00    +0.000 A 
ATOM     12  C   UNL     1       3.437   1.686  18.574  0.00  0.00    +0.000 A 
ATOM     13  C   UNL     1       4.073   2.151  19.723  0.00  0.00    +0.000 A 
ATOM     14  C   UNL     1       3.485   3.127  20.511  0.00  0.00    +0.000 A 
BRANCH  13  15
ATOM     15  O   UNL     1       5.292   1.657  20.082  0.00  0.00    +0.000 OA
ATOM     16  H   UNL     1       5.136   1.244  20.954  0.00  0.00    +0.000 HD
ENDBRANCH  13  15
BRANCH  12  17
ATOM     17  O   UNL     1       4.080   0.729  17.837  0.00  0.00    +0.000 OA
ATOM     18  H   UNL     1       3.623  -0.118  17.979  0.00  0.00    +0.000 HD
ENDBRANCH  12  17
ENDBRANCH   8   9
ENDBRANCH   7   8
ENDBRANCH   6   7
ENDBRANCH   4   6
ENDBRANCH   3   4
ENDBRANCH   2   3
ENDBRANCH   1   2
BRANCH   1  19
ATOM     19  O   UNL     1       6.480   6.212  18.400  0.00  0.00    +0.000 OA
BRANCH  19  21
ATOM     20  O   UNL     1       7.536   6.515  16.386  0.00  0.00    +0.000 OA
ATOM     21  C   UNL     1       7.474   6.656  17.597  0.00  0.00    +0.000 C 
BRANCH  21  22
ATOM     22  O   UNL     1       8.431   7.195  18.388  0.00  0.00    +0.000 OA
BRANCH  22  23
ATOM     23  C   UNL     1       8.197   8.550  18.784  0.00  0.00    +0.000 C 
BRANCH  23  24
ATOM     24  C   UNL     1       8.638   9.611  17.776  0.00  0.00    +0.000 C 
BRANCH  24  25
ATOM     25  C   UNL     1       9.333  10.739  18.508  0.00  0.00    +0.000 A 
ATOM     26  C   UNL     1       9.878  11.828  17.805  0.00  0.00    +0.000 A 
ATOM     27  C   UNL     1      10.431  12.918  18.489  0.00  0.00    +0.000 A 
ATOM     28  C   UNL     1      10.430  12.922  19.875  0.00  0.00    +0.000 A 
ATOM     29  C   UNL     1       9.896  11.847  20.580  0.00  0.00    +0.000 A 
ATOM     30  C   UNL     1       9.354  10.756  19.912  0.00  0.00    +0.000 A 
BRANCH  29  31
ATOM     31  O   UNL     1       9.884  11.866  21.945  0.00  0.00    +0.000 OA
ATOM     32  H   UNL     1      10.169  12.771  22.178  0.00  0.00    +0.000 HD
ENDBRANCH  29  31
BRANCH  28  33
ATOM     33  O   UNL     1      10.934  13.968  20.599  0.00  0.00    +0.000 OA
ATOM     34  H   UNL     1      11.886  14.033  20.416  0.00  0.00    +0.000 HD
ENDBRANCH  28  33
ENDBRANCH  24  25
ENDBRANCH  23  24
ENDBRANCH  22  23
ENDBRANCH  21  22
ENDBRANCH  19  21
ENDBRANCH   1  19
TORSDOF 17
ENDMDL
MODEL 5
REMARK VINA RESULT:      -6.4      5.850      7.955
REMARK  Name = 
REMARK  17 active torsions:
REMARK  status: ('A' for Active; 'I' for Inactive)
REMARK    1  A    between atoms: C_2  and  O_3
REMARK    2  A    between atoms: C_2  and  O_20
REMARK    3  A    between atoms: O_3  and  C_4
REMARK    4  A    between atoms: C_4  and  C_5
REMARK    5  A    between atoms: C_5  and  O_6
REMARK    6  A    between atoms: O_6  and  C_7
REMARK    7  A    between atoms: C_7  and  O_9
REMARK    8  A    between atoms: O_9  and  C_10
REMARK    9  A    between atoms: C_10  and  C_11
REMARK   10  A    between atoms: C_11  and  C_12
REMARK   11  A    between atoms: C_15  and  O_16
REMARK   12  A    between atoms: C_17  and  O_18
REMARK   13  A    between atoms: O_20  and  C_21
REMARK   14  A    between atoms: C_21  and  C_22
REMARK   15  A    between atoms: C_22  and  C_23
REMARK   16  A    between atoms: C_26  and  O_27
REMARK   17  A    between atoms: C_28  and  O_29
REMARK                            x       y       z     vdW  Elec       q    Type
REMARK                         _______ _______ _______ _____ _____    ______ ____
ROOT
ATOM      1  C   UNL     1       7.639   8.707  17.818  0.00  0.00    +0.000 C 
ENDROOT
BRANCH   1   2
ATOM      2  C   UNL     1       7.769   7.192  17.838  0.00  0.00    +0.000 C 
BRANCH   2   3
ATOM      3  O   UNL     1       7.601   6.711  16.495  0.00  0.00    +0.000 OA
BRANCH   3   4
ATOM      4  C   UNL     1       7.321   5.388  16.399  0.00  0.00    +0.000 C 
ATOM      5  O   UNL     1       7.791   4.499  17.095  0.00  0.00    +0.000 OA
BRANCH   4   6
ATOM      6  O   UNL     1       6.312   5.242  15.508  0.00  0.00    +0.000 OA
BRANCH   6   7
ATOM      7  C   UNL     1       5.198   4.526  16.052  0.00  0.00    +0.000 C 
BRANCH   7   8
ATOM      8  C   UNL     1       4.430   5.527  16.913  0.00  0.00    +0.000 C 
BRANCH   8   9
ATOM      9  C   UNL     1       3.367   4.890  17.752  0.00  0.00    +0.000 A 
ATOM     10  C   UNL     1       2.848   3.637  17.401  0.00  0.00    +0.000 A 
ATOM     11  C   UNL     1       1.876   3.024  18.195  0.00  0.00    +0.000 A 
ATOM     12  C   UNL     1       1.415   3.683  19.328  0.00  0.00    +0.000 A 
ATOM     13  C   UNL     1       1.917   4.937  19.669  0.00  0.00    +0.000 A 
ATOM     14  C   UNL     1       2.886   5.547  18.890  0.00  0.00    +0.000 A 
BRANCH  13  15
ATOM     15  O   UNL     1       1.465   5.578  20.784  0.00  0.00    +0.000 OA
ATOM     16  H   UNL     1       0.623   5.987  20.501  0.00  0.00    +0.000 HD
ENDBRANCH  13  15
BRANCH  12  17
ATOM     17  O   UNL     1       0.467   3.135  20.148  0.00  0.00    +0.000 OA
ATOM     18  H   UNL     1      -0.079   3.858  20.502  0.00  0.00    +0.000 HD
ENDBRANCH  12  17
ENDBRANCH   8   9
ENDBRANCH   7   8
ENDBRANCH   6   7
ENDBRANCH   4   6
ENDBRANCH   3   4
ENDBRANCH   2   3
ENDBRANCH   1   2
BRANCH   1  19
ATOM     19  O   UNL     1       8.622   9.281  18.695  0.00  0.00    +0.000 OA
BRANCH  19  21
ATOM     20  O   UNL     1       8.367  11.371  17.784  0.00  0.00    +0.000 OA
ATOM     21  C   UNL     1       8.977  10.567  18.470  0.00  0.00    +0.000 C 
BRANCH  21  22
ATOM     22  O   UNL     1      10.177  10.771  19.062  0.00  0.00    +0.000 OA
BRANCH  22  23
ATOM     23  C   UNL     1      11.024  11.719  18.405  0.00  0.00    +0.000 C 
BRANCH  23  24
ATOM     24  C   UNL     1      11.639  12.785  19.313  0.00  0.00    +0.000 C 
BRANCH  24  25
ATOM     25  C   UNL     1      11.435  14.150  18.692  0.00  0.00    +0.000 A 
ATOM     26  C   UNL     1      12.328  14.644  17.725  0.00  0.00    +0.000 A 
ATOM     27  C   UNL     1      12.083  15.861  17.079  0.00  0.00    +0.000 A 
ATOM     28  C   UNL     1      10.939  16.580  17.393  0.00  0.00    +0.000 A 
ATOM     29  C   UNL     1      10.051  16.100  18.350  0.00  0.00    +0.000 A 
ATOM     30  C   UNL     1      10.289  14.899  19.005  0.00  0.00    +0.000 A 
BRANCH  29  31
ATOM     31  O   UNL     1       8.918  16.806  18.643  0.00  0.00    +0.000 OA
ATOM     32  H   UNL     1       8.882  17.501  17.957  0.00  0.00    +0.000 HD
ENDBRANCH  29  31
BRANCH  28  33
ATOM     33  O   UNL     1      10.633  17.764  16.779  0.00  0.00    +0.000 OA
ATOM     34  H   UNL     1      10.282  18.372  17.451  0.00  0.00    +0.000 HD
ENDBRANCH  28  33
ENDBRANCH  24  25
ENDBRANCH  23  24
ENDBRANCH  22  23
ENDBRANCH  21  22
ENDBRANCH  19  21
ENDBRANCH   1  19
TORSDOF 17
ENDMDL
MODEL 6
REMARK VINA RESULT:      -6.4      3.600      7.408
REMARK  Name = 
REMARK  17 active torsions:
REMARK  status: ('A' for Active; 'I' for Inactive)
REMARK    1  A    between atoms: C_2  and  O_3
REMARK    2  A    between atoms: C_2  and  O_20
REMARK    3  A    between atoms: O_3  and  C_4
REMARK    4  A    between atoms: C_4  and  C_5
REMARK    5  A    between atoms: C_5  and  O_6
REMARK    6  A    between atoms: O_6  and  C_7
REMARK    7  A    between atoms: C_7  and  O_9
REMARK    8  A    between atoms: O_9  and  C_10
REMARK    9  A    between atoms: C_10  and  C_11
REMARK   10  A    between atoms: C_11  and  C_12
REMARK   11  A    between atoms: C_15  and  O_16
REMARK   12  A    between atoms: C_17  and  O_18
REMARK   13  A    between atoms: O_20  and  C_21
REMARK   14  A    between atoms: C_21  and  C_22
REMARK   15  A    between atoms: C_22  and  C_23
REMARK   16  A    between atoms: C_26  and  O_27
REMARK   17  A    between atoms: C_28  and  O_29
REMARK                            x       y       z     vdW  Elec       q    Type
REMARK                         _______ _______ _______ _____ _____    ______ ____
ROOT
ATOM      1  C   UNL     1       6.779   5.007  18.817  0.00  0.00    +0.000 C 
ENDROOT
BRANCH   1   2
ATOM      2  C   UNL     1       5.410   4.450  19.173  0.00  0.00    +0.000 C 
BRANCH   2   3
ATOM      3  O   UNL     1       4.939   3.676  18.058  0.00  0.00    +0.000 OA
BRANCH   3   4
ATOM      4  C   UNL     1       3.615   3.387  18.090  0.00  0.00    +0.000 C 
ATOM      5  O   UNL     1       3.092   2.357  17.690  0.00  0.00    +0.000 OA
BRANCH   4   6
ATOM      6  O   UNL     1       2.994   4.368  18.787  0.00  0.00    +0.000 OA
BRANCH   6   7
ATOM      7  C   UNL     1       2.121   5.155  17.968  0.00  0.00    +0.000 C 
BRANCH   7   8
ATOM      8  C   UNL     1       2.819   6.499  17.773  0.00  0.00    +0.000 C 
BRANCH   8   9
ATOM      9  C   UNL     1       2.179   7.613  18.538  0.00  0.00    +0.000 A 
ATOM     10  C   UNL     1       1.674   8.733  17.863  0.00  0.00    +0.000 A 
ATOM     11  C   UNL     1       1.049   9.764  18.568  0.00  0.00    +0.000 A 
ATOM     12  C   UNL     1       0.952   9.675  19.952  0.00  0.00    +0.000 A 
ATOM     13  C   UNL     1       1.469   8.572  20.626  0.00  0.00    +0.000 A 
ATOM     14  C   UNL     1       2.084   7.542  19.932  0.00  0.00    +0.000 A 
BRANCH  13  15
ATOM     15  O   UNL     1       1.368   8.486  21.983  0.00  0.00    +0.000 OA
ATOM     16  H   UNL     1       2.031   7.811  22.231  0.00  0.00    +0.000 HD
ENDBRANCH  13  15
BRANCH  12  17
ATOM     17  O   UNL     1       0.350  10.650  20.699  0.00  0.00    +0.000 OA
ATOM     18  H   UNL     1       0.080  10.257  21.546  0.00  0.00    +0.000 HD
ENDBRANCH  12  17
ENDBRANCH   8   9
ENDBRANCH   7   8
ENDBRANCH   6   7
ENDBRANCH   4   6
ENDBRANCH   3   4
ENDBRANCH   2   3
ENDBRANCH   1   2
BRANCH   1  19
ATOM     19  O   UNL     1       6.620   6.169  17.988  0.00  0.00    +0.000 OA
BRANCH  19  21
ATOM     20  O   UNL     1       7.341   5.238  16.019  0.00  0.00    +0.000 OA
ATOM     21  C   UNL     1       7.264   6.175  16.798  0.00  0.00    +0.000 C 
BRANCH  21  22
ATOM     22  O   UNL     1       7.885   7.371  16.673  0.00  0.00    +0.000 OA
BRANCH  22  23
ATOM     23  C   UNL     1       7.566   8.329  17.686  0.00  0.00    +0.000 C 
BRANCH  23  24
ATOM     24  C   UNL     1       8.699   8.655  18.659  0.00  0.00    +0.000 C 
BRANCH  24  25
ATOM     25  C   UNL     1       8.959  10.145  18.644  0.00  0.00    +0.000 A 
ATOM     26  C   UNL     1       9.987  10.707  19.422  0.00  0.00    +0.000 A 
ATOM     27  C   UNL     1      10.292  12.071  19.330  0.00  0.00    +0.000 A 
ATOM     28  C   UNL     1       9.574  12.871  18.453  0.00  0.00    +0.000 A 
ATOM     29  C   UNL     1       8.553  12.324  17.682  0.00  0.00    +0.000 A 
ATOM     30  C   UNL     1       8.235  10.975  17.772  0.00  0.00    +0.000 A 
BRANCH  29  31
ATOM     31  O   UNL     1       7.861  13.115  16.809  0.00  0.00    +0.000 OA
ATOM     32  H   UNL     1       7.409  13.767  17.379  0.00  0.00    +0.000 HD
ENDBRANCH  29  31
BRANCH  28  33
ATOM     33  O   UNL     1       9.840  14.204  18.302  0.00  0.00    +0.000 OA
ATOM     34  H   UNL     1       9.100  14.607  17.817  0.00  0.00    +0.000 HD
ENDBRANCH  28  33
ENDBRANCH  24  25
ENDBRANCH  23  24
ENDBRANCH  22  23
ENDBRANCH  21  22
ENDBRANCH  19  21
ENDBRANCH   1  19
TORSDOF 17
ENDMDL
MODEL 7
REMARK VINA RESULT:      -6.4      1.983      4.723
REMARK  Name = 
REMARK  17 active torsions:
REMARK  status: ('A' for Active; 'I' for Inactive)
REMARK    1  A    between atoms: C_2  and  O_3
REMARK    2  A    between atoms: C_2  and  O_20
REMARK    3  A    between atoms: O_3  and  C_4
REMARK    4  A    between atoms: C_4  and  C_5
REMARK    5  A    between atoms: C_5  and  O_6
REMARK    6  A    between atoms: O_6  and  C_7
REMARK    7  A    between atoms: C_7  and  O_9
REMARK    8  A    between atoms: O_9  and  C_10
REMARK    9  A    between atoms: C_10  and  C_11
REMARK   10  A    between atoms: C_11  and  C_12
REMARK   11  A    between atoms: C_15  and  O_16
REMARK   12  A    between atoms: C_17  and  O_18
REMARK   13  A    between atoms: O_20  and  C_21
REMARK   14  A    between atoms: C_21  and  C_22
REMARK   15  A    between atoms: C_22  and  C_23
REMARK   16  A    between atoms: C_26  and  O_27
REMARK   17  A    between atoms: C_28  and  O_29
REMARK                            x       y       z     vdW  Elec       q    Type
REMARK                         _______ _______ _______ _____ _____    ______ ____
ROOT
ATOM      1  C   UNL     1       1.464   6.727  20.641  0.00  0.00    +0.000 C 
ENDROOT
BRANCH   1   2
ATOM      2  C   UNL     1       2.002   5.340  20.953  0.00  0.00    +0.000 C 
BRANCH   2   3
ATOM      3  O   UNL     1       0.980   4.382  20.635  0.00  0.00    +0.000 OA
BRANCH   3   4
ATOM      4  C   UNL     1       1.331   3.473  19.693  0.00  0.00    +0.000 C 
ATOM      5  O   UNL     1       0.597   2.635  19.190  0.00  0.00    +0.000 OA
BRANCH   4   6
ATOM      6  O   UNL     1       2.592   3.760  19.292  0.00  0.00    +0.000 OA
BRANCH   6   7
ATOM      7  C   UNL     1       3.086   2.826  18.324  0.00  0.00    +0.000 C 
BRANCH   7   8
ATOM      8  C   UNL     1       3.209   3.598  17.013  0.00  0.00    +0.000 C 
BRANCH   8   9
ATOM      9  C   UNL     1       4.357   4.557  16.997  0.00  0.00    +0.000 A 
ATOM     10  C   UNL     1       4.135   5.926  17.204  0.00  0.00    +0.000 A 
ATOM     11  C   UNL     1       5.205   6.823  17.219  0.00  0.00    +0.000 A 
ATOM     12  C   UNL     1       6.492   6.344  17.006  0.00  0.00    +0.000 A 
ATOM     13  C   UNL     1       6.712   4.987  16.783  0.00  0.00    +0.000 A 
ATOM     14  C   UNL     1       5.656   4.090  16.774  0.00  0.00    +0.000 A 
BRANCH  13  15
ATOM     15  O   UNL     1       7.977   4.520  16.580  0.00  0.00    +0.000 OA
ATOM     16  H   UNL     1       7.986   4.252  15.640  0.00  0.00    +0.000 HD
ENDBRANCH  13  15
BRANCH  12  17
ATOM     17  O   UNL     1       7.582   7.171  17.011  0.00  0.00    +0.000 OA
ATOM     18  H   UNL     1       8.104   6.976  17.808  0.00  0.00    +0.000 HD
ENDBRANCH  12  17
ENDBRANCH   8   9
ENDBRANCH   7   8
ENDBRANCH   6   7
ENDBRANCH   4   6
ENDBRANCH   3   4
ENDBRANCH   2   3
ENDBRANCH   1   2
BRANCH   1  19
ATOM     19  O   UNL     1       1.815   7.626  21.706  0.00  0.00    +0.000 OA
BRANCH  19  21
ATOM     20  O   UNL     1       1.486   9.762  22.475  0.00  0.00    +0.000 OA
ATOM     21  C   UNL     1       1.270   8.864  21.677  0.00  0.00    +0.000 C 
BRANCH  21  22
ATOM     22  O   UNL     1       0.372   8.893  20.666  0.00  0.00    +0.000 OA
BRANCH  22  23
ATOM     23  C   UNL     1      -0.362  10.115  20.542  0.00  0.00    +0.000 C 
BRANCH  23  24
ATOM     24  C   UNL     1      -0.098  10.909  19.262  0.00  0.00    +0.000 C 
BRANCH  24  25
ATOM     25  C   UNL     1      -1.354  10.930  18.418  0.00  0.00    +0.000 A 
ATOM     26  C   UNL     1      -1.529  10.018  17.362  0.00  0.00    +0.000 A 
ATOM     27  C   UNL     1      -2.733   9.972  16.648  0.00  0.00    +0.000 A 
ATOM     28  C   UNL     1      -3.763  10.834  16.994  0.00  0.00    +0.000 A 
ATOM     29  C   UNL     1      -3.597  11.742  18.035  0.00  0.00    +0.000 A 
ATOM     30  C   UNL     1      -2.404  11.803  18.745  0.00  0.00    +0.000 A 
BRANCH  29  31
ATOM     31  O   UNL     1      -4.622  12.577  18.381  0.00  0.00    +0.000 OA
ATOM     32  H   UNL     1      -4.531  13.337  17.773  0.00  0.00    +0.000 HD
ENDBRANCH  29  31
BRANCH  28  33
ATOM     33  O   UNL     1      -4.969  10.821  16.349  0.00  0.00    +0.000 OA
ATOM     34  H   UNL     1      -5.442  11.640  16.574  0.00  0.00    +0.000 HD
ENDBRANCH  28  33
ENDBRANCH  24  25
ENDBRANCH  23  24
ENDBRANCH  22  23
ENDBRANCH  21  22
ENDBRANCH  19  21
ENDBRANCH   1  19
TORSDOF 17
ENDMDL
MODEL 8
REMARK VINA RESULT:      -6.3      4.223      9.055
REMARK  Name = 
REMARK  17 active torsions:
REMARK  status: ('A' for Active; 'I' for Inactive)
REMARK    1  A    between atoms: C_2  and  O_3
REMARK    2  A    between atoms: C_2  and  O_20
REMARK    3  A    between atoms: O_3  and  C_4
REMARK    4  A    between atoms: C_4  and  C_5
REMARK    5  A    between atoms: C_5  and  O_6
REMARK    6  A    between atoms: O_6  and  C_7
REMARK    7  A    between atoms: C_7  and  O_9
REMARK    8  A    between atoms: O_9  and  C_10
REMARK    9  A    between atoms: C_10  and  C_11
REMARK   10  A    between atoms: C_11  and  C_12
REMARK   11  A    between atoms: C_15  and  O_16
REMARK   12  A    between atoms: C_17  and  O_18
REMARK   13  A    between atoms: O_20  and  C_21
REMARK   14  A    between atoms: C_21  and  C_22
REMARK   15  A    between atoms: C_22  and  C_23
REMARK   16  A    between atoms: C_26  and  O_27
REMARK   17  A    between atoms: C_28  and  O_29
REMARK                            x       y       z     vdW  Elec       q    Type
REMARK                         _______ _______ _______ _____ _____    ______ ____
ROOT
ATOM      1  C   UNL     1       4.587   7.138  17.057  0.00  0.00    +0.000 C 
ENDROOT
BRANCH   1   2
ATOM      2  C   UNL     1       5.904   6.383  16.966  0.00  0.00    +0.000 C 
BRANCH   2   3
ATOM      3  O   UNL     1       6.943   7.330  16.673  0.00  0.00    +0.000 OA
BRANCH   3   4
ATOM      4  C   UNL     1       7.725   7.657  17.732  0.00  0.00    +0.000 C 
ATOM      5  O   UNL     1       8.184   6.880  18.556  0.00  0.00    +0.000 OA
BRANCH   4   6
ATOM      6  O   UNL     1       8.039   8.970  17.623  0.00  0.00    +0.000 OA
BRANCH   6   7
ATOM      7  C   UNL     1       8.742   9.462  18.770  0.00  0.00    +0.000 C 
BRANCH   7   8
ATOM      8  C   UNL     1       9.645  10.585  18.264  0.00  0.00    +0.000 C 
BRANCH   8   9
ATOM      9  C   UNL     1       9.173  11.947  18.663  0.00  0.00    +0.000 A 
ATOM     10  C   UNL     1       9.367  12.404  19.974  0.00  0.00    +0.000 A 
ATOM     11  C   UNL     1       8.954  13.686  20.347  0.00  0.00    +0.000 A 
ATOM     12  C   UNL     1       8.330  14.495  19.405  0.00  0.00    +0.000 A 
ATOM     13  C   UNL     1       8.120  14.036  18.107  0.00  0.00    +0.000 A 
ATOM     14  C   UNL     1       8.534  12.769  17.729  0.00  0.00    +0.000 A 
BRANCH  13  15
ATOM     15  O   UNL     1       7.511  14.835  17.185  0.00  0.00    +0.000 OA
ATOM     16  H   UNL     1       8.229  15.411  16.856  0.00  0.00    +0.000 HD
ENDBRANCH  13  15
BRANCH  12  17
ATOM     17  O   UNL     1       7.905  15.760  19.707  0.00  0.00    +0.000 OA
ATOM     18  H   UNL     1       8.600  16.195  20.230  0.00  0.00    +0.000 HD
ENDBRANCH  12  17
ENDBRANCH   8   9
ENDBRANCH   7   8
ENDBRANCH   6   7
ENDBRANCH   4   6
ENDBRANCH   3   4
ENDBRANCH   2   3
ENDBRANCH   1   2
BRANCH   1  19
ATOM     19  O   UNL     1       3.791   6.581  18.116  0.00  0.00    +0.000 OA
BRANCH  19  21
ATOM     20  O   UNL     1       2.360   8.375  18.119  0.00  0.00    +0.000 OA
ATOM     21  C   UNL     1       2.807   7.358  18.625  0.00  0.00    +0.000 C 
BRANCH  21  22
ATOM     22  O   UNL     1       2.477   6.858  19.839  0.00  0.00    +0.000 OA
BRANCH  22  23
ATOM     23  C   UNL     1       1.477   5.835  19.822  0.00  0.00    +0.000 C 
BRANCH  23  24
ATOM     24  C   UNL     1       1.691   4.694  20.818  0.00  0.00    +0.000 C 
BRANCH  24  25
ATOM     25  C   UNL     1       2.298   3.509  20.098  0.00  0.00    +0.000 A 
ATOM     26  C   UNL     1       1.687   2.972  18.950  0.00  0.00    +0.000 A 
ATOM     27  C   UNL     1       2.301   1.941  18.228  0.00  0.00    +0.000 A 
ATOM     28  C   UNL     1       3.529   1.454  18.649  0.00  0.00    +0.000 A 
ATOM     29  C   UNL     1       4.140   1.977  19.785  0.00  0.00    +0.000 A 
ATOM     30  C   UNL     1       3.535   2.993  20.515  0.00  0.00    +0.000 A 
BRANCH  29  31
ATOM     31  O   UNL     1       5.357   1.503  20.184  0.00  0.00    +0.000 OA
ATOM     32  H   UNL     1       5.679   0.988  19.419  0.00  0.00    +0.000 HD
ENDBRANCH  29  31
BRANCH  28  33
ATOM     33  O   UNL     1       4.190   0.465  17.972  0.00  0.00    +0.000 OA
ATOM     34  H   UNL     1       4.455  -0.216  18.613  0.00  0.00    +0.000 HD
ENDBRANCH  28  33
ENDBRANCH  24  25
ENDBRANCH  23  24
ENDBRANCH  22  23
ENDBRANCH  21  22
ENDBRANCH  19  21
ENDBRANCH   1  19
TORSDOF 17
ENDMDL
MODEL 9
REMARK VINA RESULT:      -6.3      4.019      7.152
REMARK  Name = 
REMARK  17 active torsions:
REMARK  status: ('A' for Active; 'I' for Inactive)
REMARK    1  A    between atoms: C_2  and  O_3
REMARK    2  A    between atoms: C_2  and  O_20
REMARK    3  A    between atoms: O_3  and  C_4
REMARK    4  A    between atoms: C_4  and  C_5
REMARK    5  A    between atoms: C_5  and  O_6
REMARK    6  A    between atoms: O_6  and  C_7
REMARK    7  A    between atoms: C_7  and  O_9
REMARK    8  A    between atoms: O_9  and  C_10
REMARK    9  A    between atoms: C_10  and  C_11
REMARK   10  A    between atoms: C_11  and  C_12
REMARK   11  A    between atoms: C_15  and  O_16
REMARK   12  A    between atoms: C_17  and  O_18
REMARK   13  A    between atoms: O_20  and  C_21
REMARK   14  A    between atoms: C_21  and  C_22
REMARK   15  A    between atoms: C_22  and  C_23
REMARK   16  A    between atoms: C_26  and  O_27
REMARK   17  A    between atoms: C_28  and  O_29
REMARK                            x       y       z     vdW  Elec       q    Type
REMARK                         _______ _______ _______ _____ _____    ______ ____
ROOT
ATOM      1  C   UNL     1       6.562   4.831  17.492  0.00  0.00    +0.000 C 
ENDROOT
BRANCH   1   2
ATOM      2  C   UNL     1       5.498   5.506  18.342  0.00  0.00    +0.000 C 
BRANCH   2   3
ATOM      3  O   UNL     1       4.306   5.629  17.552  0.00  0.00    +0.000 OA
BRANCH   3   4
ATOM      4  C   UNL     1       3.573   6.742  17.803  0.00  0.00    +0.000 C 
ATOM      5  O   UNL     1       3.874   7.887  17.499  0.00  0.00    +0.000 OA
BRANCH   4   6
ATOM      6  O   UNL     1       2.380   6.346  18.305  0.00  0.00    +0.000 OA
BRANCH   6   7
ATOM      7  C   UNL     1       2.325   6.445  19.733  0.00  0.00    +0.000 C 
BRANCH   7   8
ATOM      8  C   UNL     1       1.657   5.162  20.222  0.00  0.00    +0.000 C 
BRANCH   8   9
ATOM      9  C   UNL     1       2.289   3.921  19.674  0.00  0.00    +0.000 A 
ATOM     10  C   UNL     1       1.708   3.256  18.586  0.00  0.00    +0.000 A 
ATOM     11  C   UNL     1       2.308   2.114  18.051  0.00  0.00    +0.000 A 
ATOM     12  C   UNL     1       3.478   1.632  18.626  0.00  0.00    +0.000 A 
ATOM     13  C   UNL     1       4.046   2.282  19.719  0.00  0.00    +0.000 A 
ATOM     14  C   UNL     1       3.461   3.420  20.250  0.00  0.00    +0.000 A 
BRANCH  13  15
ATOM     15  O   UNL     1       5.197   1.809  20.278  0.00  0.00    +0.000 OA
ATOM     16  H   UNL     1       4.899   1.346  21.085  0.00  0.00    +0.000 HD
ENDBRANCH  13  15
BRANCH  12  17
ATOM     17  O   UNL     1       4.115   0.520  18.148  0.00  0.00    +0.000 OA
ATOM     18  H   UNL     1       3.656   0.234  17.339  0.00  0.00    +0.000 HD
ENDBRANCH  12  17
ENDBRANCH   8   9
ENDBRANCH   7   8
ENDBRANCH   6   7
ENDBRANCH   4   6
ENDBRANCH   3   4
ENDBRANCH   2   3
ENDBRANCH   1   2
BRANCH   1  19
ATOM     19  O   UNL     1       7.457   5.827  16.969  0.00  0.00    +0.000 OA
BRANCH  19  21
ATOM     20  O   UNL     1       8.116   6.801  18.939  0.00  0.00    +0.000 OA
ATOM     21  C   UNL     1       7.760   6.871  17.773  0.00  0.00    +0.000 C 
BRANCH  21  22
ATOM     22  O   UNL     1       7.504   8.008  17.084  0.00  0.00    +0.000 OA
BRANCH  22  23
ATOM     23  C   UNL     1       7.775   9.221  17.792  0.00  0.00    +0.000 C 
BRANCH  23  24
ATOM     24  C   UNL     1       8.971   9.170  18.743  0.00  0.00    +0.000 C 
BRANCH  24  25
ATOM     25  C   UNL     1       9.448  10.579  19.023  0.00  0.00    +0.000 A 
ATOM     26  C   UNL     1       9.787  11.448  17.971  0.00  0.00    +0.000 A 
ATOM     27  C   UNL     1      10.131  12.781  18.226  0.00  0.00    +0.000 A 
ATOM     28  C   UNL     1      10.128  13.247  19.533  0.00  0.00    +0.000 A 
ATOM     29  C   UNL     1       9.797  12.392  20.581  0.00  0.00    +0.000 A 
ATOM     30  C   UNL     1       9.464  11.065  20.340  0.00  0.00    +0.000 A 
BRANCH  29  31
ATOM     31  O   UNL     1       9.782  12.862  21.863  0.00  0.00    +0.000 OA
ATOM     32  H   UNL     1       9.873  13.830  21.768  0.00  0.00    +0.000 HD
ENDBRANCH  29  31
BRANCH  28  33
ATOM     33  O   UNL     1      10.432  14.544  19.843  0.00  0.00    +0.000 OA
ATOM     34  H   UNL     1      11.292  14.553  20.297  0.00  0.00    +0.000 HD
ENDBRANCH  28  33
ENDBRANCH  24  25
ENDBRANCH  23  24
ENDBRANCH  22  23
ENDBRANCH  21  22
ENDBRANCH  19  21
ENDBRANCH   1  19
TORSDOF 17
ENDMDL
