MODEL 1
REMARK VINA RESULT:      -8.4      0.000      0.000
REMARK  Name = 
REMARK  4 active torsions:
REMARK  status: ('A' for Active; 'I' for Inactive)
REMARK    1  A    between atoms: C_1  and  C_2
REMARK    2  A    between atoms: C_2  and  C_3
REMARK    3  A    between atoms: C_11  and  C_12
REMARK    4  A    between atoms: C_15  and  N_16
REMARK                            x       y       z     vdW  Elec       q    Type
REMARK                         _______ _______ _______ _____ _____    ______ ____
ROOT
ATOM      1  C   UNL     1       5.186   3.638  19.163  0.00  0.00    +0.000 C 
ATOM      2  C   UNL     1       4.101   4.058  18.173  0.00  0.00    +0.000 C 
ATOM      3  C   UNL     1       3.101   2.930  17.926  0.00  0.00    +0.000 C 
ATOM      4  C   UNL     1       4.754   4.481  16.835  0.00  0.00    +0.000 C 
ATOM      5  O   UNL     1       5.426   3.790  16.090  0.00  0.00    +0.000 OA
ATOM      6  N   UNL     1       4.444   5.819  16.622  0.00  0.00    +0.000 N 
ATOM      7  C   UNL     1       3.660   6.331  17.643  0.00  0.00    +0.000 A 
ATOM      8  C   UNL     1       3.174   7.624  17.732  0.00  0.00    +0.000 A 
ATOM      9  C   UNL     1       2.400   7.861  18.872  0.00  0.00    +0.000 A 
ATOM     10  N   UNL     1       1.749   8.980  19.315  0.00  0.00    +0.000 N 
ATOM     11  C   UNL     1       1.130   8.698  20.512  0.00  0.00    +0.000 A 
ATOM     12  N   UNL     1       1.365   7.447  20.860  0.00  0.00    +0.000 NA
ATOM     13  C   UNL     1       2.134   6.907  19.856  0.00  0.00    +0.000 A 
ATOM     14  C   UNL     1       2.650   5.605  19.729  0.00  0.00    +0.000 A 
ATOM     15  C   UNL     1       3.416   5.340  18.598  0.00  0.00    +0.000 A 
ATOM     16  H   UNL     1       4.762   6.325  15.810  0.00  0.00    +0.000 HD
ATOM     17  H   UNL     1       1.757   9.882  18.864  0.00  0.00    +0.000 HD
ENDROOT
BRANCH  11  18
ATOM     18  C   UNL     1       0.405   9.705  21.286  0.00  0.00    +0.000 A 
ATOM     19  C   UNL     1      -0.150   9.408  22.535  0.00  0.00    +0.000 A 
ATOM     20  C   UNL     1      -0.939  10.345  23.209  0.00  0.00    +0.000 A 
ATOM     21  C   UNL     1      -1.185  11.603  22.644  0.00  0.00    +0.000 A 
ATOM     22  C   UNL     1      -0.578  11.927  21.423  0.00  0.00    +0.000 A 
ATOM     23  C   UNL     1       0.215  10.985  20.756  0.00  0.00    +0.000 A 
BRANCH  21  24
ATOM     24  N   UNL     1      -2.062  12.524  23.287  0.00  0.00    +0.000 N 
ATOM     25  C   UNL     1      -3.357  12.295  23.699  0.00  0.00    +0.000 A 
ATOM     26  C   UNL     1      -3.807  13.483  24.225  0.00  0.00    +0.000 A 
ATOM     27  N   UNL     1      -2.838  14.441  24.155  0.00  0.00    +0.000 NA
ATOM     28  C   UNL     1      -1.810  13.845  23.594  0.00  0.00    +0.000 A 
ENDBRANCH  21  24
ENDBRANCH  11  18
TORSDOF 2
ENDMDL
MODEL 2
REMARK VINA RESULT:      -8.3      0.608      1.277
REMARK  Name = 
REMARK  4 active torsions:
REMARK  status: ('A' for Active; 'I' for Inactive)
REMARK    1  A    between atoms: C_1  and  C_2
REMARK    2  A    between atoms: C_2  and  C_3
REMARK    3  A    between atoms: C_11  and  C_12
REMARK    4  A    between atoms: C_15  and  N_16
REMARK                            x       y       z     vdW  Elec       q    Type
REMARK                         _______ _______ _______ _____ _____    ______ ____
ROOT
ATOM      1  C   UNL     1       5.732   4.440  19.240  0.00  0.00    +0.000 C 
ATOM      2  C   UNL     1       4.584   4.610  18.247  0.00  0.00    +0.000 C 
ATOM      3  C   UNL     1       3.778   3.321  18.096  0.00  0.00    +0.000 C 
ATOM      4  C   UNL     1       5.147   5.039  16.871  0.00  0.00    +0.000 C 
ATOM      5  O   UNL     1       5.914   4.416  16.159  0.00  0.00    +0.000 OA
ATOM      6  N   UNL     1       4.621   6.292  16.575  0.00  0.00    +0.000 N 
ATOM      7  C   UNL     1       3.774   6.740  17.576  0.00  0.00    +0.000 A 
ATOM      8  C   UNL     1       3.086   7.940  17.589  0.00  0.00    +0.000 A 
ATOM      9  C   UNL     1       2.294   8.127  18.726  0.00  0.00    +0.000 A 
ATOM     10  N   UNL     1       1.474   9.155  19.107  0.00  0.00    +0.000 N 
ATOM     11  C   UNL     1       0.921   8.860  20.332  0.00  0.00    +0.000 A 
ATOM     12  N   UNL     1       1.359   7.690  20.758  0.00  0.00    +0.000 NA
ATOM     13  C   UNL     1       2.196   7.213  19.777  0.00  0.00    +0.000 A 
ATOM     14  C   UNL     1       2.916   6.006  19.726  0.00  0.00    +0.000 A 
ATOM     15  C   UNL     1       3.703   5.791  18.599  0.00  0.00    +0.000 A 
ATOM     16  H   UNL     1       4.845   6.785  15.725  0.00  0.00    +0.000 HD
ATOM     17  H   UNL     1       1.331  10.013  18.596  0.00  0.00    +0.000 HD
ENDROOT
BRANCH  11  18
ATOM     18  C   UNL     1       0.050   9.788  21.052  0.00  0.00    +0.000 A 
ATOM     19  C   UNL     1      -0.426  10.959  20.454  0.00  0.00    +0.000 A 
ATOM     20  C   UNL     1      -1.161  11.893  21.191  0.00  0.00    +0.000 A 
ATOM     21  C   UNL     1      -1.438  11.667  22.546  0.00  0.00    +0.000 A 
ATOM     22  C   UNL     1      -1.019  10.464  23.131  0.00  0.00    +0.000 A 
ATOM     23  C   UNL     1      -0.287   9.532  22.385  0.00  0.00    +0.000 A 
BRANCH  21  24
ATOM     24  N   UNL     1      -2.108  12.658  23.319  0.00  0.00    +0.000 N 
ATOM     25  C   UNL     1      -1.627  13.896  23.690  0.00  0.00    +0.000 A 
ATOM     26  C   UNL     1      -2.610  14.474  24.458  0.00  0.00    +0.000 A 
ATOM     27  N   UNL     1      -3.684  13.641  24.579  0.00  0.00    +0.000 NA
ATOM     28  C   UNL     1      -3.360  12.568  23.892  0.00  0.00    +0.000 A 
ENDBRANCH  21  24
ENDBRANCH  11  18
TORSDOF 2
ENDMDL
MODEL 3
REMARK VINA RESULT:      -7.8      3.610      9.968
REMARK  Name = 
REMARK  4 active torsions:
REMARK  status: ('A' for Active; 'I' for Inactive)
REMARK    1  A    between atoms: C_1  and  C_2
REMARK    2  A    between atoms: C_2  and  C_3
REMARK    3  A    between atoms: C_11  and  C_12
REMARK    4  A    between atoms: C_15  and  N_16
REMARK                            x       y       z     vdW  Elec       q    Type
REMARK                         _______ _______ _______ _____ _____    ______ ____
ROOT
ATOM      1  C   UNL     1      -3.823  12.649  24.216  0.00  0.00    +0.000 C 
ATOM      2  C   UNL     1      -2.900  13.512  23.357  0.00  0.00    +0.000 C 
ATOM      3  C   UNL     1      -1.991  14.388  24.217  0.00  0.00    +0.000 C 
ATOM      4  C   UNL     1      -3.747  14.401  22.416  0.00  0.00    +0.000 C 
ATOM      5  O   UNL     1      -4.553  15.257  22.735  0.00  0.00    +0.000 OA
ATOM      6  N   UNL     1      -3.432  14.048  21.109  0.00  0.00    +0.000 N 
ATOM      7  C   UNL     1      -2.476  13.046  21.067  0.00  0.00    +0.000 A 
ATOM      8  C   UNL     1      -1.940  12.474  19.926  0.00  0.00    +0.000 A 
ATOM      9  C   UNL     1      -0.983  11.487  20.183  0.00  0.00    +0.000 A 
ATOM     10  N   UNL     1      -0.233  10.706  19.346  0.00  0.00    +0.000 N 
ATOM     11  C   UNL     1       0.562   9.873  20.100  0.00  0.00    +0.000 A 
ATOM     12  N   UNL     1       0.346  10.081  21.386  0.00  0.00    +0.000 NA
ATOM     13  C   UNL     1      -0.593  11.083  21.461  0.00  0.00    +0.000 A 
ATOM     14  C   UNL     1      -1.165  11.687  22.594  0.00  0.00    +0.000 A 
ATOM     15  C   UNL     1      -2.113  12.680  22.365  0.00  0.00    +0.000 A 
ATOM     16  H   UNL     1      -3.861  14.491  20.311  0.00  0.00    +0.000 HD
ATOM     17  H   UNL     1      -0.284  10.705  18.340  0.00  0.00    +0.000 HD
ENDROOT
BRANCH  11  18
ATOM     18  C   UNL     1       1.436   8.862  19.508  0.00  0.00    +0.000 A 
ATOM     19  C   UNL     1       1.923   8.989  18.203  0.00  0.00    +0.000 A 
ATOM     20  C   UNL     1       2.661   7.959  17.610  0.00  0.00    +0.000 A 
ATOM     21  C   UNL     1       2.928   6.780  18.318  0.00  0.00    +0.000 A 
ATOM     22  C   UNL     1       2.497   6.676  19.647  0.00  0.00    +0.000 A 
ATOM     23  C   UNL     1       1.763   7.713  20.236  0.00  0.00    +0.000 A 
BRANCH  21  24
ATOM     24  N   UNL     1       3.601   5.696  17.684  0.00  0.00    +0.000 N 
ATOM     25  C   UNL     1       3.369   4.349  17.865  0.00  0.00    +0.000 A 
ATOM     26  C   UNL     1       4.286   3.693  17.077  0.00  0.00    +0.000 A 
ATOM     27  N   UNL     1       5.078   4.584  16.413  0.00  0.00    +0.000 NA
ATOM     28  C   UNL     1       4.650   5.768  16.792  0.00  0.00    +0.000 A 
ENDBRANCH  21  24
ENDBRANCH  11  18
TORSDOF 2
ENDMDL
MODEL 4
REMARK VINA RESULT:      -7.7      1.630      2.616
REMARK  Name = 
REMARK  4 active torsions:
REMARK  status: ('A' for Active; 'I' for Inactive)
REMARK    1  A    between atoms: C_1  and  C_2
REMARK    2  A    between atoms: C_2  and  C_3
REMARK    3  A    between atoms: C_11  and  C_12
REMARK    4  A    between atoms: C_15  and  N_16
REMARK                            x       y       z     vdW  Elec       q    Type
REMARK                         _______ _______ _______ _____ _____    ______ ____
ROOT
ATOM      1  C   UNL     1       2.901   3.335  16.749  0.00  0.00    +0.000 C 
ATOM      2  C   UNL     1       3.690   3.634  18.022  0.00  0.00    +0.000 C 
ATOM      3  C   UNL     1       5.153   3.949  17.714  0.00  0.00    +0.000 C 
ATOM      4  C   UNL     1       3.607   2.422  18.981  0.00  0.00    +0.000 C 
ATOM      5  O   UNL     1       4.008   1.290  18.778  0.00  0.00    +0.000 OA
ATOM      6  N   UNL     1       2.975   2.850  20.143  0.00  0.00    +0.000 N 
ATOM      7  C   UNL     1       2.641   4.193  20.078  0.00  0.00    +0.000 A 
ATOM      8  C   UNL     1       2.011   4.928  21.068  0.00  0.00    +0.000 A 
ATOM      9  C   UNL     1       1.805   6.270  20.732  0.00  0.00    +0.000 A 
ATOM     10  N   UNL     1       1.234   7.304  21.423  0.00  0.00    +0.000 N 
ATOM     11  C   UNL     1       1.263   8.437  20.642  0.00  0.00    +0.000 A 
ATOM     12  N   UNL     1       1.821   8.170  19.476  0.00  0.00    +0.000 NA
ATOM     13  C   UNL     1       2.176   6.843  19.515  0.00  0.00    +0.000 A 
ATOM     14  C   UNL     1       2.811   6.060  18.534  0.00  0.00    +0.000 A 
ATOM     15  C   UNL     1       3.037   4.723  18.848  0.00  0.00    +0.000 A 
ATOM     16  H   UNL     1       2.802   2.234  20.923  0.00  0.00    +0.000 HD
ATOM     17  H   UNL     1       0.816   7.240  22.338  0.00  0.00    +0.000 HD
ENDROOT
BRANCH  11  18
ATOM     18  C   UNL     1       0.667   9.705  21.062  0.00  0.00    +0.000 A 
ATOM     19  C   UNL     1       0.971  10.907  20.414  0.00  0.00    +0.000 A 
ATOM     20  C   UNL     1       0.484  12.125  20.900  0.00  0.00    +0.000 A 
ATOM     21  C   UNL     1      -0.320  12.161  22.046  0.00  0.00    +0.000 A 
ATOM     22  C   UNL     1      -0.679  10.953  22.660  0.00  0.00    +0.000 A 
ATOM     23  C   UNL     1      -0.193   9.737  22.165  0.00  0.00    +0.000 A 
BRANCH  21  24
ATOM     24  N   UNL     1      -0.740  13.407  22.593  0.00  0.00    +0.000 N 
ATOM     25  C   UNL     1      -0.171  14.646  22.384  0.00  0.00    +0.000 A 
ATOM     26  C   UNL     1      -0.893  15.532  23.148  0.00  0.00    +0.000 A 
ATOM     27  N   UNL     1      -1.890  14.890  23.824  0.00  0.00    +0.000 NA
ATOM     28  C   UNL     1      -1.777  13.628  23.476  0.00  0.00    +0.000 A 
ENDBRANCH  21  24
ENDBRANCH  11  18
TORSDOF 2
ENDMDL
MODEL 5
REMARK VINA RESULT:      -7.7      1.633      2.296
REMARK  Name = 
REMARK  4 active torsions:
REMARK  status: ('A' for Active; 'I' for Inactive)
REMARK    1  A    between atoms: C_1  and  C_2
REMARK    2  A    between atoms: C_2  and  C_3
REMARK    3  A    between atoms: C_11  and  C_12
REMARK    4  A    between atoms: C_15  and  N_16
REMARK                            x       y       z     vdW  Elec       q    Type
REMARK                         _______ _______ _______ _____ _____    ______ ____
ROOT
ATOM      1  C   UNL     1       3.077   3.518  16.664  0.00  0.00    +0.000 C 
ATOM      2  C   UNL     1       3.780   3.705  18.007  0.00  0.00    +0.000 C 
ATOM      3  C   UNL     1       5.268   4.000  17.825  0.00  0.00    +0.000 C 
ATOM      4  C   UNL     1       3.601   2.432  18.869  0.00  0.00    +0.000 C 
ATOM      5  O   UNL     1       3.989   1.306  18.613  0.00  0.00    +0.000 OA
ATOM      6  N   UNL     1       2.898   2.796  20.012  0.00  0.00    +0.000 N 
ATOM      7  C   UNL     1       2.601   4.148  20.021  0.00  0.00    +0.000 A 
ATOM      8  C   UNL     1       1.919   4.830  21.014  0.00  0.00    +0.000 A 
ATOM      9  C   UNL     1       1.769   6.197  20.762  0.00  0.00    +0.000 A 
ATOM     10  N   UNL     1       1.174   7.196  21.484  0.00  0.00    +0.000 N 
ATOM     11  C   UNL     1       1.285   8.380  20.791  0.00  0.00    +0.000 A 
ATOM     12  N   UNL     1       1.918   8.180  19.650  0.00  0.00    +0.000 NA
ATOM     13  C   UNL     1       2.239   6.843  19.618  0.00  0.00    +0.000 A 
ATOM     14  C   UNL     1       2.923   6.113  18.630  0.00  0.00    +0.000 A 
ATOM     15  C   UNL     1       3.095   4.752  18.862  0.00  0.00    +0.000 A 
ATOM     16  H   UNL     1       2.656   2.132  20.732  0.00  0.00    +0.000 HD
ATOM     17  H   UNL     1       0.691   7.081  22.361  0.00  0.00    +0.000 HD
ENDROOT
BRANCH  11  18
ATOM     18  C   UNL     1       0.691   9.631  21.259  0.00  0.00    +0.000 A 
ATOM     19  C   UNL     1      -0.063   9.689  22.436  0.00  0.00    +0.000 A 
ATOM     20  C   UNL     1      -0.722  10.865  22.809  0.00  0.00    +0.000 A 
ATOM     21  C   UNL     1      -0.635  12.010  22.007  0.00  0.00    +0.000 A 
ATOM     22  C   UNL     1       0.171  11.975  20.861  0.00  0.00    +0.000 A 
ATOM     23  C   UNL     1       0.832  10.796  20.497  0.00  0.00    +0.000 A 
BRANCH  21  24
ATOM     24  N   UNL     1      -1.378  13.179  22.338  0.00  0.00    +0.000 N 
ATOM     25  C   UNL     1      -2.264  13.863  21.532  0.00  0.00    +0.000 A 
ATOM     26  C   UNL     1      -2.699  14.940  22.267  0.00  0.00    +0.000 A 
ATOM     27  N   UNL     1      -2.115  14.951  23.501  0.00  0.00    +0.000 NA
ATOM     28  C   UNL     1      -1.335  13.894  23.518  0.00  0.00    +0.000 A 
ENDBRANCH  21  24
ENDBRANCH  11  18
TORSDOF 2
ENDMDL
MODEL 6
REMARK VINA RESULT:      -7.7      3.040      3.792
REMARK  Name = 
REMARK  4 active torsions:
REMARK  status: ('A' for Active; 'I' for Inactive)
REMARK    1  A    between atoms: C_1  and  C_2
REMARK    2  A    between atoms: C_2  and  C_3
REMARK    3  A    between atoms: C_11  and  C_12
REMARK    4  A    between atoms: C_15  and  N_16
REMARK                            x       y       z     vdW  Elec       q    Type
REMARK                         _______ _______ _______ _____ _____    ______ ____
ROOT
ATOM      1  C   UNL     1       6.068   5.488  15.795  0.00  0.00    +0.000 C 
ATOM      2  C   UNL     1       6.177   6.082  17.198  0.00  0.00    +0.000 C 
ATOM      3  C   UNL     1       7.344   7.062  17.303  0.00  0.00    +0.000 C 
ATOM      4  C   UNL     1       6.356   4.943  18.231  0.00  0.00    +0.000 C 
ATOM      5  O   UNL     1       7.272   4.143  18.298  0.00  0.00    +0.000 OA
ATOM      6  N   UNL     1       5.263   4.982  19.090  0.00  0.00    +0.000 N 
ATOM      7  C   UNL     1       4.392   6.007  18.762  0.00  0.00    +0.000 A 
ATOM      8  C   UNL     1       3.215   6.322  19.420  0.00  0.00    +0.000 A 
ATOM      9  C   UNL     1       2.538   7.417  18.875  0.00  0.00    +0.000 A 
ATOM     10  N   UNL     1       1.369   8.034  19.231  0.00  0.00    +0.000 N 
ATOM     11  C   UNL     1       1.124   9.072  18.361  0.00  0.00    +0.000 A 
ATOM     12  N   UNL     1       2.083   9.141  17.456  0.00  0.00    +0.000 NA
ATOM     13  C   UNL     1       2.973   8.139  17.762  0.00  0.00    +0.000 A 
ATOM     14  C   UNL     1       4.172   7.784  17.121  0.00  0.00    +0.000 A 
ATOM     15  C   UNL     1       4.872   6.703  17.650  0.00  0.00    +0.000 A 
ATOM     16  H   UNL     1       5.152   4.331  19.852  0.00  0.00    +0.000 HD
ATOM     17  H   UNL     1       0.758   7.749  19.981  0.00  0.00    +0.000 HD
ENDROOT
BRANCH  11  18
ATOM     18  C   UNL     1      -0.085   9.891  18.424  0.00  0.00    +0.000 A 
ATOM     19  C   UNL     1      -0.262  10.860  19.418  0.00  0.00    +0.000 A 
ATOM     20  C   UNL     1      -1.471  11.553  19.535  0.00  0.00    +0.000 A 
ATOM     21  C   UNL     1      -2.528  11.289  18.655  0.00  0.00    +0.000 A 
ATOM     22  C   UNL     1      -2.332  10.366  17.618  0.00  0.00    +0.000 A 
ATOM     23  C   UNL     1      -1.117   9.680  17.504  0.00  0.00    +0.000 A 
BRANCH  21  24
ATOM     24  N   UNL     1      -3.789  11.929  18.830  0.00  0.00    +0.000 N 
ATOM     25  C   UNL     1      -4.207  12.669  19.916  0.00  0.00    +0.000 A 
ATOM     26  C   UNL     1      -5.502  13.045  19.648  0.00  0.00    +0.000 A 
ATOM     27  N   UNL     1      -5.904  12.567  18.434  0.00  0.00    +0.000 NA
ATOM     28  C   UNL     1      -4.867  11.907  17.969  0.00  0.00    +0.000 A 
ENDBRANCH  21  24
ENDBRANCH  11  18
TORSDOF 2
ENDMDL
MODEL 7
REMARK VINA RESULT:      -7.7      3.486      9.851
REMARK  Name = 
REMARK  4 active torsions:
REMARK  status: ('A' for Active; 'I' for Inactive)
REMARK    1  A    between atoms: C_1  and  C_2
REMARK    2  A    between atoms: C_2  and  C_3
REMARK    3  A    between atoms: C_11  and  C_12
REMARK    4  A    between atoms: C_15  and  N_16
REMARK                            x       y       z     vdW  Elec       q    Type
REMARK                         _______ _______ _______ _____ _____    ______ ____
ROOT
ATOM      1  C   UNL     1      -3.427  12.308  23.756  0.00  0.00    +0.000 C 
ATOM      2  C   UNL     1      -2.515  13.136  22.852  0.00  0.00    +0.000 C 
ATOM      3  C   UNL     1      -1.606  14.056  23.664  0.00  0.00    +0.000 C 
ATOM      4  C   UNL     1      -3.375  13.977  21.878  0.00  0.00    +0.000 C 
ATOM      5  O   UNL     1      -4.184  14.842  22.164  0.00  0.00    +0.000 OA
ATOM      6  N   UNL     1      -3.067  13.567  20.586  0.00  0.00    +0.000 N 
ATOM      7  C   UNL     1      -2.105  12.570  20.582  0.00  0.00    +0.000 A 
ATOM      8  C   UNL     1      -1.574  11.950  19.464  0.00  0.00    +0.000 A 
ATOM      9  C   UNL     1      -0.609  10.981  19.758  0.00  0.00    +0.000 A 
ATOM     10  N   UNL     1       0.140  10.167  18.953  0.00  0.00    +0.000 N 
ATOM     11  C   UNL     1       0.946   9.374  19.738  0.00  0.00    +0.000 A 
ATOM     12  N   UNL     1       0.738   9.639  21.014  0.00  0.00    +0.000 NA
ATOM     13  C   UNL     1      -0.207  10.637  21.050  0.00  0.00    +0.000 A 
ATOM     14  C   UNL     1      -0.775  11.289  22.159  0.00  0.00    +0.000 A 
ATOM     15  C   UNL     1      -1.731  12.265  21.893  0.00  0.00    +0.000 A 
ATOM     16  H   UNL     1      -3.504  13.970  19.771  0.00  0.00    +0.000 HD
ATOM     17  H   UNL     1       0.081  10.120  17.947  0.00  0.00    +0.000 HD
ENDROOT
BRANCH  11  18
ATOM     18  C   UNL     1       1.822   8.342  19.185  0.00  0.00    +0.000 A 
ATOM     19  C   UNL     1       2.169   7.205  19.923  0.00  0.00    +0.000 A 
ATOM     20  C   UNL     1       3.099   6.286  19.427  0.00  0.00    +0.000 A 
ATOM     21  C   UNL     1       3.698   6.488  18.176  0.00  0.00    +0.000 A 
ATOM     22  C   UNL     1       3.303   7.591  17.407  0.00  0.00    +0.000 A 
ATOM     23  C   UNL     1       2.368   8.504  17.908  0.00  0.00    +0.000 A 
BRANCH  21  24
ATOM     24  N   UNL     1       4.710   5.601  17.711  0.00  0.00    +0.000 N 
ATOM     25  C   UNL     1       5.973   5.425  18.235  0.00  0.00    +0.000 A 
ATOM     26  C   UNL     1       6.597   4.501  17.431  0.00  0.00    +0.000 A 
ATOM     27  N   UNL     1       5.768   4.096  16.425  0.00  0.00    +0.000 NA
ATOM     28  C   UNL     1       4.653   4.764  16.615  0.00  0.00    +0.000 A 
ENDBRANCH  21  24
ENDBRANCH  11  18
TORSDOF 2
ENDMDL
MODEL 8
REMARK VINA RESULT:      -7.7      3.260      9.902
REMARK  Name = 
REMARK  4 active torsions:
REMARK  status: ('A' for Active; 'I' for Inactive)
REMARK    1  A    between atoms: C_1  and  C_2
REMARK    2  A    between atoms: C_2  and  C_3
REMARK    3  A    between atoms: C_11  and  C_12
REMARK    4  A    between atoms: C_15  and  N_16
REMARK                            x       y       z     vdW  Elec       q    Type
REMARK                         _______ _______ _______ _____ _____    ______ ____
ROOT
ATOM      1  C   UNL     1      -1.317  14.352  21.663  0.00  0.00    +0.000 C 
ATOM      2  C   UNL     1      -2.101  13.045  21.748  0.00  0.00    +0.000 C 
ATOM      3  C   UNL     1      -3.372  13.097  20.902  0.00  0.00    +0.000 C 
ATOM      4  C   UNL     1      -2.466  12.753  23.223  0.00  0.00    +0.000 C 
ATOM      5  O   UNL     1      -3.159  13.431  23.961  0.00  0.00    +0.000 OA
ATOM      6  N   UNL     1      -1.850  11.558  23.579  0.00  0.00    +0.000 N 
ATOM      7  C   UNL     1      -1.134  11.018  22.523  0.00  0.00    +0.000 A 
ATOM      8  C   UNL     1      -0.413   9.837  22.542  0.00  0.00    +0.000 A 
ATOM      9  C   UNL     1       0.205   9.531  21.326  0.00  0.00    +0.000 A 
ATOM     10  N   UNL     1       0.985   8.474  20.941  0.00  0.00    +0.000 N 
ATOM     11  C   UNL     1       1.362   8.646  19.629  0.00  0.00    +0.000 A 
ATOM     12  N   UNL     1       0.863   9.774  19.158  0.00  0.00    +0.000 NA
ATOM     13  C   UNL     1       0.135  10.329  20.184  0.00  0.00    +0.000 A 
ATOM     14  C   UNL     1      -0.605  11.525  20.207  0.00  0.00    +0.000 A 
ATOM     15  C   UNL     1      -1.240  11.847  21.403  0.00  0.00    +0.000 A 
ATOM     16  H   UNL     1      -1.938  11.158  24.500  0.00  0.00    +0.000 HD
ATOM     17  H   UNL     1       1.278   7.713  21.534  0.00  0.00    +0.000 HD
ENDROOT
BRANCH  11  18
ATOM     18  C   UNL     1       2.259   7.724  18.934  0.00  0.00    +0.000 A 
ATOM     19  C   UNL     1       2.499   6.433  19.417  0.00  0.00    +0.000 A 
ATOM     20  C   UNL     1       3.447   5.605  18.808  0.00  0.00    +0.000 A 
ATOM     21  C   UNL     1       4.173   6.055  17.698  0.00  0.00    +0.000 A 
ATOM     22  C   UNL     1       3.888   7.323  17.172  0.00  0.00    +0.000 A 
ATOM     23  C   UNL     1       2.934   8.145  17.784  0.00  0.00    +0.000 A 
BRANCH  21  24
ATOM     24  N   UNL     1       5.201   5.248  17.133  0.00  0.00    +0.000 N 
ATOM     25  C   UNL     1       6.563   5.397  17.291  0.00  0.00    +0.000 A 
ATOM     26  C   UNL     1       7.147   4.414  16.528  0.00  0.00    +0.000 A 
ATOM     27  N   UNL     1       6.199   3.659  15.902  0.00  0.00    +0.000 NA
ATOM     28  C   UNL     1       5.051   4.175  16.278  0.00  0.00    +0.000 A 
ENDBRANCH  21  24
ENDBRANCH  11  18
TORSDOF 2
ENDMDL
MODEL 9
REMARK VINA RESULT:      -7.5      3.651      9.940
REMARK  Name = 
REMARK  4 active torsions:
REMARK  status: ('A' for Active; 'I' for Inactive)
REMARK    1  A    between atoms: C_1  and  C_2
REMARK    2  A    between atoms: C_2  and  C_3
REMARK    3  A    between atoms: C_11  and  C_12
REMARK    4  A    between atoms: C_15  and  N_16
REMARK                            x       y       z     vdW  Elec       q    Type
REMARK                         _______ _______ _______ _____ _____    ______ ____
ROOT
ATOM      1  C   UNL     1      -4.014  12.919  24.332  0.00  0.00    +0.000 C 
ATOM      2  C   UNL     1      -2.975  13.693  23.523  0.00  0.00    +0.000 C 
ATOM      3  C   UNL     1      -2.045  14.498  24.429  0.00  0.00    +0.000 C 
ATOM      4  C   UNL     1      -3.690  14.641  22.531  0.00  0.00    +0.000 C 
ATOM      5  O   UNL     1      -4.438  15.565  22.801  0.00  0.00    +0.000 OA
ATOM      6  N   UNL     1      -3.332  14.251  21.246  0.00  0.00    +0.000 N 
ATOM      7  C   UNL     1      -2.463  13.172  21.263  0.00  0.00    +0.000 A 
ATOM      8  C   UNL     1      -1.914  12.547  20.157  0.00  0.00    +0.000 A 
ATOM      9  C   UNL     1      -1.059  11.486  20.473  0.00  0.00    +0.000 A 
ATOM     10  N   UNL     1      -0.331  10.637  19.684  0.00  0.00    +0.000 N 
ATOM     11  C   UNL     1       0.348   9.748  20.486  0.00  0.00    +0.000 A 
ATOM     12  N   UNL     1       0.078   9.985  21.757  0.00  0.00    +0.000 NA
ATOM     13  C   UNL     1      -0.777  11.062  21.773  0.00  0.00    +0.000 A 
ATOM     14  C   UNL     1      -1.359  11.723  22.869  0.00  0.00    +0.000 A 
ATOM     15  C   UNL     1      -2.206  12.789  22.582  0.00  0.00    +0.000 A 
ATOM     16  H   UNL     1      -3.677  14.720  20.423  0.00  0.00    +0.000 HD
ATOM     17  H   UNL     1      -0.325  10.631  18.676  0.00  0.00    +0.000 HD
ENDROOT
BRANCH  11  18
ATOM     18  C   UNL     1       1.166   8.661  19.950  0.00  0.00    +0.000 A 
ATOM     19  C   UNL     1       1.444   7.515  20.701  0.00  0.00    +0.000 A 
ATOM     20  C   UNL     1       2.322   6.538  20.219  0.00  0.00    +0.000 A 
ATOM     21  C   UNL     1       2.937   6.692  18.970  0.00  0.00    +0.000 A 
ATOM     22  C   UNL     1       2.610   7.807  18.187  0.00  0.00    +0.000 A 
ATOM     23  C   UNL     1       1.726   8.778  18.674  0.00  0.00    +0.000 A 
BRANCH  21  24
ATOM     24  N   UNL     1       3.900   5.743  18.519  0.00  0.00    +0.000 N 
ATOM     25  C   UNL     1       4.998   5.274  19.209  0.00  0.00    +0.000 A 
ATOM     26  C   UNL     1       5.646   4.413  18.356  0.00  0.00    +0.000 A 
ATOM     27  N   UNL     1       4.991   4.328  17.162  0.00  0.00    +0.000 NA
ATOM     28  C   UNL     1       3.956   5.129  17.285  0.00  0.00    +0.000 A 
ENDBRANCH  21  24
ENDBRANCH  11  18
TORSDOF 2
ENDMDL
