MODEL 1
REMARK VINA RESULT:      -6.6      0.000      0.000
REMARK  Name = 
REMARK  3 active torsions:
REMARK  status: ('A' for Active; 'I' for Inactive)
REMARK    1  A    between atoms: C_1  and  N_2
REMARK    2  A    between atoms: N_5  and  C_6
REMARK    3  A    between atoms: N_14  and  C_15
REMARK                            x       y       z     vdW  Elec       q    Type
REMARK                         _______ _______ _______ _____ _____    ______ ____
ROOT
ATOM      1  C   UNL     1       7.593   4.727  17.228  0.00  0.00    +0.000 C 
ATOM      2  N   UNL     1       6.173   4.660  17.468  0.00  0.00    +0.000 N 
ATOM      3  C   UNL     1       5.567   4.556  18.734  0.00  0.00    +0.000 A 
ATOM      4  O   UNL     1       6.125   4.853  19.784  0.00  0.00    +0.000 OA
ATOM      5  N   UNL     1       4.300   4.000  18.541  0.00  0.00    +0.000 N 
ATOM      6  C   UNL     1       4.143   3.720  17.184  0.00  0.00    +0.000 A 
ATOM      7  O   UNL     1       3.132   3.382  16.583  0.00  0.00    +0.000 OA
ATOM      8  N   UNL     1       5.365   3.994  16.552  0.00  0.00    +0.000 N 
ATOM      9  C   UNL     1       5.491   4.290  15.148  0.00  0.00    +0.000 C 
ENDROOT
BRANCH   5  10
ATOM     10  C   UNL     1       3.316   3.774  19.541  0.00  0.00    +0.000 A 
ATOM     11  C   UNL     1       2.173   4.580  19.654  0.00  0.00    +0.000 A 
ATOM     12  C   UNL     1       1.193   4.319  20.622  0.00  0.00    +0.000 A 
ATOM     13  C   UNL     1       1.346   3.256  21.508  0.00  0.00    +0.000 A 
ATOM     14  C   UNL     1       2.481   2.460  21.433  0.00  0.00    +0.000 A 
ATOM     15  C   UNL     1       3.451   2.717  20.459  0.00  0.00    +0.000 A 
ENDBRANCH   5  10
TORSDOF 1
ENDMDL
MODEL 2
REMARK VINA RESULT:      -6.6      0.070      1.241
REMARK  Name = 
REMARK  3 active torsions:
REMARK  status: ('A' for Active; 'I' for Inactive)
REMARK    1  A    between atoms: C_1  and  N_2
REMARK    2  A    between atoms: N_5  and  C_6
REMARK    3  A    between atoms: N_14  and  C_15
REMARK                            x       y       z     vdW  Elec       q    Type
REMARK                         _______ _______ _______ _____ _____    ______ ____
ROOT
ATOM      1  C   UNL     1       7.572   4.817  17.223  0.00  0.00    +0.000 C 
ATOM      2  N   UNL     1       6.157   4.707  17.472  0.00  0.00    +0.000 N 
ATOM      3  C   UNL     1       5.564   4.557  18.740  0.00  0.00    +0.000 A 
ATOM      4  O   UNL     1       6.123   4.842  19.792  0.00  0.00    +0.000 OA
ATOM      5  N   UNL     1       4.311   3.972  18.543  0.00  0.00    +0.000 N 
ATOM      6  C   UNL     1       4.149   3.722  17.180  0.00  0.00    +0.000 A 
ATOM      7  O   UNL     1       3.142   3.373  16.579  0.00  0.00    +0.000 OA
ATOM      8  N   UNL     1       5.358   4.043  16.546  0.00  0.00    +0.000 N 
ATOM      9  C   UNL     1       5.465   4.377  15.149  0.00  0.00    +0.000 C 
ENDROOT
BRANCH   5  10
ATOM     10  C   UNL     1       3.341   3.697  19.545  0.00  0.00    +0.000 A 
ATOM     11  C   UNL     1       3.505   2.657  20.472  0.00  0.00    +0.000 A 
ATOM     12  C   UNL     1       2.556   2.424  21.478  0.00  0.00    +0.000 A 
ATOM     13  C   UNL     1       1.415   3.217  21.564  0.00  0.00    +0.000 A 
ATOM     14  C   UNL     1       1.218   4.236  20.642  0.00  0.00    +0.000 A 
ATOM     15  C   UNL     1       2.171   4.472  19.647  0.00  0.00    +0.000 A 
ENDBRANCH   5  10
TORSDOF 1
ENDMDL
MODEL 3
REMARK VINA RESULT:      -6.6      0.052      2.233
REMARK  Name = 
REMARK  3 active torsions:
REMARK  status: ('A' for Active; 'I' for Inactive)
REMARK    1  A    between atoms: C_1  and  N_2
REMARK    2  A    between atoms: N_5  and  C_6
REMARK    3  A    between atoms: N_14  and  C_15
REMARK                            x       y       z     vdW  Elec       q    Type
REMARK                         _______ _______ _______ _____ _____    ______ ____
ROOT
ATOM      1  C   UNL     1       5.531   4.327  15.130  0.00  0.00    +0.000 C 
ATOM      2  N   UNL     1       5.364   4.015  16.528  0.00  0.00    +0.000 N 
ATOM      3  C   UNL     1       4.140   3.702  17.149  0.00  0.00    +0.000 A 
ATOM      4  O   UNL     1       3.146   3.321  16.544  0.00  0.00    +0.000 OA
ATOM      5  N   UNL     1       4.285   3.983  18.510  0.00  0.00    +0.000 N 
ATOM      6  C   UNL     1       5.561   4.506  18.720  0.00  0.00    +0.000 A 
ATOM      7  O   UNL     1       6.135   4.727  19.779  0.00  0.00    +0.000 OA
ATOM      8  N   UNL     1       6.166   4.662  17.464  0.00  0.00    +0.000 N 
ATOM      9  C   UNL     1       7.591   4.713  17.263  0.00  0.00    +0.000 C 
ENDROOT
BRANCH   5  10
ATOM     10  C   UNL     1       3.318   3.757  19.526  0.00  0.00    +0.000 A 
ATOM     11  C   UNL     1       2.171   4.555  19.653  0.00  0.00    +0.000 A 
ATOM     12  C   UNL     1       1.208   4.294  20.638  0.00  0.00    +0.000 A 
ATOM     13  C   UNL     1       1.383   3.237  21.527  0.00  0.00    +0.000 A 
ATOM     14  C   UNL     1       2.522   2.448  21.439  0.00  0.00    +0.000 A 
ATOM     15  C   UNL     1       3.475   2.706  20.448  0.00  0.00    +0.000 A 
ENDBRANCH   5  10
TORSDOF 1
ENDMDL
MODEL 4
REMARK VINA RESULT:      -6.5      0.070      2.554
REMARK  Name = 
REMARK  3 active torsions:
REMARK  status: ('A' for Active; 'I' for Inactive)
REMARK    1  A    between atoms: C_1  and  N_2
REMARK    2  A    between atoms: N_5  and  C_6
REMARK    3  A    between atoms: N_14  and  C_15
REMARK                            x       y       z     vdW  Elec       q    Type
REMARK                         _______ _______ _______ _____ _____    ______ ____
ROOT
ATOM      1  C   UNL     1       5.528   4.361  15.129  0.00  0.00    +0.000 C 
ATOM      2  N   UNL     1       5.361   4.028  16.522  0.00  0.00    +0.000 N 
ATOM      3  C   UNL     1       4.139   3.696  17.136  0.00  0.00    +0.000 A 
ATOM      4  O   UNL     1       3.149   3.314  16.524  0.00  0.00    +0.000 OA
ATOM      5  N   UNL     1       4.278   3.960  18.501  0.00  0.00    +0.000 N 
ATOM      6  C   UNL     1       5.549   4.491  18.721  0.00  0.00    +0.000 A 
ATOM      7  O   UNL     1       6.118   4.702  19.784  0.00  0.00    +0.000 OA
ATOM      8  N   UNL     1       6.155   4.669  17.468  0.00  0.00    +0.000 N 
ATOM      9  C   UNL     1       7.580   4.736  17.271  0.00  0.00    +0.000 C 
ENDROOT
BRANCH   5  10
ATOM     10  C   UNL     1       3.311   3.711  19.512  0.00  0.00    +0.000 A 
ATOM     11  C   UNL     1       3.455   2.668  20.439  0.00  0.00    +0.000 A 
ATOM     12  C   UNL     1       2.510   2.461  21.454  0.00  0.00    +0.000 A 
ATOM     13  C   UNL     1       1.392   3.284  21.550  0.00  0.00    +0.000 A 
ATOM     14  C   UNL     1       1.213   4.308  20.629  0.00  0.00    +0.000 A 
ATOM     15  C   UNL     1       2.163   4.517  19.624  0.00  0.00    +0.000 A 
ENDBRANCH   5  10
TORSDOF 1
ENDMDL
MODEL 5
REMARK VINA RESULT:      -6.5      1.772      5.013
REMARK  Name = 
REMARK  3 active torsions:
REMARK  status: ('A' for Active; 'I' for Inactive)
REMARK    1  A    between atoms: C_1  and  N_2
REMARK    2  A    between atoms: N_5  and  C_6
REMARK    3  A    between atoms: N_14  and  C_15
REMARK                            x       y       z     vdW  Elec       q    Type
REMARK                         _______ _______ _______ _____ _____    ______ ____
ROOT
ATOM      1  C   UNL     1       2.842   2.601  21.451  0.00  0.00    +0.000 C 
ATOM      2  N   UNL     1       2.881   2.853  20.032  0.00  0.00    +0.000 N 
ATOM      3  C   UNL     1       4.007   3.305  19.317  0.00  0.00    +0.000 A 
ATOM      4  O   UNL     1       5.157   3.210  19.727  0.00  0.00    +0.000 OA
ATOM      5  N   UNL     1       3.538   3.916  18.152  0.00  0.00    +0.000 N 
ATOM      6  C   UNL     1       2.143   3.885  18.167  0.00  0.00    +0.000 A 
ATOM      7  O   UNL     1       1.360   4.166  17.269  0.00  0.00    +0.000 OA
ATOM      8  N   UNL     1       1.746   3.360  19.405  0.00  0.00    +0.000 N 
ATOM      9  C   UNL     1       0.469   2.735  19.637  0.00  0.00    +0.000 C 
ENDROOT
BRANCH   5  10
ATOM     10  C   UNL     1       4.331   4.458  17.105  0.00  0.00    +0.000 A 
ATOM     11  C   UNL     1       4.992   3.643  16.174  0.00  0.00    +0.000 A 
ATOM     12  C   UNL     1       5.739   4.196  15.124  0.00  0.00    +0.000 A 
ATOM     13  C   UNL     1       5.854   5.578  14.996  0.00  0.00    +0.000 A 
ATOM     14  C   UNL     1       5.230   6.406  15.920  0.00  0.00    +0.000 A 
ATOM     15  C   UNL     1       4.477   5.850  16.960  0.00  0.00    +0.000 A 
ENDBRANCH   5  10
TORSDOF 1
ENDMDL
MODEL 6
REMARK VINA RESULT:      -6.5      1.766      4.897
REMARK  Name = 
REMARK  3 active torsions:
REMARK  status: ('A' for Active; 'I' for Inactive)
REMARK    1  A    between atoms: C_1  and  N_2
REMARK    2  A    between atoms: N_5  and  C_6
REMARK    3  A    between atoms: N_14  and  C_15
REMARK                            x       y       z     vdW  Elec       q    Type
REMARK                         _______ _______ _______ _____ _____    ______ ____
ROOT
ATOM      1  C   UNL     1       2.819   2.670  21.486  0.00  0.00    +0.000 C 
ATOM      2  N   UNL     1       2.862   2.903  20.064  0.00  0.00    +0.000 N 
ATOM      3  C   UNL     1       3.980   3.374  19.352  0.00  0.00    +0.000 A 
ATOM      4  O   UNL     1       5.130   3.316  19.770  0.00  0.00    +0.000 OA
ATOM      5  N   UNL     1       3.504   3.957  18.175  0.00  0.00    +0.000 N 
ATOM      6  C   UNL     1       2.111   3.889  18.180  0.00  0.00    +0.000 A 
ATOM      7  O   UNL     1       1.327   4.137  17.273  0.00  0.00    +0.000 OA
ATOM      8  N   UNL     1       1.719   3.371  19.423  0.00  0.00    +0.000 N 
ATOM      9  C   UNL     1       0.457   2.715  19.654  0.00  0.00    +0.000 C 
ENDROOT
BRANCH   5  10
ATOM     10  C   UNL     1       4.291   4.506  17.126  0.00  0.00    +0.000 A 
ATOM     11  C   UNL     1       4.431   5.891  16.948  0.00  0.00    +0.000 A 
ATOM     12  C   UNL     1       5.242   6.414  15.931  0.00  0.00    +0.000 A 
ATOM     13  C   UNL     1       5.916   5.561  15.061  0.00  0.00    +0.000 A 
ATOM     14  C   UNL     1       5.773   4.187  15.201  0.00  0.00    +0.000 A 
ATOM     15  C   UNL     1       4.971   3.669  16.223  0.00  0.00    +0.000 A 
ENDBRANCH   5  10
TORSDOF 1
ENDMDL
MODEL 7
REMARK VINA RESULT:      -6.5      1.763      5.428
REMARK  Name = 
REMARK  3 active torsions:
REMARK  status: ('A' for Active; 'I' for Inactive)
REMARK    1  A    between atoms: C_1  and  N_2
REMARK    2  A    between atoms: N_5  and  C_6
REMARK    3  A    between atoms: N_14  and  C_15
REMARK                            x       y       z     vdW  Elec       q    Type
REMARK                         _______ _______ _______ _____ _____    ______ ____
ROOT
ATOM      1  C   UNL     1       0.513   2.649  19.584  0.00  0.00    +0.000 C 
ATOM      2  N   UNL     1       1.776   3.291  19.320  0.00  0.00    +0.000 N 
ATOM      3  C   UNL     1       2.164   3.844  18.085  0.00  0.00    +0.000 A 
ATOM      4  O   UNL     1       1.377   4.157  17.200  0.00  0.00    +0.000 OA
ATOM      5  N   UNL     1       3.561   3.876  18.068  0.00  0.00    +0.000 N 
ATOM      6  C   UNL     1       4.030   3.310  19.253  0.00  0.00    +0.000 A 
ATOM      7  O   UNL     1       5.171   3.295  19.696  0.00  0.00    +0.000 OA
ATOM      8  N   UNL     1       2.920   2.815  19.953  0.00  0.00    +0.000 N 
ATOM      9  C   UNL     1       2.904   2.598  21.377  0.00  0.00    +0.000 C 
ENDROOT
BRANCH   5  10
ATOM     10  C   UNL     1       4.380   4.415  17.039  0.00  0.00    +0.000 A 
ATOM     11  C   UNL     1       5.095   3.596  16.152  0.00  0.00    +0.000 A 
ATOM     12  C   UNL     1       5.869   4.144  15.119  0.00  0.00    +0.000 A 
ATOM     13  C   UNL     1       5.956   5.525  14.965  0.00  0.00    +0.000 A 
ATOM     14  C   UNL     1       5.278   6.358  15.846  0.00  0.00    +0.000 A 
ATOM     15  C   UNL     1       4.499   5.806  16.868  0.00  0.00    +0.000 A 
ENDBRANCH   5  10
TORSDOF 1
ENDMDL
MODEL 8
REMARK VINA RESULT:      -6.5      1.767      5.315
REMARK  Name = 
REMARK  3 active torsions:
REMARK  status: ('A' for Active; 'I' for Inactive)
REMARK    1  A    between atoms: C_1  and  N_2
REMARK    2  A    between atoms: N_5  and  C_6
REMARK    3  A    between atoms: N_14  and  C_15
REMARK                            x       y       z     vdW  Elec       q    Type
REMARK                         _______ _______ _______ _____ _____    ______ ____
ROOT
ATOM      1  C   UNL     1       0.475   2.749  19.693  0.00  0.00    +0.000 C 
ATOM      2  N   UNL     1       1.748   3.364  19.407  0.00  0.00    +0.000 N 
ATOM      3  C   UNL     1       2.120   3.921  18.170  0.00  0.00    +0.000 A 
ATOM      4  O   UNL     1       1.321   4.264  17.307  0.00  0.00    +0.000 OA
ATOM      5  N   UNL     1       3.516   3.920  18.121  0.00  0.00    +0.000 N 
ATOM      6  C   UNL     1       3.999   3.329  19.288  0.00  0.00    +0.000 A 
ATOM      7  O   UNL     1       5.149   3.280  19.704  0.00  0.00    +0.000 OA
ATOM      8  N   UNL     1       2.894   2.853  20.009  0.00  0.00    +0.000 N 
ATOM      9  C   UNL     1       2.906   2.618  21.430  0.00  0.00    +0.000 C 
ENDROOT
BRANCH   5  10
ATOM     10  C   UNL     1       4.325   4.451  17.080  0.00  0.00    +0.000 A 
ATOM     11  C   UNL     1       4.467   5.832  16.879  0.00  0.00    +0.000 A 
ATOM     12  C   UNL     1       5.300   6.338  15.871  0.00  0.00    +0.000 A 
ATOM     13  C   UNL     1       5.994   5.471  15.032  0.00  0.00    +0.000 A 
ATOM     14  C   UNL     1       5.849   4.099  15.194  0.00  0.00    +0.000 A 
ATOM     15  C   UNL     1       5.026   3.598  16.207  0.00  0.00    +0.000 A 
ENDBRANCH   5  10
TORSDOF 1
ENDMDL
MODEL 9
REMARK VINA RESULT:      -6.4      1.619      5.199
REMARK  Name = 
REMARK  3 active torsions:
REMARK  status: ('A' for Active; 'I' for Inactive)
REMARK    1  A    between atoms: C_1  and  N_2
REMARK    2  A    between atoms: N_5  and  C_6
REMARK    3  A    between atoms: N_14  and  C_15
REMARK                            x       y       z     vdW  Elec       q    Type
REMARK                         _______ _______ _______ _____ _____    ______ ____
ROOT
ATOM      1  C   UNL     1       0.815   4.518  20.296  0.00  0.00    +0.000 C 
ATOM      2  N   UNL     1       2.217   4.303  20.040  0.00  0.00    +0.000 N 
ATOM      3  C   UNL     1       2.928   4.811  18.936  0.00  0.00    +0.000 A 
ATOM      4  O   UNL     1       2.550   5.758  18.258  0.00  0.00    +0.000 OA
ATOM      5  N   UNL     1       4.046   3.992  18.754  0.00  0.00    +0.000 N 
ATOM      6  C   UNL     1       4.002   2.968  19.700  0.00  0.00    +0.000 A 
ATOM      7  O   UNL     1       4.865   2.146  19.981  0.00  0.00    +0.000 OA
ATOM      8  N   UNL     1       2.788   3.084  20.392  0.00  0.00    +0.000 N 
ATOM      9  C   UNL     1       2.565   2.552  21.712  0.00  0.00    +0.000 C 
ENDROOT
BRANCH   5  10
ATOM     10  C   UNL     1       5.076   4.172  17.793  0.00  0.00    +0.000 A 
ATOM     11  C   UNL     1       4.891   3.861  16.437  0.00  0.00    +0.000 A 
ATOM     12  C   UNL     1       5.907   4.081  15.496  0.00  0.00    +0.000 A 
ATOM     13  C   UNL     1       7.135   4.602  15.896  0.00  0.00    +0.000 A 
ATOM     14  C   UNL     1       7.351   4.894  17.236  0.00  0.00    +0.000 A 
ATOM     15  C   UNL     1       6.332   4.682  18.170  0.00  0.00    +0.000 A 
ENDBRANCH   5  10
TORSDOF 1
ENDMDL
