MODEL 1
REMARK VINA RESULT:      -7.7      0.000      0.000
REMARK  Name = 
REMARK  7 active torsions:
REMARK  status: ('A' for Active; 'I' for Inactive)
REMARK    1  A    between atoms: C_1  and  N_2
REMARK    2  A    between atoms: N_2  and  C_3
REMARK    3  A    between atoms: N_2  and  C_4
REMARK    4  A    between atoms: C_4  and  C_5
REMARK    5  A    between atoms: C_7  and  O_8
REMARK    6  A    between atoms: C_19  and  C_20
REMARK    7  A    between atoms: C_19  and  C_21
REMARK                            x       y       z     vdW  Elec       q    Type
REMARK                         _______ _______ _______ _____ _____    ______ ____
ROOT
ATOM      1  C   UNL     1       1.960   7.068  20.125  0.00  0.00    +0.000 A 
ATOM      2  N   UNL     1       1.451   6.047  20.826  0.00  0.00    +0.000 NA
ATOM      3  C   UNL     1       1.785   4.830  20.389  0.00  0.00    +0.000 A 
ATOM      4  C   UNL     1       2.580   4.534  19.297  0.00  0.00    +0.000 A 
ATOM      5  C   UNL     1       3.057   5.660  18.645  0.00  0.00    +0.000 A 
ATOM      6  N   UNL     1       2.753   6.922  19.050  0.00  0.00    +0.000 NA
ATOM      7  C   UNL     1       3.942   5.563  17.473  0.00  0.00    +0.000 A 
ATOM      8  C   UNL     1       4.452   6.706  16.824  0.00  0.00    +0.000 A 
ATOM      9  C   UNL     1       5.279   6.608  15.700  0.00  0.00    +0.000 A 
ATOM     10  C   UNL     1       5.623   5.359  15.201  0.00  0.00    +0.000 A 
ATOM     11  C   UNL     1       5.138   4.216  15.826  0.00  0.00    +0.000 A 
ATOM     12  C   UNL     1       4.303   4.309  16.957  0.00  0.00    +0.000 A 
ATOM     13  C   UNL     1       3.761   3.033  17.540  0.00  0.00    +0.000 C 
ATOM     14  C   UNL     1       2.932   3.120  18.863  0.00  0.00    +0.000 C 
ATOM     15  C   UNL     1       3.759   2.433  19.976  0.00  0.00    +0.000 C 
ATOM     16  C   UNL     1       1.642   2.298  18.616  0.00  0.00    +0.000 C 
ENDROOT
BRANCH   3  17
ATOM     17  O   UNL     1       1.256   3.864  21.180  0.00  0.00    +0.000 OA
ATOM     18  H   UNL     1       1.312   4.302  22.048  0.00  0.00    +0.000 HD
ENDBRANCH   3  17
BRANCH   1  19
ATOM     19  C   UNL     1       1.657   8.479  20.619  0.00  0.00    +0.000 C 
BRANCH  19  21
ATOM     20  C   UNL     1       0.113   9.114  22.404  0.00  0.00    +0.000 C 
ATOM     21  N   UNL     1       0.253   8.793  20.985  0.00  0.00    +0.000 NA
ATOM     22  C   UNL     1      -0.296   9.859  20.150  0.00  0.00    +0.000 C 
ENDBRANCH  19  21
ENDBRANCH   1  19
TORSDOF 3
ENDMDL
MODEL 2
REMARK VINA RESULT:      -7.5      2.389      5.577
REMARK  Name = 
REMARK  7 active torsions:
REMARK  status: ('A' for Active; 'I' for Inactive)
REMARK    1  A    between atoms: C_1  and  N_2
REMARK    2  A    between atoms: N_2  and  C_3
REMARK    3  A    between atoms: N_2  and  C_4
REMARK    4  A    between atoms: C_4  and  C_5
REMARK    5  A    between atoms: C_7  and  O_8
REMARK    6  A    between atoms: C_19  and  C_20
REMARK    7  A    between atoms: C_19  and  C_21
REMARK                            x       y       z     vdW  Elec       q    Type
REMARK                         _______ _______ _______ _____ _____    ______ ____
ROOT
ATOM      1  C   UNL     1       4.360   4.061  16.687  0.00  0.00    +0.000 A 
ATOM      2  N   UNL     1       4.194   2.810  17.135  0.00  0.00    +0.000 NA
ATOM      3  C   UNL     1       3.444   2.690  18.233  0.00  0.00    +0.000 A 
ATOM      4  C   UNL     1       2.847   3.716  18.942  0.00  0.00    +0.000 A 
ATOM      5  C   UNL     1       3.079   4.968  18.394  0.00  0.00    +0.000 A 
ATOM      6  N   UNL     1       3.829   5.148  17.274  0.00  0.00    +0.000 NA
ATOM      7  C   UNL     1       2.510   6.192  18.983  0.00  0.00    +0.000 A 
ATOM      8  C   UNL     1       2.719   7.464  18.412  0.00  0.00    +0.000 A 
ATOM      9  C   UNL     1       2.192   8.625  18.986  0.00  0.00    +0.000 A 
ATOM     10  C   UNL     1       1.431   8.540  20.144  0.00  0.00    +0.000 A 
ATOM     11  C   UNL     1       1.204   7.298  20.723  0.00  0.00    +0.000 A 
ATOM     12  C   UNL     1       1.736   6.125  20.151  0.00  0.00    +0.000 A 
ATOM     13  C   UNL     1       1.508   4.824  20.870  0.00  0.00    +0.000 C 
ATOM     14  C   UNL     1       1.991   3.506  20.181  0.00  0.00    +0.000 C 
ATOM     15  C   UNL     1       0.732   2.690  19.802  0.00  0.00    +0.000 C 
ATOM     16  C   UNL     1       2.790   2.727  21.258  0.00  0.00    +0.000 C 
ENDROOT
BRANCH   3  17
ATOM     17  O   UNL     1       3.302   1.389  18.589  0.00  0.00    +0.000 OA
ATOM     18  H   UNL     1       2.640   1.477  19.298  0.00  0.00    +0.000 HD
ENDBRANCH   3  17
BRANCH   1  19
ATOM     19  C   UNL     1       5.159   4.247  15.402  0.00  0.00    +0.000 C 
BRANCH  19  21
ATOM     20  C   UNL     1       7.254   4.568  16.621  0.00  0.00    +0.000 C 
ATOM     21  N   UNL     1       6.436   5.000  15.489  0.00  0.00    +0.000 NA
ATOM     22  C   UNL     1       7.190   4.926  14.239  0.00  0.00    +0.000 C 
ENDBRANCH  19  21
ENDBRANCH   1  19
TORSDOF 3
ENDMDL
MODEL 3
REMARK VINA RESULT:      -7.2      2.288      4.301
REMARK  Name = 
REMARK  7 active torsions:
REMARK  status: ('A' for Active; 'I' for Inactive)
REMARK    1  A    between atoms: C_1  and  N_2
REMARK    2  A    between atoms: N_2  and  C_3
REMARK    3  A    between atoms: N_2  and  C_4
REMARK    4  A    between atoms: C_4  and  C_5
REMARK    5  A    between atoms: C_7  and  O_8
REMARK    6  A    between atoms: C_19  and  C_20
REMARK    7  A    between atoms: C_19  and  C_21
REMARK                            x       y       z     vdW  Elec       q    Type
REMARK                         _______ _______ _______ _____ _____    ______ ____
ROOT
ATOM      1  C   UNL     1       2.526   7.935  17.907  0.00  0.00    +0.000 A 
ATOM      2  N   UNL     1       3.576   8.001  17.078  0.00  0.00    +0.000 NA
ATOM      3  C   UNL     1       4.389   6.942  17.098  0.00  0.00    +0.000 A 
ATOM      4  C   UNL     1       4.255   5.813  17.885  0.00  0.00    +0.000 A 
ATOM      5  C   UNL     1       3.137   5.844  18.702  0.00  0.00    +0.000 A 
ATOM      6  N   UNL     1       2.273   6.894  18.719  0.00  0.00    +0.000 NA
ATOM      7  C   UNL     1       2.799   4.726  19.600  0.00  0.00    +0.000 A 
ATOM      8  C   UNL     1       1.647   4.742  20.412  0.00  0.00    +0.000 A 
ATOM      9  C   UNL     1       1.340   3.686  21.276  0.00  0.00    +0.000 A 
ATOM     10  C   UNL     1       2.178   2.581  21.343  0.00  0.00    +0.000 A 
ATOM     11  C   UNL     1       3.317   2.538  20.548  0.00  0.00    +0.000 A 
ATOM     12  C   UNL     1       3.632   3.601  19.679  0.00  0.00    +0.000 A 
ATOM     13  C   UNL     1       4.916   3.517  18.900  0.00  0.00    +0.000 C 
ATOM     14  C   UNL     1       5.214   4.633  17.846  0.00  0.00    +0.000 C 
ATOM     15  C   UNL     1       5.161   3.977  16.445  0.00  0.00    +0.000 C 
ATOM     16  C   UNL     1       6.663   5.110  18.122  0.00  0.00    +0.000 C 
ENDROOT
BRANCH   3  17
ATOM     17  O   UNL     1       5.398   7.083  16.203  0.00  0.00    +0.000 OA
ATOM     18  H   UNL     1       5.942   7.749  16.661  0.00  0.00    +0.000 HD
ENDBRANCH   3  17
BRANCH   1  19
ATOM     19  C   UNL     1       1.536   9.093  17.880  0.00  0.00    +0.000 C 
BRANCH  19  21
ATOM     20  C   UNL     1       1.576  11.404  18.678  0.00  0.00    +0.000 C 
ATOM     21  N   UNL     1       1.499   9.995  19.059  0.00  0.00    +0.000 NA
ATOM     22  C   UNL     1       0.327   9.741  19.894  0.00  0.00    +0.000 C 
ENDBRANCH  19  21
ENDBRANCH   1  19
TORSDOF 3
ENDMDL
MODEL 4
REMARK VINA RESULT:      -7.2      2.288      5.822
REMARK  Name = 
REMARK  7 active torsions:
REMARK  status: ('A' for Active; 'I' for Inactive)
REMARK    1  A    between atoms: C_1  and  N_2
REMARK    2  A    between atoms: N_2  and  C_3
REMARK    3  A    between atoms: N_2  and  C_4
REMARK    4  A    between atoms: C_4  and  C_5
REMARK    5  A    between atoms: C_7  and  O_8
REMARK    6  A    between atoms: C_19  and  C_20
REMARK    7  A    between atoms: C_19  and  C_21
REMARK                            x       y       z     vdW  Elec       q    Type
REMARK                         _______ _______ _______ _____ _____    ______ ____
ROOT
ATOM      1  C   UNL     1       4.644   4.866  16.554  0.00  0.00    +0.000 A 
ATOM      2  N   UNL     1       4.674   3.551  16.806  0.00  0.00    +0.000 NA
ATOM      3  C   UNL     1       3.968   3.156  17.868  0.00  0.00    +0.000 A 
ATOM      4  C   UNL     1       3.235   3.962  18.719  0.00  0.00    +0.000 A 
ATOM      5  C   UNL     1       3.268   5.302  18.368  0.00  0.00    +0.000 A 
ATOM      6  N   UNL     1       3.965   5.759  17.294  0.00  0.00    +0.000 NA
ATOM      7  C   UNL     1       2.531   6.323  19.131  0.00  0.00    +0.000 A 
ATOM      8  C   UNL     1       2.539   7.684  18.761  0.00  0.00    +0.000 A 
ATOM      9  C   UNL     1       1.852   8.653  19.500  0.00  0.00    +0.000 A 
ATOM     10  C   UNL     1       1.131   8.281  20.626  0.00  0.00    +0.000 A 
ATOM     11  C   UNL     1       1.101   6.945  21.009  0.00  0.00    +0.000 A 
ATOM     12  C   UNL     1       1.794   5.966  20.270  0.00  0.00    +0.000 A 
ATOM     13  C   UNL     1       1.774   4.552  20.782  0.00  0.00    +0.000 C 
ATOM     14  C   UNL     1       2.439   3.441  19.906  0.00  0.00    +0.000 C 
ATOM     15  C   UNL     1       1.311   2.511  19.398  0.00  0.00    +0.000 C 
ATOM     16  C   UNL     1       3.362   2.637  20.858  0.00  0.00    +0.000 C 
ENDROOT
BRANCH   3  17
ATOM     17  O   UNL     1       4.027   1.810  18.021  0.00  0.00    +0.000 OA
ATOM     18  H   UNL     1       4.741   1.743  18.681  0.00  0.00    +0.000 HD
ENDBRANCH   3  17
BRANCH   1  19
ATOM     19  C   UNL     1       5.386   5.362  15.318  0.00  0.00    +0.000 C 
BRANCH  19  21
ATOM     20  C   UNL     1       5.430   3.816  13.425  0.00  0.00    +0.000 C 
ATOM     21  N   UNL     1       6.181   4.370  14.549  0.00  0.00    +0.000 NA
ATOM     22  C   UNL     1       7.455   4.930  14.103  0.00  0.00    +0.000 C 
ENDBRANCH  19  21
ENDBRANCH   1  19
TORSDOF 3
ENDMDL
MODEL 5
REMARK VINA RESULT:      -7.0      0.816      1.102
REMARK  Name = 
REMARK  7 active torsions:
REMARK  status: ('A' for Active; 'I' for Inactive)
REMARK    1  A    between atoms: C_1  and  N_2
REMARK    2  A    between atoms: N_2  and  C_3
REMARK    3  A    between atoms: N_2  and  C_4
REMARK    4  A    between atoms: C_4  and  C_5
REMARK    5  A    between atoms: C_7  and  O_8
REMARK    6  A    between atoms: C_19  and  C_20
REMARK    7  A    between atoms: C_19  and  C_21
REMARK                            x       y       z     vdW  Elec       q    Type
REMARK                         _______ _______ _______ _____ _____    ______ ____
ROOT
ATOM      1  C   UNL     1       1.877   7.082  20.004  0.00  0.00    +0.000 A 
ATOM      2  N   UNL     1       1.409   6.066  20.741  0.00  0.00    +0.000 NA
ATOM      3  C   UNL     1       1.806   4.850  20.357  0.00  0.00    +0.000 A 
ATOM      4  C   UNL     1       2.629   4.550  19.287  0.00  0.00    +0.000 A 
ATOM      5  C   UNL     1       3.059   5.670  18.595  0.00  0.00    +0.000 A 
ATOM      6  N   UNL     1       2.691   6.931  18.945  0.00  0.00    +0.000 NA
ATOM      7  C   UNL     1       3.964   5.569  17.437  0.00  0.00    +0.000 A 
ATOM      8  C   UNL     1       4.426   6.708  16.748  0.00  0.00    +0.000 A 
ATOM      9  C   UNL     1       5.271   6.605  15.637  0.00  0.00    +0.000 A 
ATOM     10  C   UNL     1       5.681   5.355  15.194  0.00  0.00    +0.000 A 
ATOM     11  C   UNL     1       5.244   4.216  15.860  0.00  0.00    +0.000 A 
ATOM     12  C   UNL     1       4.391   4.314  16.976  0.00  0.00    +0.000 A 
ATOM     13  C   UNL     1       3.903   3.038  17.605  0.00  0.00    +0.000 C 
ATOM     14  C   UNL     1       3.054   3.138  18.915  0.00  0.00    +0.000 C 
ATOM     15  C   UNL     1       3.899   2.537  20.064  0.00  0.00    +0.000 C 
ATOM     16  C   UNL     1       1.808   2.244  18.688  0.00  0.00    +0.000 C 
ENDROOT
BRANCH   3  17
ATOM     17  O   UNL     1       1.314   3.892  21.181  0.00  0.00    +0.000 OA
ATOM     18  H   UNL     1       1.893   3.146  20.941  0.00  0.00    +0.000 HD
ENDBRANCH   3  17
BRANCH   1  19
ATOM     19  C   UNL     1       1.501   8.495  20.436  0.00  0.00    +0.000 C 
BRANCH  19  21
ATOM     20  C   UNL     1       0.682   9.184  18.238  0.00  0.00    +0.000 C 
ATOM     21  N   UNL     1       1.495   9.554  19.396  0.00  0.00    +0.000 NA
ATOM     22  C   UNL     1       1.075  10.843  19.941  0.00  0.00    +0.000 C 
ENDBRANCH  19  21
ENDBRANCH   1  19
TORSDOF 3
ENDMDL
MODEL 6
REMARK VINA RESULT:      -7.0      2.176      5.469
REMARK  Name = 
REMARK  7 active torsions:
REMARK  status: ('A' for Active; 'I' for Inactive)
REMARK    1  A    between atoms: C_1  and  N_2
REMARK    2  A    between atoms: N_2  and  C_3
REMARK    3  A    between atoms: N_2  and  C_4
REMARK    4  A    between atoms: C_4  and  C_5
REMARK    5  A    between atoms: C_7  and  O_8
REMARK    6  A    between atoms: C_19  and  C_20
REMARK    7  A    between atoms: C_19  and  C_21
REMARK                            x       y       z     vdW  Elec       q    Type
REMARK                         _______ _______ _______ _____ _____    ______ ____
ROOT
ATOM      1  C   UNL     1       4.720   4.936  16.921  0.00  0.00    +0.000 A 
ATOM      2  N   UNL     1       4.664   3.609  17.092  0.00  0.00    +0.000 NA
ATOM      3  C   UNL     1       3.831   3.190  18.048  0.00  0.00    +0.000 A 
ATOM      4  C   UNL     1       3.047   3.982  18.866  0.00  0.00    +0.000 A 
ATOM      5  C   UNL     1       3.177   5.337  18.605  0.00  0.00    +0.000 A 
ATOM      6  N   UNL     1       4.006   5.819  17.640  0.00  0.00    +0.000 NA
ATOM      7  C   UNL     1       2.408   6.349  19.348  0.00  0.00    +0.000 A 
ATOM      8  C   UNL     1       2.517   7.726  19.066  0.00  0.00    +0.000 A 
ATOM      9  C   UNL     1       1.798   8.685  19.788  0.00  0.00    +0.000 A 
ATOM     10  C   UNL     1       0.944   8.286  20.807  0.00  0.00    +0.000 A 
ATOM     11  C   UNL     1       0.814   6.934  21.101  0.00  0.00    +0.000 A 
ATOM     12  C   UNL     1       1.539   5.965  20.380  0.00  0.00    +0.000 A 
ATOM     13  C   UNL     1       1.401   4.527  20.798  0.00  0.00    +0.000 C 
ATOM     14  C   UNL     1       2.106   3.435  19.928  0.00  0.00    +0.000 C 
ATOM     15  C   UNL     1       0.999   2.594  19.248  0.00  0.00    +0.000 C 
ATOM     16  C   UNL     1       2.884   2.533  20.920  0.00  0.00    +0.000 C 
ENDROOT
BRANCH   3  17
ATOM     17  O   UNL     1       3.813   1.836  18.123  0.00  0.00    +0.000 OA
ATOM     18  H   UNL     1       3.332   1.625  17.302  0.00  0.00    +0.000 HD
ENDBRANCH   3  17
BRANCH   1  19
ATOM     19  C   UNL     1       5.612   5.463  15.802  0.00  0.00    +0.000 C 
BRANCH  19  21
ATOM     20  C   UNL     1       7.213   6.940  16.911  0.00  0.00    +0.000 C 
ATOM     21  N   UNL     1       7.038   5.721  16.124  0.00  0.00    +0.000 NA
ATOM     22  C   UNL     1       7.657   4.576  16.787  0.00  0.00    +0.000 C 
ENDBRANCH  19  21
ENDBRANCH   1  19
TORSDOF 3
ENDMDL
MODEL 7
REMARK VINA RESULT:      -6.7      2.147      5.756
REMARK  Name = 
REMARK  7 active torsions:
REMARK  status: ('A' for Active; 'I' for Inactive)
REMARK    1  A    between atoms: C_1  and  N_2
REMARK    2  A    between atoms: N_2  and  C_3
REMARK    3  A    between atoms: N_2  and  C_4
REMARK    4  A    between atoms: C_4  and  C_5
REMARK    5  A    between atoms: C_7  and  O_8
REMARK    6  A    between atoms: C_19  and  C_20
REMARK    7  A    between atoms: C_19  and  C_21
REMARK                            x       y       z     vdW  Elec       q    Type
REMARK                         _______ _______ _______ _____ _____    ______ ____
ROOT
ATOM      1  C   UNL     1       4.325   5.056  16.880  0.00  0.00    +0.000 A 
ATOM      2  N   UNL     1       4.233   3.854  17.462  0.00  0.00    +0.000 NA
ATOM      3  C   UNL     1       3.474   3.806  18.560  0.00  0.00    +0.000 A 
ATOM      4  C   UNL     1       2.800   4.862  19.144  0.00  0.00    +0.000 A 
ATOM      5  C   UNL     1       2.959   6.059  18.463  0.00  0.00    +0.000 A 
ATOM      6  N   UNL     1       3.715   6.163  17.337  0.00  0.00    +0.000 NA
ATOM      7  C   UNL     1       2.302   7.299  18.907  0.00  0.00    +0.000 A 
ATOM      8  C   UNL     1       2.439   8.512  18.200  0.00  0.00    +0.000 A 
ATOM      9  C   UNL     1       1.827   9.692  18.637  0.00  0.00    +0.000 A 
ATOM     10  C   UNL     1       1.055   9.685  19.790  0.00  0.00    +0.000 A 
ATOM     11  C   UNL     1       0.899   8.501  20.501  0.00  0.00    +0.000 A 
ATOM     12  C   UNL     1       1.515   7.311  20.068  0.00  0.00    +0.000 A 
ATOM     13  C   UNL     1       1.359   6.084  20.924  0.00  0.00    +0.000 C 
ATOM     14  C   UNL     1       1.938   4.734  20.391  0.00  0.00    +0.000 C 
ATOM     15  C   UNL     1       0.741   3.799  20.092  0.00  0.00    +0.000 C 
ATOM     16  C   UNL     1       2.767   4.132  21.555  0.00  0.00    +0.000 C 
ENDROOT
BRANCH   3  17
ATOM     17  O   UNL     1       3.409   2.546  19.056  0.00  0.00    +0.000 OA
ATOM     18  H   UNL     1       4.233   2.175  18.691  0.00  0.00    +0.000 HD
ENDBRANCH   3  17
BRANCH   1  19
ATOM     19  C   UNL     1       5.132   5.152  15.589  0.00  0.00    +0.000 C 
BRANCH  19  21
ATOM     20  C   UNL     1       6.546   3.991  13.968  0.00  0.00    +0.000 C 
ATOM     21  N   UNL     1       6.219   4.162  15.383  0.00  0.00    +0.000 NA
ATOM     22  C   UNL     1       7.409   4.499  16.160  0.00  0.00    +0.000 C 
ENDBRANCH  19  21
ENDBRANCH   1  19
TORSDOF 3
ENDMDL
MODEL 8
REMARK VINA RESULT:      -6.7      2.251      4.184
REMARK  Name = 
REMARK  7 active torsions:
REMARK  status: ('A' for Active; 'I' for Inactive)
REMARK    1  A    between atoms: C_1  and  N_2
REMARK    2  A    between atoms: N_2  and  C_3
REMARK    3  A    between atoms: N_2  and  C_4
REMARK    4  A    between atoms: C_4  and  C_5
REMARK    5  A    between atoms: C_7  and  O_8
REMARK    6  A    between atoms: C_19  and  C_20
REMARK    7  A    between atoms: C_19  and  C_21
REMARK                            x       y       z     vdW  Elec       q    Type
REMARK                         _______ _______ _______ _____ _____    ______ ____
ROOT
ATOM      1  C   UNL     1       2.557   7.841  17.725  0.00  0.00    +0.000 A 
ATOM      2  N   UNL     1       3.726   8.061  17.109  0.00  0.00    +0.000 NA
ATOM      3  C   UNL     1       4.509   6.989  16.967  0.00  0.00    +0.000 A 
ATOM      4  C   UNL     1       4.236   5.704  17.397  0.00  0.00    +0.000 A 
ATOM      5  C   UNL     1       3.003   5.584  18.017  0.00  0.00    +0.000 A 
ATOM      6  N   UNL     1       2.163   6.641  18.184  0.00  0.00    +0.000 NA
ATOM      7  C   UNL     1       2.510   4.293  18.525  0.00  0.00    +0.000 A 
ATOM      8  C   UNL     1       1.244   4.161  19.131  0.00  0.00    +0.000 A 
ATOM      9  C   UNL     1       0.789   2.936  19.629  0.00  0.00    +0.000 A 
ATOM     10  C   UNL     1       1.589   1.806  19.523  0.00  0.00    +0.000 A 
ATOM     11  C   UNL     1       2.839   1.908  18.925  0.00  0.00    +0.000 A 
ATOM     12  C   UNL     1       3.303   3.140  18.425  0.00  0.00    +0.000 A 
ATOM     13  C   UNL     1       4.693   3.190  17.852  0.00  0.00    +0.000 C 
ATOM     14  C   UNL     1       5.171   4.522  17.189  0.00  0.00    +0.000 C 
ATOM     15  C   UNL     1       5.330   4.257  15.672  0.00  0.00    +0.000 C 
ATOM     16  C   UNL     1       6.565   4.828  17.794  0.00  0.00    +0.000 C 
ENDROOT
BRANCH   3  17
ATOM     17  O   UNL     1       5.650   7.301  16.302  0.00  0.00    +0.000 OA
ATOM     18  H   UNL     1       5.634   6.620  15.606  0.00  0.00    +0.000 HD
ENDBRANCH   3  17
BRANCH   1  19
ATOM     19  C   UNL     1       1.601   9.021  17.859  0.00  0.00    +0.000 C 
BRANCH  19  21
ATOM     20  C   UNL     1       1.329  11.239  18.848  0.00  0.00    +0.000 C 
ATOM     21  N   UNL     1       1.695   9.845  19.090  0.00  0.00    +0.000 NA
ATOM     22  C   UNL     1       0.904   9.277  20.180  0.00  0.00    +0.000 C 
ENDBRANCH  19  21
ENDBRANCH   1  19
TORSDOF 3
ENDMDL
MODEL 9
REMARK VINA RESULT:      -6.6      3.383      4.944
REMARK  Name = 
REMARK  7 active torsions:
REMARK  status: ('A' for Active; 'I' for Inactive)
REMARK    1  A    between atoms: C_1  and  N_2
REMARK    2  A    between atoms: N_2  and  C_3
REMARK    3  A    between atoms: N_2  and  C_4
REMARK    4  A    between atoms: C_4  and  C_5
REMARK    5  A    between atoms: C_7  and  O_8
REMARK    6  A    between atoms: C_19  and  C_20
REMARK    7  A    between atoms: C_19  and  C_21
REMARK                            x       y       z     vdW  Elec       q    Type
REMARK                         _______ _______ _______ _____ _____    ______ ____
ROOT
ATOM      1  C   UNL     1       3.061   4.145  17.641  0.00  0.00    +0.000 A 
ATOM      2  N   UNL     1       3.681   4.652  18.715  0.00  0.00    +0.000 NA
ATOM      3  C   UNL     1       4.943   5.040  18.517  0.00  0.00    +0.000 A 
ATOM      4  C   UNL     1       5.657   4.958  17.336  0.00  0.00    +0.000 A 
ATOM      5  C   UNL     1       4.925   4.423  16.289  0.00  0.00    +0.000 A 
ATOM      6  N   UNL     1       3.635   4.017  16.432  0.00  0.00    +0.000 NA
ATOM      7  C   UNL     1       5.494   4.274  14.939  0.00  0.00    +0.000 A 
ATOM      8  C   UNL     1       4.743   3.756  13.864  0.00  0.00    +0.000 A 
ATOM      9  C   UNL     1       5.294   3.600  12.588  0.00  0.00    +0.000 A 
ATOM     10  C   UNL     1       6.612   3.966  12.354  0.00  0.00    +0.000 A 
ATOM     11  C   UNL     1       7.372   4.485  13.395  0.00  0.00    +0.000 A 
ATOM     12  C   UNL     1       6.823   4.642  14.683  0.00  0.00    +0.000 A 
ATOM     13  C   UNL     1       7.724   5.145  15.777  0.00  0.00    +0.000 C 
ATOM     14  C   UNL     1       7.093   5.435  17.178  0.00  0.00    +0.000 C 
ATOM     15  C   UNL     1       7.154   6.963  17.410  0.00  0.00    +0.000 C 
ATOM     16  C   UNL     1       8.007   4.733  18.215  0.00  0.00    +0.000 C 
ENDROOT
BRANCH   3  17
ATOM     17  O   UNL     1       5.473   5.572  19.646  0.00  0.00    +0.000 OA
ATOM     18  H   UNL     1       5.248   4.874  20.287  0.00  0.00    +0.000 HD
ENDBRANCH   3  17
BRANCH   1  19
ATOM     19  C   UNL     1       1.599   3.741  17.798  0.00  0.00    +0.000 C 
BRANCH  19  21
ATOM     20  C   UNL     1       2.425   1.700  18.859  0.00  0.00    +0.000 C 
ATOM     21  N   UNL     1       1.292   2.611  18.711  0.00  0.00    +0.000 NA
ATOM     22  C   UNL     1       0.825   3.083  20.013  0.00  0.00    +0.000 C 
ENDBRANCH  19  21
ENDBRANCH   1  19
TORSDOF 3
ENDMDL
