MODEL 1
REMARK VINA RESULT:      -8.4      0.000      0.000
REMARK  Name = 
REMARK  6 active torsions:
REMARK  status: ('A' for Active; 'I' for Inactive)
REMARK    1  A    between atoms: C_4  and  N_5
REMARK    2  A    between atoms: C_14  and  O_15
REMARK    3  A    between atoms: O_15  and  C_16
REMARK    4  A    between atoms: C_16  and  C_17
REMARK    5  A    between atoms: C_17  and  O_18
REMARK    6  A    between atoms: O_18  and  C_19
REMARK                            x       y       z     vdW  Elec       q    Type
REMARK                         _______ _______ _______ _____ _____    ______ ____
ROOT
ATOM      1  O   UNL     1       2.100  10.338  17.367  0.00  0.00    +0.000 OA
ATOM      2  C   UNL     1       1.580  10.067  18.441  0.00  0.00    +0.000 A 
ATOM      3  C   UNL     1       0.738  11.037  19.142  0.00  0.00    +0.000 A 
ATOM      4  C   UNL     1       0.196  10.748  20.334  0.00  0.00    +0.000 A 
ATOM      5  O   UNL     1       0.419   9.520  20.969  0.00  0.00    +0.000 OA
ATOM      6  C   UNL     1       1.144   8.548  20.317  0.00  0.00    +0.000 A 
ATOM      7  C   UNL     1       1.275   7.299  20.932  0.00  0.00    +0.000 A 
ATOM      8  C   UNL     1       2.026   6.283  20.321  0.00  0.00    +0.000 A 
ATOM      9  C   UNL     1       2.610   6.513  19.073  0.00  0.00    +0.000 A 
ATOM     10  C   UNL     1       2.475   7.757  18.456  0.00  0.00    +0.000 A 
ATOM     11  C   UNL     1       1.744   8.764  19.087  0.00  0.00    +0.000 A 
ENDROOT
BRANCH   4  12
ATOM     12  N   UNL     1      -0.639  11.632  21.017  0.00  0.00    +0.000 N 
ATOM     13  C   UNL     1      -0.696  11.704  22.490  0.00  0.00    +0.000 C 
ATOM     14  C   UNL     1      -2.154  11.829  22.961  0.00  0.00    +0.000 C 
ATOM     15  O   UNL     1      -2.825  12.938  22.338  0.00  0.00    +0.000 OA
ATOM     16  C   UNL     1      -2.802  12.792  20.910  0.00  0.00    +0.000 C 
ATOM     17  C   UNL     1      -1.362  12.751  20.380  0.00  0.00    +0.000 C 
ENDBRANCH   4  12
BRANCH   8  18
ATOM     18  O   UNL     1       2.075   5.092  20.992  0.00  0.00    +0.000 OA
BRANCH  18  19
ATOM     19  C   UNL     1       1.065   4.119  20.695  0.00  0.00    +0.000 C 
BRANCH  19  20
ATOM     20  C   UNL     1       1.698   2.753  20.451  0.00  0.00    +0.000 C 
BRANCH  20  21
ATOM     21  O   UNL     1       3.118   2.889  20.360  0.00  0.00    +0.000 OA
BRANCH  21  22
ATOM     22  C   UNL     1       3.616   3.197  19.120  0.00  0.00    +0.000 A 
ATOM     23  C   UNL     1       2.949   3.000  17.912  0.00  0.00    +0.000 A 
ATOM     24  C   UNL     1       3.549   3.365  16.705  0.00  0.00    +0.000 A 
ATOM     25  C   UNL     1       4.828   3.933  16.683  0.00  0.00    +0.000 A 
ATOM     26  C   UNL     1       5.429   4.314  15.473  0.00  0.00    +0.000 A 
ATOM     27  C   UNL     1       6.701   4.883  15.457  0.00  0.00    +0.000 A 
ATOM     28  C   UNL     1       7.390   5.072  16.652  0.00  0.00    +0.000 A 
ATOM     29  C   UNL     1       6.806   4.695  17.864  0.00  0.00    +0.000 A 
ATOM     30  C   UNL     1       5.521   4.127  17.899  0.00  0.00    +0.000 A 
ATOM     31  C   UNL     1       4.901   3.750  19.107  0.00  0.00    +0.000 A 
ENDBRANCH  21  22
ENDBRANCH  20  21
ENDBRANCH  19  20
ENDBRANCH  18  19
ENDBRANCH   8  18
TORSDOF 6
ENDMDL
MODEL 2
REMARK VINA RESULT:      -8.4      0.861      1.626
REMARK  Name = 
REMARK  6 active torsions:
REMARK  status: ('A' for Active; 'I' for Inactive)
REMARK    1  A    between atoms: C_4  and  N_5
REMARK    2  A    between atoms: C_14  and  O_15
REMARK    3  A    between atoms: O_15  and  C_16
REMARK    4  A    between atoms: C_16  and  C_17
REMARK    5  A    between atoms: C_17  and  O_18
REMARK    6  A    between atoms: O_18  and  C_19
REMARK                            x       y       z     vdW  Elec       q    Type
REMARK                         _______ _______ _______ _____ _____    ______ ____
ROOT
ATOM      1  O   UNL     1       2.317  10.219  17.207  0.00  0.00    +0.000 OA
ATOM      2  C   UNL     1       1.813  10.035  18.308  0.00  0.00    +0.000 A 
ATOM      3  C   UNL     1       1.112  11.112  19.009  0.00  0.00    +0.000 A 
ATOM      4  C   UNL     1       0.588  10.916  20.228  0.00  0.00    +0.000 A 
ATOM      5  O   UNL     1       0.697   9.688  20.891  0.00  0.00    +0.000 OA
ATOM      6  C   UNL     1       1.283   8.625  20.243  0.00  0.00    +0.000 A 
ATOM      7  C   UNL     1       1.299   7.385  20.890  0.00  0.00    +0.000 A 
ATOM      8  C   UNL     1       1.907   6.275  20.283  0.00  0.00    +0.000 A 
ATOM      9  C   UNL     1       2.463   6.406  19.009  0.00  0.00    +0.000 A 
ATOM     10  C   UNL     1       2.445   7.640  18.360  0.00  0.00    +0.000 A 
ATOM     11  C   UNL     1       1.855   8.740  18.985  0.00  0.00    +0.000 A 
ENDROOT
BRANCH   4  12
ATOM     12  N   UNL     1      -0.116  11.907  20.913  0.00  0.00    +0.000 N 
ATOM     13  C   UNL     1       0.135  13.348  20.717  0.00  0.00    +0.000 C 
ATOM     14  C   UNL     1       0.135  14.076  22.071  0.00  0.00    +0.000 C 
ATOM     15  O   UNL     1      -1.074  13.832  22.811  0.00  0.00    +0.000 OA
ATOM     16  C   UNL     1      -1.241  12.423  23.035  0.00  0.00    +0.000 C 
ATOM     17  C   UNL     1      -1.336  11.659  21.707  0.00  0.00    +0.000 C 
ENDBRANCH   4  12
BRANCH   8  18
ATOM     18  O   UNL     1       1.849   5.104  20.987  0.00  0.00    +0.000 OA
BRANCH  18  19
ATOM     19  C   UNL     1       1.193   3.988  20.371  0.00  0.00    +0.000 C 
BRANCH  19  20
ATOM     20  C   UNL     1       2.073   2.745  20.449  0.00  0.00    +0.000 C 
BRANCH  20  21
ATOM     21  O   UNL     1       2.549   2.409  19.144  0.00  0.00    +0.000 OA
BRANCH  21  22
ATOM     22  C   UNL     1       3.657   3.094  18.712  0.00  0.00    +0.000 A 
ATOM     23  C   UNL     1       4.683   3.565  19.529  0.00  0.00    +0.000 A 
ATOM     24  C   UNL     1       5.773   4.240  18.976  0.00  0.00    +0.000 A 
ATOM     25  C   UNL     1       5.858   4.456  17.596  0.00  0.00    +0.000 A 
ATOM     26  C   UNL     1       6.959   5.122  17.035  0.00  0.00    +0.000 A 
ATOM     27  C   UNL     1       7.040   5.331  15.659  0.00  0.00    +0.000 A 
ATOM     28  C   UNL     1       6.017   4.883  14.829  0.00  0.00    +0.000 A 
ATOM     29  C   UNL     1       4.913   4.221  15.373  0.00  0.00    +0.000 A 
ATOM     30  C   UNL     1       4.819   3.995  16.757  0.00  0.00    +0.000 A 
ATOM     31  C   UNL     1       3.725   3.319  17.332  0.00  0.00    +0.000 A 
ENDBRANCH  21  22
ENDBRANCH  20  21
ENDBRANCH  19  20
ENDBRANCH  18  19
ENDBRANCH   8  18
TORSDOF 6
ENDMDL
MODEL 3
REMARK VINA RESULT:      -8.1      3.295      9.274
REMARK  Name = 
REMARK  6 active torsions:
REMARK  status: ('A' for Active; 'I' for Inactive)
REMARK    1  A    between atoms: C_4  and  N_5
REMARK    2  A    between atoms: C_14  and  O_15
REMARK    3  A    between atoms: O_15  and  C_16
REMARK    4  A    between atoms: C_16  and  C_17
REMARK    5  A    between atoms: C_17  and  O_18
REMARK    6  A    between atoms: O_18  and  C_19
REMARK                            x       y       z     vdW  Elec       q    Type
REMARK                         _______ _______ _______ _____ _____    ______ ____
ROOT
ATOM      1  O   UNL     1       1.883   1.965  17.730  0.00  0.00    +0.000 OA
ATOM      2  C   UNL     1       2.601   2.945  17.884  0.00  0.00    +0.000 A 
ATOM      3  C   UNL     1       3.830   3.113  17.108  0.00  0.00    +0.000 A 
ATOM      4  C   UNL     1       4.631   4.171  17.303  0.00  0.00    +0.000 A 
ATOM      5  O   UNL     1       4.341   5.151  18.260  0.00  0.00    +0.000 OA
ATOM      6  C   UNL     1       3.161   5.075  18.963  0.00  0.00    +0.000 A 
ATOM      7  C   UNL     1       2.851   6.113  19.847  0.00  0.00    +0.000 A 
ATOM      8  C   UNL     1       1.672   6.071  20.607  0.00  0.00    +0.000 A 
ATOM      9  C   UNL     1       0.787   5.002  20.447  0.00  0.00    +0.000 A 
ATOM     10  C   UNL     1       1.092   3.968  19.562  0.00  0.00    +0.000 A 
ATOM     11  C   UNL     1       2.279   4.014  18.829  0.00  0.00    +0.000 A 
ENDROOT
BRANCH   4  12
ATOM     12  N   UNL     1       5.792   4.384  16.560  0.00  0.00    +0.000 N 
ATOM     13  C   UNL     1       6.951   5.133  17.084  0.00  0.00    +0.000 C 
ATOM     14  C   UNL     1       7.508   6.074  16.004  0.00  0.00    +0.000 C 
ATOM     15  O   UNL     1       7.821   5.371  14.789  0.00  0.00    +0.000 OA
ATOM     16  C   UNL     1       6.650   4.714  14.281  0.00  0.00    +0.000 C 
ATOM     17  C   UNL     1       6.104   3.695  15.292  0.00  0.00    +0.000 C 
ENDBRANCH   4  12
BRANCH   8  18
ATOM     18  O   UNL     1       1.450   7.145  21.425  0.00  0.00    +0.000 OA
BRANCH  18  19
ATOM     19  C   UNL     1       1.406   8.444  20.820  0.00  0.00    +0.000 C 
BRANCH  19  20
ATOM     20  C   UNL     1       0.142   9.185  21.244  0.00  0.00    +0.000 C 
BRANCH  20  21
ATOM     21  O   UNL     1       0.157  10.509  20.704  0.00  0.00    +0.000 OA
BRANCH  21  22
ATOM     22  C   UNL     1      -0.897  10.841  19.892  0.00  0.00    +0.000 A 
ATOM     23  C   UNL     1      -1.852  11.817  20.168  0.00  0.00    +0.000 A 
ATOM     24  C   UNL     1      -2.878  12.081  19.257  0.00  0.00    +0.000 A 
ATOM     25  C   UNL     1      -2.968  11.374  18.054  0.00  0.00    +0.000 A 
ATOM     26  C   UNL     1      -3.989  11.646  17.130  0.00  0.00    +0.000 A 
ATOM     27  C   UNL     1      -4.071  10.940  15.931  0.00  0.00    +0.000 A 
ATOM     28  C   UNL     1      -3.137   9.949  15.644  0.00  0.00    +0.000 A 
ATOM     29  C   UNL     1      -2.116   9.665  16.556  0.00  0.00    +0.000 A 
ATOM     30  C   UNL     1      -2.013  10.372  17.766  0.00  0.00    +0.000 A 
ATOM     31  C   UNL     1      -0.988  10.117  18.697  0.00  0.00    +0.000 A 
ENDBRANCH  21  22
ENDBRANCH  20  21
ENDBRANCH  19  20
ENDBRANCH  18  19
ENDBRANCH   8  18
TORSDOF 6
ENDMDL
MODEL 4
REMARK VINA RESULT:      -8.1      0.931      1.542
REMARK  Name = 
REMARK  6 active torsions:
REMARK  status: ('A' for Active; 'I' for Inactive)
REMARK    1  A    between atoms: C_4  and  N_5
REMARK    2  A    between atoms: C_14  and  O_15
REMARK    3  A    between atoms: O_15  and  C_16
REMARK    4  A    between atoms: C_16  and  C_17
REMARK    5  A    between atoms: C_17  and  O_18
REMARK    6  A    between atoms: O_18  and  C_19
REMARK                            x       y       z     vdW  Elec       q    Type
REMARK                         _______ _______ _______ _____ _____    ______ ____
ROOT
ATOM      1  O   UNL     1       1.683  11.037  17.784  0.00  0.00    +0.000 OA
ATOM      2  C   UNL     1       1.327  10.616  18.877  0.00  0.00    +0.000 A 
ATOM      3  C   UNL     1       0.611  11.473  19.823  0.00  0.00    +0.000 A 
ATOM      4  C   UNL     1       0.251  11.018  21.032  0.00  0.00    +0.000 A 
ATOM      5  O   UNL     1       0.551   9.716  21.451  0.00  0.00    +0.000 OA
ATOM      6  C   UNL     1       1.158   8.850  20.571  0.00  0.00    +0.000 A 
ATOM      7  C   UNL     1       1.366   7.530  20.981  0.00  0.00    +0.000 A 
ATOM      8  C   UNL     1       2.004   6.614  20.131  0.00  0.00    +0.000 A 
ATOM      9  C   UNL     1       2.396   7.018  18.853  0.00  0.00    +0.000 A 
ATOM     10  C   UNL     1       2.186   8.333  18.440  0.00  0.00    +0.000 A 
ATOM     11  C   UNL     1       1.570   9.239  19.305  0.00  0.00    +0.000 A 
ENDROOT
BRANCH   4  12
ATOM     12  N   UNL     1      -0.462  11.793  21.947  0.00  0.00    +0.000 N 
ATOM     13  C   UNL     1      -1.278  11.207  23.028  0.00  0.00    +0.000 C 
ATOM     14  C   UNL     1      -2.612  11.959  23.155  0.00  0.00    +0.000 C 
ATOM     15  O   UNL     1      -2.416  13.373  23.329  0.00  0.00    +0.000 OA
ATOM     16  C   UNL     1      -1.676  13.911  22.222  0.00  0.00    +0.000 C 
ATOM     17  C   UNL     1      -0.295  13.251  22.107  0.00  0.00    +0.000 C 
ENDBRANCH   4  12
BRANCH   8  18
ATOM     18  O   UNL     1       2.138   5.342  20.617  0.00  0.00    +0.000 OA
BRANCH  18  19
ATOM     19  C   UNL     1       1.156   4.373  20.227  0.00  0.00    +0.000 C 
BRANCH  19  20
ATOM     20  C   UNL     1       1.640   3.584  19.014  0.00  0.00    +0.000 C 
BRANCH  20  21
ATOM     21  O   UNL     1       2.914   3.001  19.296  0.00  0.00    +0.000 OA
BRANCH  21  22
ATOM     22  C   UNL     1       3.990   3.563  18.656  0.00  0.00    +0.000 A 
ATOM     23  C   UNL     1       5.058   4.201  19.284  0.00  0.00    +0.000 A 
ATOM     24  C   UNL     1       6.110   4.726  18.530  0.00  0.00    +0.000 A 
ATOM     25  C   UNL     1       6.113   4.623  17.134  0.00  0.00    +0.000 A 
ATOM     26  C   UNL     1       7.175   5.137  16.374  0.00  0.00    +0.000 A 
ATOM     27  C   UNL     1       7.175   5.028  14.985  0.00  0.00    +0.000 A 
ATOM     28  C   UNL     1       6.109   4.409  14.338  0.00  0.00    +0.000 A 
ATOM     29  C   UNL     1       5.042   3.895  15.082  0.00  0.00    +0.000 A 
ATOM     30  C   UNL     1       5.030   3.989  16.483  0.00  0.00    +0.000 A 
ATOM     31  C   UNL     1       3.977   3.468  17.260  0.00  0.00    +0.000 A 
ENDBRANCH  21  22
ENDBRANCH  20  21
ENDBRANCH  19  20
ENDBRANCH  18  19
ENDBRANCH   8  18
TORSDOF 6
ENDMDL
MODEL 5
REMARK VINA RESULT:      -8.1      1.961      4.166
REMARK  Name = 
REMARK  6 active torsions:
REMARK  status: ('A' for Active; 'I' for Inactive)
REMARK    1  A    between atoms: C_4  and  N_5
REMARK    2  A    between atoms: C_14  and  O_15
REMARK    3  A    between atoms: O_15  and  C_16
REMARK    4  A    between atoms: C_16  and  C_17
REMARK    5  A    between atoms: C_17  and  O_18
REMARK    6  A    between atoms: O_18  and  C_19
REMARK                            x       y       z     vdW  Elec       q    Type
REMARK                         _______ _______ _______ _____ _____    ______ ____
ROOT
ATOM      1  O   UNL     1       0.044   8.923  22.366  0.00  0.00    +0.000 OA
ATOM      2  C   UNL     1       0.229   9.526  21.316  0.00  0.00    +0.000 A 
ATOM      3  C   UNL     1      -0.349  10.852  21.093  0.00  0.00    +0.000 A 
ATOM      4  C   UNL     1      -0.171  11.496  19.930  0.00  0.00    +0.000 A 
ATOM      5  O   UNL     1       0.555  10.930  18.876  0.00  0.00    +0.000 OA
ATOM      6  C   UNL     1       1.178   9.717  19.063  0.00  0.00    +0.000 A 
ATOM      7  C   UNL     1       1.973   9.217  18.027  0.00  0.00    +0.000 A 
ATOM      8  C   UNL     1       2.609   7.973  18.159  0.00  0.00    +0.000 A 
ATOM      9  C   UNL     1       2.475   7.253  19.348  0.00  0.00    +0.000 A 
ATOM     10  C   UNL     1       1.687   7.753  20.384  0.00  0.00    +0.000 A 
ATOM     11  C   UNL     1       1.043   8.982  20.230  0.00  0.00    +0.000 A 
ENDROOT
BRANCH   4  12
ATOM     12  N   UNL     1      -0.677  12.774  19.692  0.00  0.00    +0.000 N 
ATOM     13  C   UNL     1      -0.247  13.605  18.550  0.00  0.00    +0.000 C 
ATOM     14  C   UNL     1      -0.042  15.060  19.000  0.00  0.00    +0.000 C 
ATOM     15  O   UNL     1      -1.211  15.592  19.647  0.00  0.00    +0.000 OA
ATOM     16  C   UNL     1      -1.552  14.791  20.789  0.00  0.00    +0.000 C 
ATOM     17  C   UNL     1      -1.854  13.342  20.380  0.00  0.00    +0.000 C 
ENDBRANCH   4  12
BRANCH   8  18
ATOM     18  O   UNL     1       3.382   7.583  17.099  0.00  0.00    +0.000 OA
BRANCH  18  19
ATOM     19  C   UNL     1       4.697   7.086  17.382  0.00  0.00    +0.000 C 
BRANCH  19  20
ATOM     20  C   UNL     1       5.171   6.169  16.259  0.00  0.00    +0.000 C 
BRANCH  20  21
ATOM     21  O   UNL     1       4.360   4.993  16.223  0.00  0.00    +0.000 OA
BRANCH  21  22
ATOM     22  C   UNL     1       4.133   4.379  17.429  0.00  0.00    +0.000 A 
ATOM     23  C   UNL     1       5.117   3.848  18.260  0.00  0.00    +0.000 A 
ATOM     24  C   UNL     1       4.771   3.257  19.477  0.00  0.00    +0.000 A 
ATOM     25  C   UNL     1       3.435   3.186  19.886  0.00  0.00    +0.000 A 
ATOM     26  C   UNL     1       3.084   2.604  21.114  0.00  0.00    +0.000 A 
ATOM     27  C   UNL     1       1.752   2.540  21.518  0.00  0.00    +0.000 A 
ATOM     28  C   UNL     1       0.752   3.050  20.693  0.00  0.00    +0.000 A 
ATOM     29  C   UNL     1       1.086   3.629  19.465  0.00  0.00    +0.000 A 
ATOM     30  C   UNL     1       2.425   3.709  19.047  0.00  0.00    +0.000 A 
ATOM     31  C   UNL     1       2.792   4.300  17.822  0.00  0.00    +0.000 A 
ENDBRANCH  21  22
ENDBRANCH  20  21
ENDBRANCH  19  20
ENDBRANCH  18  19
ENDBRANCH   8  18
TORSDOF 6
ENDMDL
MODEL 6
REMARK VINA RESULT:      -7.9      2.591      8.899
REMARK  Name = 
REMARK  6 active torsions:
REMARK  status: ('A' for Active; 'I' for Inactive)
REMARK    1  A    between atoms: C_4  and  N_5
REMARK    2  A    between atoms: C_14  and  O_15
REMARK    3  A    between atoms: O_15  and  C_16
REMARK    4  A    between atoms: C_16  and  C_17
REMARK    5  A    between atoms: C_17  and  O_18
REMARK    6  A    between atoms: O_18  and  C_19
REMARK                            x       y       z     vdW  Elec       q    Type
REMARK                         _______ _______ _______ _____ _____    ______ ____
ROOT
ATOM      1  O   UNL     1       2.069   9.515  17.291  0.00  0.00    +0.000 OA
ATOM      2  C   UNL     1       1.901   8.958  18.368  0.00  0.00    +0.000 A 
ATOM      3  C   UNL     1       2.314   7.569  18.574  0.00  0.00    +0.000 A 
ATOM      4  C   UNL     1       2.100   6.951  19.746  0.00  0.00    +0.000 A 
ATOM      5  O   UNL     1       1.463   7.594  20.814  0.00  0.00    +0.000 OA
ATOM      6  C   UNL     1       1.122   8.922  20.693  0.00  0.00    +0.000 A 
ATOM      7  C   UNL     1       0.571   9.565  21.805  0.00  0.00    +0.000 A 
ATOM      8  C   UNL     1       0.182  10.911  21.726  0.00  0.00    +0.000 A 
ATOM      9  C   UNL     1       0.386  11.618  20.539  0.00  0.00    +0.000 A 
ATOM     10  C   UNL     1       0.940  10.979  19.430  0.00  0.00    +0.000 A 
ATOM     11  C   UNL     1       1.302   9.634  19.518  0.00  0.00    +0.000 A 
ENDROOT
BRANCH   4  12
ATOM     12  N   UNL     1       2.509   5.641  19.992  0.00  0.00    +0.000 N 
ATOM     13  C   UNL     1       3.867   5.154  19.684  0.00  0.00    +0.000 C 
ATOM     14  C   UNL     1       3.801   3.756  19.050  0.00  0.00    +0.000 C 
ATOM     15  O   UNL     1       3.066   2.830  19.869  0.00  0.00    +0.000 OA
ATOM     16  C   UNL     1       1.731   3.311  20.087  0.00  0.00    +0.000 C 
ATOM     17  C   UNL     1       1.743   4.671  20.800  0.00  0.00    +0.000 C 
ENDBRANCH   4  12
BRANCH   8  18
ATOM     18  O   UNL     1      -0.325  11.455  22.874  0.00  0.00    +0.000 OA
BRANCH  18  19
ATOM     19  C   UNL     1      -1.738  11.692  22.931  0.00  0.00    +0.000 C 
BRANCH  19  20
ATOM     20  C   UNL     1      -2.123  12.838  22.001  0.00  0.00    +0.000 C 
BRANCH  20  21
ATOM     21  O   UNL     1      -3.521  12.772  21.709  0.00  0.00    +0.000 OA
BRANCH  21  22
ATOM     22  C   UNL     1      -3.852  12.445  20.419  0.00  0.00    +0.000 A 
ATOM     23  C   UNL     1      -5.020  12.831  19.764  0.00  0.00    +0.000 A 
ATOM     24  C   UNL     1      -5.247  12.451  18.439  0.00  0.00    +0.000 A 
ATOM     25  C   UNL     1      -4.310  11.677  17.745  0.00  0.00    +0.000 A 
ATOM     26  C   UNL     1      -4.529  11.304  16.409  0.00  0.00    +0.000 A 
ATOM     27  C   UNL     1      -3.590  10.538  15.721  0.00  0.00    +0.000 A 
ATOM     28  C   UNL     1      -2.425  10.128  16.363  0.00  0.00    +0.000 A 
ATOM     29  C   UNL     1      -2.195  10.489  17.694  0.00  0.00    +0.000 A 
ATOM     30  C   UNL     1      -3.127  11.268  18.400  0.00  0.00    +0.000 A 
ATOM     31  C   UNL     1      -2.916  11.659  19.737  0.00  0.00    +0.000 A 
ENDBRANCH  21  22
ENDBRANCH  20  21
ENDBRANCH  19  20
ENDBRANCH  18  19
ENDBRANCH   8  18
TORSDOF 6
ENDMDL
MODEL 7
REMARK VINA RESULT:      -7.8      0.838      1.795
REMARK  Name = 
REMARK  6 active torsions:
REMARK  status: ('A' for Active; 'I' for Inactive)
REMARK    1  A    between atoms: C_4  and  N_5
REMARK    2  A    between atoms: C_14  and  O_15
REMARK    3  A    between atoms: O_15  and  C_16
REMARK    4  A    between atoms: C_16  and  C_17
REMARK    5  A    between atoms: C_17  and  O_18
REMARK    6  A    between atoms: O_18  and  C_19
REMARK                            x       y       z     vdW  Elec       q    Type
REMARK                         _______ _______ _______ _____ _____    ______ ____
ROOT
ATOM      1  O   UNL     1       2.053  10.890  17.369  0.00  0.00    +0.000 OA
ATOM      2  C   UNL     1       1.524  10.490  18.397  0.00  0.00    +0.000 A 
ATOM      3  C   UNL     1       0.615  11.345  19.163  0.00  0.00    +0.000 A 
ATOM      4  C   UNL     1       0.061  10.915  20.306  0.00  0.00    +0.000 A 
ATOM      5  O   UNL     1       0.335   9.645  20.828  0.00  0.00    +0.000 OA
ATOM      6  C   UNL     1       1.126   8.779  20.109  0.00  0.00    +0.000 A 
ATOM      7  C   UNL     1       1.309   7.485  20.606  0.00  0.00    +0.000 A 
ATOM      8  C   UNL     1       2.127   6.572  19.924  0.00  0.00    +0.000 A 
ATOM      9  C   UNL     1       2.727   6.950  18.720  0.00  0.00    +0.000 A 
ATOM     10  C   UNL     1       2.541   8.238  18.220  0.00  0.00    +0.000 A 
ATOM     11  C   UNL     1       1.742   9.142  18.921  0.00  0.00    +0.000 A 
ENDROOT
BRANCH   4  12
ATOM     12  N   UNL     1      -0.835  11.687  21.046  0.00  0.00    +0.000 N 
ATOM     13  C   UNL     1      -2.026  12.323  20.449  0.00  0.00    +0.000 C 
ATOM     14  C   UNL     1      -2.191  13.753  20.987  0.00  0.00    +0.000 C 
ATOM     15  O   UNL     1      -2.223  13.785  22.425  0.00  0.00    +0.000 OA
ATOM     16  C   UNL     1      -1.017  13.217  22.959  0.00  0.00    +0.000 C 
ATOM     17  C   UNL     1      -0.851  11.755  22.521  0.00  0.00    +0.000 C 
ENDBRANCH   4  12
BRANCH   8  18
ATOM     18  O   UNL     1       2.224   5.326  20.480  0.00  0.00    +0.000 OA
BRANCH  18  19
ATOM     19  C   UNL     1       1.654   4.227  19.757  0.00  0.00    +0.000 C 
BRANCH  19  20
ATOM     20  C   UNL     1       2.695   3.134  19.542  0.00  0.00    +0.000 C 
BRANCH  20  21
ATOM     21  O   UNL     1       3.972   3.589  19.996  0.00  0.00    +0.000 OA
BRANCH  21  22
ATOM     22  C   UNL     1       4.810   4.093  19.034  0.00  0.00    +0.000 A 
ATOM     23  C   UNL     1       5.868   4.970  19.265  0.00  0.00    +0.000 A 
ATOM     24  C   UNL     1       6.668   5.408  18.207  0.00  0.00    +0.000 A 
ATOM     25  C   UNL     1       6.424   4.977  16.898  0.00  0.00    +0.000 A 
ATOM     26  C   UNL     1       7.234   5.404  15.834  0.00  0.00    +0.000 A 
ATOM     27  C   UNL     1       6.989   4.969  14.533  0.00  0.00    +0.000 A 
ATOM     28  C   UNL     1       5.926   4.106  14.279  0.00  0.00    +0.000 A 
ATOM     29  C   UNL     1       5.109   3.674  15.329  0.00  0.00    +0.000 A 
ATOM     30  C   UNL     1       5.347   4.097  16.647  0.00  0.00    +0.000 A 
ATOM     31  C   UNL     1       4.549   3.668  17.726  0.00  0.00    +0.000 A 
ENDBRANCH  21  22
ENDBRANCH  20  21
ENDBRANCH  19  20
ENDBRANCH  18  19
ENDBRANCH   8  18
TORSDOF 6
ENDMDL
MODEL 8
REMARK VINA RESULT:      -7.7      1.853      4.041
REMARK  Name = 
REMARK  6 active torsions:
REMARK  status: ('A' for Active; 'I' for Inactive)
REMARK    1  A    between atoms: C_4  and  N_5
REMARK    2  A    between atoms: C_14  and  O_15
REMARK    3  A    between atoms: O_15  and  C_16
REMARK    4  A    between atoms: C_16  and  C_17
REMARK    5  A    between atoms: C_17  and  O_18
REMARK    6  A    between atoms: O_18  and  C_19
REMARK                            x       y       z     vdW  Elec       q    Type
REMARK                         _______ _______ _______ _____ _____    ______ ____
ROOT
ATOM      1  O   UNL     1       0.277   8.266  22.070  0.00  0.00    +0.000 OA
ATOM      2  C   UNL     1       0.586   9.034  21.168  0.00  0.00    +0.000 A 
ATOM      3  C   UNL     1       0.180  10.440  21.198  0.00  0.00    +0.000 A 
ATOM      4  C   UNL     1       0.493  11.271  20.193  0.00  0.00    +0.000 A 
ATOM      5  O   UNL     1       1.203  10.835  19.067  0.00  0.00    +0.000 OA
ATOM      6  C   UNL     1       1.669   9.541  19.026  0.00  0.00    +0.000 A 
ATOM      7  C   UNL     1       2.453   9.156  17.934  0.00  0.00    +0.000 A 
ATOM      8  C   UNL     1       2.930   7.840  17.832  0.00  0.00    +0.000 A 
ATOM      9  C   UNL     1       2.651   6.925  18.849  0.00  0.00    +0.000 A 
ATOM     10  C   UNL     1       1.873   7.308  19.941  0.00  0.00    +0.000 A 
ATOM     11  C   UNL     1       1.387   8.614  20.018  0.00  0.00    +0.000 A 
ENDROOT
BRANCH   4  12
ATOM     12  N   UNL     1       0.154  12.624  20.200  0.00  0.00    +0.000 N 
ATOM     13  C   UNL     1      -0.768  13.213  21.191  0.00  0.00    +0.000 C 
ATOM     14  C   UNL     1      -1.730  14.194  20.504  0.00  0.00    +0.000 C 
ATOM     15  O   UNL     1      -1.026  15.200  19.754  0.00  0.00    +0.000 OA
ATOM     16  C   UNL     1      -0.193  14.584  18.760  0.00  0.00    +0.000 C 
ATOM     17  C   UNL     1       0.847  13.657  19.405  0.00  0.00    +0.000 C 
ENDBRANCH   4  12
BRANCH   8  18
ATOM     18  O   UNL     1       3.707   7.571  16.739  0.00  0.00    +0.000 OA
BRANCH  18  19
ATOM     19  C   UNL     1       4.885   6.779  16.938  0.00  0.00    +0.000 C 
BRANCH  19  20
ATOM     20  C   UNL     1       5.162   5.918  15.709  0.00  0.00    +0.000 C 
BRANCH  20  21
ATOM     21  O   UNL     1       5.380   4.563  16.110  0.00  0.00    +0.000 OA
BRANCH  21  22
ATOM     22  C   UNL     1       4.797   4.182  17.292  0.00  0.00    +0.000 A 
ATOM     23  C   UNL     1       5.450   4.088  18.519  0.00  0.00    +0.000 A 
ATOM     24  C   UNL     1       4.749   3.702  19.664  0.00  0.00    +0.000 A 
ATOM     25  C   UNL     1       3.384   3.404  19.603  0.00  0.00    +0.000 A 
ATOM     26  C   UNL     1       2.674   3.029  20.755  0.00  0.00    +0.000 A 
ATOM     27  C   UNL     1       1.312   2.737  20.689  0.00  0.00    +0.000 A 
ATOM     28  C   UNL     1       0.646   2.809  19.469  0.00  0.00    +0.000 A 
ATOM     29  C   UNL     1       1.341   3.178  18.313  0.00  0.00    +0.000 A 
ATOM     30  C   UNL     1       2.711   3.484  18.363  0.00  0.00    +0.000 A 
ATOM     31  C   UNL     1       3.434   3.872  17.218  0.00  0.00    +0.000 A 
ENDBRANCH  21  22
ENDBRANCH  20  21
ENDBRANCH  19  20
ENDBRANCH  18  19
ENDBRANCH   8  18
TORSDOF 6
ENDMDL
MODEL 9
REMARK VINA RESULT:      -7.6      3.150      4.919
REMARK  Name = 
REMARK  6 active torsions:
REMARK  status: ('A' for Active; 'I' for Inactive)
REMARK    1  A    between atoms: C_4  and  N_5
REMARK    2  A    between atoms: C_14  and  O_15
REMARK    3  A    between atoms: O_15  and  C_16
REMARK    4  A    between atoms: C_16  and  C_17
REMARK    5  A    between atoms: C_17  and  O_18
REMARK    6  A    between atoms: O_18  and  C_19
REMARK                            x       y       z     vdW  Elec       q    Type
REMARK                         _______ _______ _______ _____ _____    ______ ____
ROOT
ATOM      1  O   UNL     1      -4.259  10.769  15.752  0.00  0.00    +0.000 OA
ATOM      2  C   UNL     1      -4.098  11.155  16.903  0.00  0.00    +0.000 A 
ATOM      3  C   UNL     1      -5.154  11.875  17.615  0.00  0.00    +0.000 A 
ATOM      4  C   UNL     1      -4.962  12.324  18.865  0.00  0.00    +0.000 A 
ATOM      5  O   UNL     1      -3.748  12.142  19.537  0.00  0.00    +0.000 OA
ATOM      6  C   UNL     1      -2.750  11.409  18.936  0.00  0.00    +0.000 A 
ATOM      7  C   UNL     1      -1.582  11.164  19.664  0.00  0.00    +0.000 A 
ATOM      8  C   UNL     1      -0.524  10.444  19.088  0.00  0.00    +0.000 A 
ATOM      9  C   UNL     1      -0.661   9.937  17.793  0.00  0.00    +0.000 A 
ATOM     10  C   UNL     1      -1.827  10.177  17.068  0.00  0.00    +0.000 A 
ATOM     11  C   UNL     1      -2.862  10.913  17.647  0.00  0.00    +0.000 A 
ENDROOT
BRANCH   4  12
ATOM     12  N   UNL     1      -5.955  12.984  19.589  0.00  0.00    +0.000 N 
ATOM     13  C   UNL     1      -7.103  13.653  18.947  0.00  0.00    +0.000 C 
ATOM     14  C   UNL     1      -7.373  15.008  19.619  0.00  0.00    +0.000 C 
ATOM     15  O   UNL     1      -7.548  14.877  21.041  0.00  0.00    +0.000 OA
ATOM     16  C   UNL     1      -6.381  14.283  21.630  0.00  0.00    +0.000 C 
ATOM     17  C   UNL     1      -6.119  12.885  21.053  0.00  0.00    +0.000 C 
ENDBRANCH   4  12
BRANCH   8  18
ATOM     18  O   UNL     1       0.565  10.238  19.889  0.00  0.00    +0.000 OA
BRANCH  18  19
ATOM     19  C   UNL     1       0.366   9.515  21.111  0.00  0.00    +0.000 C 
BRANCH  19  20
ATOM     20  C   UNL     1       1.493   8.510  21.324  0.00  0.00    +0.000 C 
BRANCH  20  21
ATOM     21  O   UNL     1       0.998   7.183  21.125  0.00  0.00    +0.000 OA
BRANCH  21  22
ATOM     22  C   UNL     1       1.745   6.379  20.301  0.00  0.00    +0.000 A 
ATOM     23  C   UNL     1       1.792   4.987  20.360  0.00  0.00    +0.000 A 
ATOM     24  C   UNL     1       2.579   4.268  19.458  0.00  0.00    +0.000 A 
ATOM     25  C   UNL     1       3.332   4.926  18.480  0.00  0.00    +0.000 A 
ATOM     26  C   UNL     1       4.113   4.205  17.562  0.00  0.00    +0.000 A 
ATOM     27  C   UNL     1       4.858   4.867  16.587  0.00  0.00    +0.000 A 
ATOM     28  C   UNL     1       4.837   6.257  16.523  0.00  0.00    +0.000 A 
ATOM     29  C   UNL     1       4.066   6.988  17.432  0.00  0.00    +0.000 A 
ATOM     30  C   UNL     1       3.303   6.338  18.416  0.00  0.00    +0.000 A 
ATOM     31  C   UNL     1       2.506   7.047  19.336  0.00  0.00    +0.000 A 
ENDBRANCH  21  22
ENDBRANCH  20  21
ENDBRANCH  19  20
ENDBRANCH  18  19
ENDBRANCH   8  18
TORSDOF 6
ENDMDL
