MODEL 1
REMARK VINA RESULT:      -7.6      0.000      0.000
REMARK  Name = 
REMARK  2 active torsions:
REMARK  status: ('A' for Active; 'I' for Inactive)
REMARK    1  A    between atoms: C_4  and  C_5
REMARK    2  A    between atoms: C_9  and  N_10
REMARK                            x       y       z     vdW  Elec       q    Type
REMARK                         _______ _______ _______ _____ _____    ______ ____
ROOT
ATOM      1  C   UNL     1       5.580   4.550  18.272  0.00  0.00    +0.000 A 
ATOM      2  N   UNL     1       6.119   4.853  19.502  0.00  0.00    +0.000 N 
ATOM      3  N   UNL     1       7.410   5.220  19.475  0.00  0.00    +0.000 NA
ATOM      4  C   UNL     1       7.718   5.176  18.180  0.00  0.00    +0.000 A 
ATOM      5  C   UNL     1       6.625   4.778  17.382  0.00  0.00    +0.000 A 
ATOM      6  H   UNL     1       5.645   4.840  20.400  0.00  0.00    +0.000 HD
ENDROOT
BRANCH   1  10
ATOM      7  C   UNL     1       1.468   3.390  17.931  0.00  0.00    +0.000 A 
ATOM      8  C   UNL     1       2.456   2.422  18.069  0.00  0.00    +0.000 A 
ATOM      9  C   UNL     1       3.801   2.797  18.140  0.00  0.00    +0.000 A 
ATOM     10  C   UNL     1       4.176   4.147  18.129  0.00  0.00    +0.000 A 
ATOM     11  C   UNL     1       3.168   5.110  17.966  0.00  0.00    +0.000 A 
ATOM     12  C   UNL     1       1.824   4.734  17.862  0.00  0.00    +0.000 A 
ENDBRANCH   1  10
BRANCH   5  13
ATOM     13  N   UNL     1       6.659   4.643  15.971  0.00  0.00    +0.000 N 
ATOM     14  C   UNL     1       5.983   3.708  15.217  0.00  0.00    +0.000 A 
ATOM     15  N   UNL     1       6.280   3.828  13.943  0.00  0.00    +0.000 NA
ATOM     16  C   UNL     1       7.143   4.878  13.943  0.00  0.00    +0.000 A 
ATOM     17  N   UNL     1       7.401   5.408  15.136  0.00  0.00    +0.000 NA
ENDBRANCH   5  13
TORSDOF 2
ENDMDL
MODEL 2
REMARK VINA RESULT:      -7.5      0.052      1.203
REMARK  Name = 
REMARK  2 active torsions:
REMARK  status: ('A' for Active; 'I' for Inactive)
REMARK    1  A    between atoms: C_4  and  C_5
REMARK    2  A    between atoms: C_9  and  N_10
REMARK                            x       y       z     vdW  Elec       q    Type
REMARK                         _______ _______ _______ _____ _____    ______ ____
ROOT
ATOM      1  C   UNL     1       5.593   4.549  18.298  0.00  0.00    +0.000 A 
ATOM      2  N   UNL     1       6.152   4.841  19.522  0.00  0.00    +0.000 N 
ATOM      3  N   UNL     1       7.450   5.186  19.480  0.00  0.00    +0.000 NA
ATOM      4  C   UNL     1       7.740   5.138  18.180  0.00  0.00    +0.000 A 
ATOM      5  C   UNL     1       6.630   4.760  17.396  0.00  0.00    +0.000 A 
ATOM      6  H   UNL     1       5.690   4.836  20.426  0.00  0.00    +0.000 HD
ENDROOT
BRANCH   1  10
ATOM      7  C   UNL     1       1.480   3.429  17.853  0.00  0.00    +0.000 A 
ATOM      8  C   UNL     1       1.838   4.772  17.875  0.00  0.00    +0.000 A 
ATOM      9  C   UNL     1       3.175   5.139  18.060  0.00  0.00    +0.000 A 
ATOM     10  C   UNL     1       4.181   4.170  18.173  0.00  0.00    +0.000 A 
ATOM     11  C   UNL     1       3.799   2.819  18.171  0.00  0.00    +0.000 A 
ATOM     12  C   UNL     1       2.458   2.451  18.019  0.00  0.00    +0.000 A 
ENDBRANCH   1  10
BRANCH   5  13
ATOM     13  N   UNL     1       6.645   4.626  15.985  0.00  0.00    +0.000 N 
ATOM     14  C   UNL     1       5.943   3.704  15.238  0.00  0.00    +0.000 A 
ATOM     15  N   UNL     1       6.226   3.821  13.961  0.00  0.00    +0.000 NA
ATOM     16  C   UNL     1       7.108   4.854  13.951  0.00  0.00    +0.000 A 
ATOM     17  N   UNL     1       7.390   5.379  15.141  0.00  0.00    +0.000 NA
ENDBRANCH   5  13
TORSDOF 2
ENDMDL
MODEL 3
REMARK VINA RESULT:      -6.9      1.425      3.469
REMARK  Name = 
REMARK  2 active torsions:
REMARK  status: ('A' for Active; 'I' for Inactive)
REMARK    1  A    between atoms: C_4  and  C_5
REMARK    2  A    between atoms: C_9  and  N_10
REMARK                            x       y       z     vdW  Elec       q    Type
REMARK                         _______ _______ _______ _____ _____    ______ ____
ROOT
ATOM      1  C   UNL     1       5.276   4.678  15.946  0.00  0.00    +0.000 A 
ATOM      2  N   UNL     1       5.236   4.013  14.741  0.00  0.00    +0.000 N 
ATOM      3  N   UNL     1       6.359   4.105  14.010  0.00  0.00    +0.000 NA
ATOM      4  C   UNL     1       7.167   4.837  14.775  0.00  0.00    +0.000 A 
ATOM      5  C   UNL     1       6.559   5.213  15.992  0.00  0.00    +0.000 A 
ATOM      6  H   UNL     1       4.467   3.465  14.368  0.00  0.00    +0.000 HD
ENDROOT
BRANCH   1  10
ATOM      7  C   UNL     1       1.894   4.632  18.578  0.00  0.00    +0.000 A 
ATOM      8  C   UNL     1       2.596   5.813  18.366  0.00  0.00    +0.000 A 
ATOM      9  C   UNL     1       3.723   5.820  17.539  0.00  0.00    +0.000 A 
ATOM     10  C   UNL     1       4.135   4.661  16.869  0.00  0.00    +0.000 A 
ATOM     11  C   UNL     1       3.429   3.472  17.113  0.00  0.00    +0.000 A 
ATOM     12  C   UNL     1       2.321   3.456  17.966  0.00  0.00    +0.000 A 
ENDBRANCH   1  10
BRANCH   5  13
ATOM     13  N   UNL     1       7.180   5.993  16.999  0.00  0.00    +0.000 N 
ATOM     14  C   UNL     1       7.582   5.562  18.245  0.00  0.00    +0.000 A 
ATOM     15  N   UNL     1       8.073   6.554  18.950  0.00  0.00    +0.000 NA
ATOM     16  C   UNL     1       7.977   7.600  18.089  0.00  0.00    +0.000 A 
ATOM     17  N   UNL     1       7.452   7.317  16.899  0.00  0.00    +0.000 NA
ENDBRANCH   5  13
TORSDOF 2
ENDMDL
MODEL 4
REMARK VINA RESULT:      -6.8      1.270      3.513
REMARK  Name = 
REMARK  2 active torsions:
REMARK  status: ('A' for Active; 'I' for Inactive)
REMARK    1  A    between atoms: C_4  and  C_5
REMARK    2  A    between atoms: C_9  and  N_10
REMARK                            x       y       z     vdW  Elec       q    Type
REMARK                         _______ _______ _______ _____ _____    ______ ____
ROOT
ATOM      1  C   UNL     1       5.156   4.522  16.124  0.00  0.00    +0.000 A 
ATOM      2  N   UNL     1       5.130   4.064  14.826  0.00  0.00    +0.000 N 
ATOM      3  N   UNL     1       6.287   4.201  14.158  0.00  0.00    +0.000 NA
ATOM      4  C   UNL     1       7.102   4.747  15.059  0.00  0.00    +0.000 A 
ATOM      5  C   UNL     1       6.465   4.961  16.300  0.00  0.00    +0.000 A 
ATOM      6  H   UNL     1       4.348   3.633  14.342  0.00  0.00    +0.000 HD
ENDROOT
BRANCH   1  10
ATOM      7  C   UNL     1       1.665   4.255  18.596  0.00  0.00    +0.000 A 
ATOM      8  C   UNL     1       2.322   5.471  18.447  0.00  0.00    +0.000 A 
ATOM      9  C   UNL     1       3.484   5.550  17.673  0.00  0.00    +0.000 A 
ATOM     10  C   UNL     1       3.977   4.430  16.993  0.00  0.00    +0.000 A 
ATOM     11  C   UNL     1       3.315   3.205  17.173  0.00  0.00    +0.000 A 
ATOM     12  C   UNL     1       2.171   3.117  17.974  0.00  0.00    +0.000 A 
ENDBRANCH   1  10
BRANCH   5  13
ATOM     13  N   UNL     1       7.085   5.527  17.441  0.00  0.00    +0.000 N 
ATOM     14  C   UNL     1       7.574   6.810  17.562  0.00  0.00    +0.000 A 
ATOM     15  N   UNL     1       8.134   6.991  18.736  0.00  0.00    +0.000 NA
ATOM     16  C   UNL     1       7.954   5.785  19.334  0.00  0.00    +0.000 A 
ATOM     17  N   UNL     1       7.323   4.870  18.602  0.00  0.00    +0.000 NA
ENDBRANCH   5  13
TORSDOF 2
ENDMDL
MODEL 5
REMARK VINA RESULT:      -6.8      1.306      3.337
REMARK  Name = 
REMARK  2 active torsions:
REMARK  status: ('A' for Active; 'I' for Inactive)
REMARK    1  A    between atoms: C_4  and  C_5
REMARK    2  A    between atoms: C_9  and  N_10
REMARK                            x       y       z     vdW  Elec       q    Type
REMARK                         _______ _______ _______ _____ _____    ______ ____
ROOT
ATOM      1  C   UNL     1       5.160   4.568  16.083  0.00  0.00    +0.000 A 
ATOM      2  N   UNL     1       5.131   4.094  14.791  0.00  0.00    +0.000 N 
ATOM      3  N   UNL     1       6.298   4.186  14.132  0.00  0.00    +0.000 NA
ATOM      4  C   UNL     1       7.121   4.718  15.033  0.00  0.00    +0.000 A 
ATOM      5  C   UNL     1       6.480   4.968  16.265  0.00  0.00    +0.000 A 
ATOM      6  H   UNL     1       4.341   3.681  14.305  0.00  0.00    +0.000 HD
ENDROOT
BRANCH   1  10
ATOM      7  C   UNL     1       1.734   4.429  18.655  0.00  0.00    +0.000 A 
ATOM      8  C   UNL     1       2.118   3.298  17.945  0.00  0.00    +0.000 A 
ATOM      9  C   UNL     1       3.212   3.354  17.075  0.00  0.00    +0.000 A 
ATOM     10  C   UNL     1       3.971   4.523  16.942  0.00  0.00    +0.000 A 
ATOM     11  C   UNL     1       3.555   5.663  17.649  0.00  0.00    +0.000 A 
ATOM     12  C   UNL     1       2.442   5.618  18.494  0.00  0.00    +0.000 A 
ENDBRANCH   1  10
BRANCH   5  13
ATOM     13  N   UNL     1       7.107   5.530  17.405  0.00  0.00    +0.000 N 
ATOM     14  C   UNL     1       7.525   6.835  17.556  0.00  0.00    +0.000 A 
ATOM     15  N   UNL     1       8.115   7.008  18.716  0.00  0.00    +0.000 NA
ATOM     16  C   UNL     1       8.028   5.772  19.275  0.00  0.00    +0.000 A 
ATOM     17  N   UNL     1       7.426   4.848  18.531  0.00  0.00    +0.000 NA
ENDBRANCH   5  13
TORSDOF 2
ENDMDL
MODEL 6
REMARK VINA RESULT:      -6.8      2.433      4.040
REMARK  Name = 
REMARK  2 active torsions:
REMARK  status: ('A' for Active; 'I' for Inactive)
REMARK    1  A    between atoms: C_4  and  C_5
REMARK    2  A    between atoms: C_9  and  N_10
REMARK                            x       y       z     vdW  Elec       q    Type
REMARK                         _______ _______ _______ _____ _____    ______ ____
ROOT
ATOM      1  C   UNL     1       3.399   4.813  19.380  0.00  0.00    +0.000 A 
ATOM      2  N   UNL     1       2.574   3.808  19.832  0.00  0.00    +0.000 N 
ATOM      3  N   UNL     1       3.173   2.615  19.986  0.00  0.00    +0.000 NA
ATOM      4  C   UNL     1       4.438   2.857  19.642  0.00  0.00    +0.000 A 
ATOM      5  C   UNL     1       4.644   4.202  19.268  0.00  0.00    +0.000 A 
ATOM      6  H   UNL     1       1.590   3.880  20.067  0.00  0.00    +0.000 HD
ENDROOT
BRANCH   1  10
ATOM      7  C   UNL     1       1.874   8.771  18.765  0.00  0.00    +0.000 A 
ATOM      8  C   UNL     1       2.637   8.157  17.779  0.00  0.00    +0.000 A 
ATOM      9  C   UNL     1       3.168   6.882  17.994  0.00  0.00    +0.000 A 
ATOM     10  C   UNL     1       2.902   6.179  19.176  0.00  0.00    +0.000 A 
ATOM     11  C   UNL     1       2.149   6.822  20.171  0.00  0.00    +0.000 A 
ATOM     12  C   UNL     1       1.644   8.111  19.970  0.00  0.00    +0.000 A 
ENDBRANCH   1  10
BRANCH   5  13
ATOM     13  N   UNL     1       5.887   4.745  18.856  0.00  0.00    +0.000 N 
ATOM     14  C   UNL     1       6.420   4.710  17.585  0.00  0.00    +0.000 A 
ATOM     15  N   UNL     1       7.612   5.260  17.561  0.00  0.00    +0.000 NA
ATOM     16  C   UNL     1       7.781   5.649  18.852  0.00  0.00    +0.000 A 
ATOM     17  N   UNL     1       6.770   5.369  19.671  0.00  0.00    +0.000 NA
ENDBRANCH   5  13
TORSDOF 2
ENDMDL
MODEL 7
REMARK VINA RESULT:      -6.7      2.410      4.029
REMARK  Name = 
REMARK  2 active torsions:
REMARK  status: ('A' for Active; 'I' for Inactive)
REMARK    1  A    between atoms: C_4  and  C_5
REMARK    2  A    between atoms: C_9  and  N_10
REMARK                            x       y       z     vdW  Elec       q    Type
REMARK                         _______ _______ _______ _____ _____    ______ ____
ROOT
ATOM      1  C   UNL     1       3.402   4.756  19.377  0.00  0.00    +0.000 A 
ATOM      2  N   UNL     1       2.592   3.740  19.833  0.00  0.00    +0.000 N 
ATOM      3  N   UNL     1       3.211   2.559  19.998  0.00  0.00    +0.000 NA
ATOM      4  C   UNL     1       4.472   2.820  19.659  0.00  0.00    +0.000 A 
ATOM      5  C   UNL     1       4.657   4.165  19.275  0.00  0.00    +0.000 A 
ATOM      6  H   UNL     1       1.605   3.797  20.063  0.00  0.00    +0.000 HD
ENDROOT
BRANCH   1  10
ATOM      7  C   UNL     1       1.955   8.743  18.762  0.00  0.00    +0.000 A 
ATOM      8  C   UNL     1       1.688   8.081  19.954  0.00  0.00    +0.000 A 
ATOM      9  C   UNL     1       2.125   6.766  20.140  0.00  0.00    +0.000 A 
ATOM     10  C   UNL     1       2.882   6.111  19.160  0.00  0.00    +0.000 A 
ATOM     11  C   UNL     1       3.123   6.786  17.952  0.00  0.00    +0.000 A 
ATOM     12  C   UNL     1       2.658   8.090  17.753  0.00  0.00    +0.000 A 
ENDBRANCH   1  10
BRANCH   5  13
ATOM     13  N   UNL     1       5.892   4.727  18.864  0.00  0.00    +0.000 N 
ATOM     14  C   UNL     1       6.419   4.716  17.590  0.00  0.00    +0.000 A 
ATOM     15  N   UNL     1       7.605   5.278  17.568  0.00  0.00    +0.000 NA
ATOM     16  C   UNL     1       7.778   5.648  18.864  0.00  0.00    +0.000 A 
ATOM     17  N   UNL     1       6.775   5.346  19.685  0.00  0.00    +0.000 NA
ENDBRANCH   5  13
TORSDOF 2
ENDMDL
MODEL 8
REMARK VINA RESULT:      -6.6      2.535      3.614
REMARK  Name = 
REMARK  2 active torsions:
REMARK  status: ('A' for Active; 'I' for Inactive)
REMARK    1  A    between atoms: C_4  and  C_5
REMARK    2  A    between atoms: C_9  and  N_10
REMARK                            x       y       z     vdW  Elec       q    Type
REMARK                         _______ _______ _______ _____ _____    ______ ____
ROOT
ATOM      1  C   UNL     1       2.793   6.086  18.564  0.00  0.00    +0.000 A 
ATOM      2  N   UNL     1       2.025   7.191  18.276  0.00  0.00    +0.000 N 
ATOM      3  N   UNL     1       2.664   8.159  17.598  0.00  0.00    +0.000 NA
ATOM      4  C   UNL     1       3.885   7.657  17.419  0.00  0.00    +0.000 A 
ATOM      5  C   UNL     1       4.025   6.372  17.984  0.00  0.00    +0.000 A 
ATOM      6  H   UNL     1       1.047   7.337  18.507  0.00  0.00    +0.000 HD
ENDROOT
BRANCH   1  10
ATOM      7  C   UNL     1       1.243   2.688  20.667  0.00  0.00    +0.000 A 
ATOM      8  C   UNL     1       1.019   2.824  19.302  0.00  0.00    +0.000 A 
ATOM      9  C   UNL     1       1.490   3.952  18.623  0.00  0.00    +0.000 A 
ATOM     10  C   UNL     1       2.238   4.934  19.285  0.00  0.00    +0.000 A 
ATOM     11  C   UNL     1       2.434   4.793  20.668  0.00  0.00    +0.000 A 
ATOM     12  C   UNL     1       1.936   3.680  21.355  0.00  0.00    +0.000 A 
ENDBRANCH   1  10
BRANCH   5  13
ATOM     13  N   UNL     1       5.211   5.596  17.948  0.00  0.00    +0.000 N 
ATOM     14  C   UNL     1       5.972   5.204  19.028  0.00  0.00    +0.000 A 
ATOM     15  N   UNL     1       7.035   4.540  18.637  0.00  0.00    +0.000 NA
ATOM     16  C   UNL     1       6.889   4.523  17.287  0.00  0.00    +0.000 A 
ATOM     17  N   UNL     1       5.805   5.139  16.820  0.00  0.00    +0.000 NA
ENDBRANCH   5  13
TORSDOF 2
ENDMDL
MODEL 9
REMARK VINA RESULT:      -6.6      2.427      3.569
REMARK  Name = 
REMARK  2 active torsions:
REMARK  status: ('A' for Active; 'I' for Inactive)
REMARK    1  A    between atoms: C_4  and  C_5
REMARK    2  A    between atoms: C_9  and  N_10
REMARK                            x       y       z     vdW  Elec       q    Type
REMARK                         _______ _______ _______ _____ _____    ______ ____
ROOT
ATOM      1  C   UNL     1       2.747   6.130  18.354  0.00  0.00    +0.000 A 
ATOM      2  N   UNL     1       2.011   7.272  18.129  0.00  0.00    +0.000 N 
ATOM      3  N   UNL     1       2.704   8.291  17.595  0.00  0.00    +0.000 NA
ATOM      4  C   UNL     1       3.929   7.789  17.448  0.00  0.00    +0.000 A 
ATOM      5  C   UNL     1       4.018   6.452  17.889  0.00  0.00    +0.000 A 
ATOM      6  H   UNL     1       1.021   7.410  18.308  0.00  0.00    +0.000 HD
ENDROOT
BRANCH   1  10
ATOM      7  C   UNL     1       0.881   2.632  19.981  0.00  0.00    +0.000 A 
ATOM      8  C   UNL     1       1.318   3.644  20.826  0.00  0.00    +0.000 A 
ATOM      9  C   UNL     1       1.963   4.768  20.299  0.00  0.00    +0.000 A 
ATOM     10  C   UNL     1       2.133   4.922  18.917  0.00  0.00    +0.000 A 
ATOM     11  C   UNL     1       1.706   3.879  18.080  0.00  0.00    +0.000 A 
ATOM     12  C   UNL     1       1.090   2.739  18.609  0.00  0.00    +0.000 A 
ENDBRANCH   1  10
BRANCH   5  13
ATOM     13  N   UNL     1       5.196   5.664  17.854  0.00  0.00    +0.000 N 
ATOM     14  C   UNL     1       5.874   5.147  18.937  0.00  0.00    +0.000 A 
ATOM     15  N   UNL     1       6.955   4.509  18.553  0.00  0.00    +0.000 NA
ATOM     16  C   UNL     1       6.907   4.638  17.202  0.00  0.00    +0.000 A 
ATOM     17  N   UNL     1       5.865   5.319  16.728  0.00  0.00    +0.000 NA
ENDBRANCH   5  13
TORSDOF 2
ENDMDL
