MODEL 1
REMARK VINA RESULT:      -8.6      0.000      0.000
REMARK  Name = 
REMARK  3 active torsions:
REMARK  status: ('A' for Active; 'I' for Inactive)
REMARK    1  A    between atoms: N_3  and  C_4
REMARK    2  A    between atoms: N_13  and  C_14
REMARK    3  A    between atoms: C_14  and  C_15
REMARK                            x       y       z     vdW  Elec       q    Type
REMARK                         _______ _______ _______ _____ _____    ______ ____
ROOT
ATOM      1  O   UNL     1       1.755   8.786  19.274  0.00  0.00    +0.000 OA
ATOM      2  C   UNL     1       1.583   7.936  20.144  0.00  0.00    +0.000 C 
ATOM      3  N   UNL     1       0.877   8.157  21.299  0.00  0.00    +0.000 N 
ATOM      4  N   UNL     1       2.105   6.660  20.002  0.00  0.00    +0.000 N 
ATOM      5  C   UNL     1       1.905   5.500  20.886  0.00  0.00    +0.000 C 
ATOM      6  C   UNL     1       1.370   4.273  20.111  0.00  0.00    +0.000 C 
ATOM      7  N   UNL     1       2.122   3.941  18.880  0.00  0.00    +0.000 NA
ATOM      8  C   UNL     1       2.203   5.162  18.042  0.00  0.00    +0.000 C 
ATOM      9  C   UNL     1       2.836   6.363  18.764  0.00  0.00    +0.000 C 
ATOM     10  H   UNL     1       1.048   7.525  22.061  0.00  0.00    +0.000 HD
ENDROOT
BRANCH   3  11
ATOM     11  C   UNL     1       0.143   9.315  21.630  0.00  0.00    +0.000 A 
ATOM     12  C   UNL     1      -0.206  10.314  20.723  0.00  0.00    +0.000 A 
ATOM     13  C   UNL     1      -0.893  11.441  21.166  0.00  0.00    +0.000 A 
ATOM     14  C   UNL     1      -1.232  11.526  22.505  0.00  0.00    +0.000 A 
ATOM     15  N   UNL     1      -0.944  10.567  23.412  0.00  0.00    +0.000 NA
ATOM     16  C   UNL     1      -0.271   9.487  22.949  0.00  0.00    +0.000 A 
ENDBRANCH   3  11
BRANCH   7  17
ATOM     17  C   UNL     1       3.446   3.393  19.216  0.00  0.00    +0.000 C 
BRANCH  17  18
ATOM     18  C   UNL     1       4.520   3.738  18.221  0.00  0.00    +0.000 A 
ATOM     19  C   UNL     1       5.698   4.343  18.633  0.00  0.00    +0.000 A 
ATOM     20  N   UNL     1       6.667   4.770  17.794  0.00  0.00    +0.000 NA
ATOM     21  C   UNL     1       6.493   4.564  16.478  0.00  0.00    +0.000 A 
ATOM     22  C   UNL     1       7.439   5.047  15.585  0.00  0.00    +0.000 A 
ATOM     23  C   UNL     1       7.313   4.856  14.207  0.00  0.00    +0.000 A 
ATOM     24  C   UNL     1       6.231   4.142  13.701  0.00  0.00    +0.000 A 
ATOM     25  C   UNL     1       5.258   3.657  14.573  0.00  0.00    +0.000 A 
ATOM     26  C   UNL     1       5.368   3.889  15.957  0.00  0.00    +0.000 A 
ATOM     27  C   UNL     1       4.372   3.488  16.855  0.00  0.00    +0.000 A 
ENDBRANCH  17  18
ENDBRANCH   7  17
TORSDOF 3
ENDMDL
MODEL 2
REMARK VINA RESULT:      -8.6      1.682      2.461
REMARK  Name = 
REMARK  3 active torsions:
REMARK  status: ('A' for Active; 'I' for Inactive)
REMARK    1  A    between atoms: N_3  and  C_4
REMARK    2  A    between atoms: N_13  and  C_14
REMARK    3  A    between atoms: C_14  and  C_15
REMARK                            x       y       z     vdW  Elec       q    Type
REMARK                         _______ _______ _______ _____ _____    ______ ____
ROOT
ATOM      1  O   UNL     1       1.180   7.458  20.996  0.00  0.00    +0.000 OA
ATOM      2  C   UNL     1       1.575   7.817  19.889  0.00  0.00    +0.000 C 
ATOM      3  N   UNL     1       1.258   9.025  19.320  0.00  0.00    +0.000 N 
ATOM      4  N   UNL     1       2.396   6.999  19.129  0.00  0.00    +0.000 N 
ATOM      5  C   UNL     1       3.042   7.314  17.843  0.00  0.00    +0.000 C 
ATOM      6  C   UNL     1       4.570   7.089  17.899  0.00  0.00    +0.000 C 
ATOM      7  N   UNL     1       4.985   5.779  18.451  0.00  0.00    +0.000 NA
ATOM      8  C   UNL     1       4.327   5.602  19.768  0.00  0.00    +0.000 C 
ATOM      9  C   UNL     1       2.795   5.713  19.711  0.00  0.00    +0.000 C 
ATOM     10  H   UNL     1       1.365   9.096  18.324  0.00  0.00    +0.000 HD
ENDROOT
BRANCH   3  11
ATOM     11  C   UNL     1       0.551  10.083  19.927  0.00  0.00    +0.000 A 
ATOM     12  C   UNL     1      -0.718  10.510  19.538  0.00  0.00    +0.000 A 
ATOM     13  C   UNL     1      -1.307  11.598  20.175  0.00  0.00    +0.000 A 
ATOM     14  C   UNL     1      -0.618  12.215  21.205  0.00  0.00    +0.000 A 
ATOM     15  N   UNL     1       0.597  11.814  21.638  0.00  0.00    +0.000 NA
ATOM     16  C   UNL     1       1.145  10.757  20.992  0.00  0.00    +0.000 A 
ENDBRANCH   3  11
BRANCH   7  17
ATOM     17  C   UNL     1       4.666   4.696  17.506  0.00  0.00    +0.000 C 
BRANCH  17  18
ATOM     18  C   UNL     1       5.523   4.693  16.271  0.00  0.00    +0.000 A 
ATOM     19  C   UNL     1       6.704   5.417  16.226  0.00  0.00    +0.000 A 
ATOM     20  N   UNL     1       7.478   5.542  15.126  0.00  0.00    +0.000 NA
ATOM     21  C   UNL     1       7.096   4.894  14.013  0.00  0.00    +0.000 A 
ATOM     22  C   UNL     1       7.834   5.052  12.848  0.00  0.00    +0.000 A 
ATOM     23  C   UNL     1       7.487   4.397  11.664  0.00  0.00    +0.000 A 
ATOM     24  C   UNL     1       6.392   3.540  11.641  0.00  0.00    +0.000 A 
ATOM     25  C   UNL     1       5.624   3.372  12.791  0.00  0.00    +0.000 A 
ATOM     26  C   UNL     1       5.953   4.067  13.970  0.00  0.00    +0.000 A 
ATOM     27  C   UNL     1       5.160   3.986  15.121  0.00  0.00    +0.000 A 
ENDBRANCH  17  18
ENDBRANCH   7  17
TORSDOF 3
ENDMDL
MODEL 3
REMARK VINA RESULT:      -8.5      1.516      2.341
REMARK  Name = 
REMARK  3 active torsions:
REMARK  status: ('A' for Active; 'I' for Inactive)
REMARK    1  A    between atoms: N_3  and  C_4
REMARK    2  A    between atoms: N_13  and  C_14
REMARK    3  A    between atoms: C_14  and  C_15
REMARK                            x       y       z     vdW  Elec       q    Type
REMARK                         _______ _______ _______ _____ _____    ______ ____
ROOT
ATOM      1  O   UNL     1       1.163   5.970  21.129  0.00  0.00    +0.000 OA
ATOM      2  C   UNL     1       1.738   6.544  20.208  0.00  0.00    +0.000 C 
ATOM      3  N   UNL     1       1.632   7.889  19.962  0.00  0.00    +0.000 N 
ATOM      4  N   UNL     1       2.560   5.844  19.339  0.00  0.00    +0.000 N 
ATOM      5  C   UNL     1       3.402   6.386  18.259  0.00  0.00    +0.000 C 
ATOM      6  C   UNL     1       4.876   5.943  18.404  0.00  0.00    +0.000 C 
ATOM      7  N   UNL     1       5.069   4.491  18.615  0.00  0.00    +0.000 NA
ATOM      8  C   UNL     1       4.227   4.073  19.761  0.00  0.00    +0.000 C 
ATOM      9  C   UNL     1       2.736   4.408  19.584  0.00  0.00    +0.000 C 
ATOM     10  H   UNL     1       1.879   8.201  19.039  0.00  0.00    +0.000 HD
ENDROOT
BRANCH   3  11
ATOM     11  C   UNL     1       0.969   8.843  20.761  0.00  0.00    +0.000 A 
ATOM     12  C   UNL     1      -0.055   9.674  20.311  0.00  0.00    +0.000 A 
ATOM     13  C   UNL     1      -0.611  10.616  21.172  0.00  0.00    +0.000 A 
ATOM     14  C   UNL     1      -0.140  10.683  22.472  0.00  0.00    +0.000 A 
ATOM     15  N   UNL     1       0.825   9.874  22.961  0.00  0.00    +0.000 NA
ATOM     16  C   UNL     1       1.348   8.974  22.095  0.00  0.00    +0.000 A 
ENDBRANCH   3  11
BRANCH   7  17
ATOM     17  C   UNL     1       4.765   3.745  17.384  0.00  0.00    +0.000 C 
BRANCH  17  18
ATOM     18  C   UNL     1       5.653   4.095  16.222  0.00  0.00    +0.000 A 
ATOM     19  C   UNL     1       6.717   4.971  16.383  0.00  0.00    +0.000 A 
ATOM     20  N   UNL     1       7.499   5.409  15.373  0.00  0.00    +0.000 NA
ATOM     21  C   UNL     1       7.253   4.940  14.138  0.00  0.00    +0.000 A 
ATOM     22  C   UNL     1       7.997   5.418  13.070  0.00  0.00    +0.000 A 
ATOM     23  C   UNL     1       7.789   4.960  11.766  0.00  0.00    +0.000 A 
ATOM     24  C   UNL     1       6.833   3.980  11.519  0.00  0.00    +0.000 A 
ATOM     25  C   UNL     1       6.061   3.491  12.571  0.00  0.00    +0.000 A 
ATOM     26  C   UNL     1       6.245   3.987  13.875  0.00  0.00    +0.000 A 
ATOM     27  C   UNL     1       5.436   3.578  14.942  0.00  0.00    +0.000 A 
ENDBRANCH  17  18
ENDBRANCH   7  17
TORSDOF 3
ENDMDL
MODEL 4
REMARK VINA RESULT:      -8.4      1.348      1.916
REMARK  Name = 
REMARK  3 active torsions:
REMARK  status: ('A' for Active; 'I' for Inactive)
REMARK    1  A    between atoms: N_3  and  C_4
REMARK    2  A    between atoms: N_13  and  C_14
REMARK    3  A    between atoms: C_14  and  C_15
REMARK                            x       y       z     vdW  Elec       q    Type
REMARK                         _______ _______ _______ _____ _____    ______ ____
ROOT
ATOM      1  O   UNL     1       2.143   8.644  18.467  0.00  0.00    +0.000 OA
ATOM      2  C   UNL     1       2.362   7.819  19.351  0.00  0.00    +0.000 C 
ATOM      3  N   UNL     1       1.844   7.902  20.618  0.00  0.00    +0.000 N 
ATOM      4  N   UNL     1       3.167   6.717  19.109  0.00  0.00    +0.000 N 
ATOM      5  C   UNL     1       3.443   5.586  20.010  0.00  0.00    +0.000 C 
ATOM      6  C   UNL     1       3.119   4.229  19.344  0.00  0.00    +0.000 C 
ATOM      7  N   UNL     1       3.696   4.047  17.993  0.00  0.00    +0.000 NA
ATOM      8  C   UNL     1       3.300   5.208  17.160  0.00  0.00    +0.000 C 
ATOM      9  C   UNL     1       3.714   6.563  17.755  0.00  0.00    +0.000 C 
ATOM     10  H   UNL     1       2.311   7.372  21.333  0.00  0.00    +0.000 HD
ENDROOT
BRANCH   3  11
ATOM     11  C   UNL     1       0.904   8.844  21.085  0.00  0.00    +0.000 A 
ATOM     12  C   UNL     1       0.518   8.979  22.417  0.00  0.00    +0.000 A 
ATOM     13  C   UNL     1      -0.455   9.912  22.764  0.00  0.00    +0.000 A 
ATOM     14  C   UNL     1      -0.999  10.703  21.767  0.00  0.00    +0.000 A 
ATOM     15  N   UNL     1      -0.630  10.631  20.470  0.00  0.00    +0.000 NA
ATOM     16  C   UNL     1       0.314   9.709  20.166  0.00  0.00    +0.000 A 
ENDBRANCH   3  11
BRANCH   7  17
ATOM     17  C   UNL     1       5.156   3.878  18.074  0.00  0.00    +0.000 C 
BRANCH  17  18
ATOM     18  C   UNL     1       5.876   4.160  16.784  0.00  0.00    +0.000 A 
ATOM     19  C   UNL     1       6.936   5.054  16.746  0.00  0.00    +0.000 A 
ATOM     20  N   UNL     1       7.570   5.433  15.615  0.00  0.00    +0.000 NA
ATOM     21  C   UNL     1       7.170   4.882  14.457  0.00  0.00    +0.000 A 
ATOM     22  C   UNL     1       7.758   5.297  13.270  0.00  0.00    +0.000 A 
ATOM     23  C   UNL     1       7.386   4.753  12.038  0.00  0.00    +0.000 A 
ATOM     24  C   UNL     1       6.424   3.751  11.983  0.00  0.00    +0.000 A 
ATOM     25  C   UNL     1       5.807   3.324  13.157  0.00  0.00    +0.000 A 
ATOM     26  C   UNL     1       6.154   3.905  14.391  0.00  0.00    +0.000 A 
ATOM     27  C   UNL     1       5.501   3.559  15.580  0.00  0.00    +0.000 A 
ENDBRANCH  17  18
ENDBRANCH   7  17
TORSDOF 3
ENDMDL
MODEL 5
REMARK VINA RESULT:      -8.4      3.006      5.643
REMARK  Name = 
REMARK  3 active torsions:
REMARK  status: ('A' for Active; 'I' for Inactive)
REMARK    1  A    between atoms: N_3  and  C_4
REMARK    2  A    between atoms: N_13  and  C_14
REMARK    3  A    between atoms: C_14  and  C_15
REMARK                            x       y       z     vdW  Elec       q    Type
REMARK                         _______ _______ _______ _____ _____    ______ ____
ROOT
ATOM      1  O   UNL     1      -0.964  13.390  21.285  0.00  0.00    +0.000 OA
ATOM      2  C   UNL     1      -0.875  12.568  22.193  0.00  0.00    +0.000 C 
ATOM      3  N   UNL     1      -1.396  12.758  23.447  0.00  0.00    +0.000 N 
ATOM      4  N   UNL     1      -0.229  11.358  21.994  0.00  0.00    +0.000 N 
ATOM      5  C   UNL     1      -0.126  10.226  22.930  0.00  0.00    +0.000 C 
ATOM      6  C   UNL     1      -0.627   8.909  22.293  0.00  0.00    +0.000 C 
ATOM      7  N   UNL     1      -0.061   8.611  20.958  0.00  0.00    +0.000 NA
ATOM      8  C   UNL     1      -0.279   9.791  20.088  0.00  0.00    +0.000 C 
ATOM      9  C   UNL     1       0.312  11.092  20.656  0.00  0.00    +0.000 C 
ATOM     10  H   UNL     1      -1.017  12.188  24.184  0.00  0.00    +0.000 HD
ENDROOT
BRANCH   3  11
ATOM     11  C   UNL     1      -2.201  13.834  23.873  0.00  0.00    +0.000 A 
ATOM     12  C   UNL     1      -3.575  13.925  23.653  0.00  0.00    +0.000 A 
ATOM     13  C   UNL     1      -4.269  15.056  24.075  0.00  0.00    +0.000 A 
ATOM     14  C   UNL     1      -3.569  16.056  24.728  0.00  0.00    +0.000 A 
ATOM     15  N   UNL     1      -2.247  15.995  24.992  0.00  0.00    +0.000 NA
ATOM     16  C   UNL     1      -1.601  14.884  24.563  0.00  0.00    +0.000 A 
ENDBRANCH   3  11
BRANCH   7  17
ATOM     17  C   UNL     1       1.360   8.242  21.070  0.00  0.00    +0.000 C 
BRANCH  17  18
ATOM     18  C   UNL     1       1.739   7.024  20.273  0.00  0.00    +0.000 A 
ATOM     19  C   UNL     1       2.502   7.141  19.121  0.00  0.00    +0.000 A 
ATOM     20  N   UNL     1       2.803   6.111  18.300  0.00  0.00    +0.000 NA
ATOM     21  C   UNL     1       2.363   4.888  18.641  0.00  0.00    +0.000 A 
ATOM     22  C   UNL     1       2.600   3.820  17.789  0.00  0.00    +0.000 A 
ATOM     23  C   UNL     1       2.173   2.525  18.096  0.00  0.00    +0.000 A 
ATOM     24  C   UNL     1       1.515   2.279  19.296  0.00  0.00    +0.000 A 
ATOM     25  C   UNL     1       1.250   3.335  20.166  0.00  0.00    +0.000 A 
ATOM     26  C   UNL     1       1.645   4.644  19.832  0.00  0.00    +0.000 A 
ATOM     27  C   UNL     1       1.328   5.741  20.642  0.00  0.00    +0.000 A 
ENDBRANCH  17  18
ENDBRANCH   7  17
TORSDOF 3
ENDMDL
MODEL 6
REMARK VINA RESULT:      -8.4      2.607     10.325
REMARK  Name = 
REMARK  3 active torsions:
REMARK  status: ('A' for Active; 'I' for Inactive)
REMARK    1  A    between atoms: N_3  and  C_4
REMARK    2  A    between atoms: N_13  and  C_14
REMARK    3  A    between atoms: C_14  and  C_15
REMARK                            x       y       z     vdW  Elec       q    Type
REMARK                         _______ _______ _______ _____ _____    ______ ____
ROOT
ATOM      1  O   UNL     1       1.863   5.962  20.982  0.00  0.00    +0.000 OA
ATOM      2  C   UNL     1       2.029   6.721  20.030  0.00  0.00    +0.000 C 
ATOM      3  N   UNL     1       2.538   6.326  18.819  0.00  0.00    +0.000 N 
ATOM      4  N   UNL     1       1.696   8.063  20.126  0.00  0.00    +0.000 N 
ATOM      5  C   UNL     1       1.728   9.079  19.060  0.00  0.00    +0.000 C 
ATOM      6  C   UNL     1       0.365   9.792  18.907  0.00  0.00    +0.000 C 
ATOM      7  N   UNL     1      -0.218  10.296  20.171  0.00  0.00    +0.000 NA
ATOM      8  C   UNL     1      -0.259   9.176  21.142  0.00  0.00    +0.000 C 
ATOM      9  C   UNL     1       1.112   8.526  21.390  0.00  0.00    +0.000 C 
ATOM     10  H   UNL     1       2.915   7.049  18.230  0.00  0.00    +0.000 HD
ENDROOT
BRANCH   3  11
ATOM     11  C   UNL     1       2.836   5.008  18.419  0.00  0.00    +0.000 A 
ATOM     12  C   UNL     1       1.933   4.152  17.790  0.00  0.00    +0.000 A 
ATOM     13  C   UNL     1       2.317   2.850  17.478  0.00  0.00    +0.000 A 
ATOM     14  C   UNL     1       3.605   2.448  17.785  0.00  0.00    +0.000 A 
ATOM     15  N   UNL     1       4.523   3.254  18.362  0.00  0.00    +0.000 NA
ATOM     16  C   UNL     1       4.115   4.511  18.657  0.00  0.00    +0.000 A 
ENDBRANCH   3  11
BRANCH   7  17
ATOM     17  C   UNL     1       0.548  11.451  20.668  0.00  0.00    +0.000 C 
BRANCH  17  18
ATOM     18  C   UNL     1      -0.227  12.342  21.599  0.00  0.00    +0.000 A 
ATOM     19  C   UNL     1       0.270  13.583  21.968  0.00  0.00    +0.000 A 
ATOM     20  N   UNL     1      -0.316  14.399  22.871  0.00  0.00    +0.000 NA
ATOM     21  C   UNL     1      -1.474  13.997  23.421  0.00  0.00    +0.000 A 
ATOM     22  C   UNL     1      -2.070  14.781  24.398  0.00  0.00    +0.000 A 
ATOM     23  C   UNL     1      -3.277  14.415  24.999  0.00  0.00    +0.000 A 
ATOM     24  C   UNL     1      -3.927  13.252  24.600  0.00  0.00    +0.000 A 
ATOM     25  C   UNL     1      -3.345  12.437  23.631  0.00  0.00    +0.000 A 
ATOM     26  C   UNL     1      -2.108  12.788  23.059  0.00  0.00    +0.000 A 
ATOM     27  C   UNL     1      -1.455  11.956  22.142  0.00  0.00    +0.000 A 
ENDBRANCH  17  18
ENDBRANCH   7  17
TORSDOF 3
ENDMDL
MODEL 7
REMARK VINA RESULT:      -8.3      3.278      5.784
REMARK  Name = 
REMARK  3 active torsions:
REMARK  status: ('A' for Active; 'I' for Inactive)
REMARK    1  A    between atoms: N_3  and  C_4
REMARK    2  A    between atoms: N_13  and  C_14
REMARK    3  A    between atoms: C_14  and  C_15
REMARK                            x       y       z     vdW  Elec       q    Type
REMARK                         _______ _______ _______ _____ _____    ______ ____
ROOT
ATOM      1  O   UNL     1      -0.193  13.897  21.359  0.00  0.00    +0.000 OA
ATOM      2  C   UNL     1      -0.387  12.895  22.043  0.00  0.00    +0.000 C 
ATOM      3  N   UNL     1      -1.176  12.879  23.165  0.00  0.00    +0.000 N 
ATOM      4  N   UNL     1       0.194  11.683  21.707  0.00  0.00    +0.000 N 
ATOM      5  C   UNL     1      -0.016  10.373  22.346  0.00  0.00    +0.000 C 
ATOM      6  C   UNL     1      -0.449   9.298  21.323  0.00  0.00    +0.000 C 
ATOM      7  N   UNL     1       0.395   9.221  20.109  0.00  0.00    +0.000 NA
ATOM      8  C   UNL     1       0.481  10.578  19.518  0.00  0.00    +0.000 C 
ATOM      9  C   UNL     1       1.017  11.641  20.492  0.00  0.00    +0.000 C 
ATOM     10  H   UNL     1      -1.029  12.121  23.809  0.00  0.00    +0.000 HD
ENDROOT
BRANCH   3  11
ATOM     11  C   UNL     1      -1.975  13.934  23.650  0.00  0.00    +0.000 A 
ATOM     12  C   UNL     1      -1.558  14.869  24.596  0.00  0.00    +0.000 A 
ATOM     13  C   UNL     1      -2.445  15.844  25.042  0.00  0.00    +0.000 A 
ATOM     14  C   UNL     1      -3.722  15.872  24.508  0.00  0.00    +0.000 A 
ATOM     15  N   UNL     1      -4.157  15.009  23.564  0.00  0.00    +0.000 NA
ATOM     16  C   UNL     1      -3.271  14.069  23.158  0.00  0.00    +0.000 A 
ENDBRANCH   3  11
BRANCH   7  17
ATOM     17  C   UNL     1       1.715   8.657  20.433  0.00  0.00    +0.000 C 
BRANCH  17  18
ATOM     18  C   UNL     1       1.930   7.265  19.907  0.00  0.00    +0.000 A 
ATOM     19  C   UNL     1       2.479   7.059  18.650  0.00  0.00    +0.000 A 
ATOM     20  N   UNL     1       2.615   5.848  18.069  0.00  0.00    +0.000 NA
ATOM     21  C   UNL     1       2.225   4.769  18.768  0.00  0.00    +0.000 A 
ATOM     22  C   UNL     1       2.292   3.516  18.176  0.00  0.00    +0.000 A 
ATOM     23  C   UNL     1       1.906   2.359  18.858  0.00  0.00    +0.000 A 
ATOM     24  C   UNL     1       1.466   2.444  20.175  0.00  0.00    +0.000 A 
ATOM     25  C   UNL     1       1.374   3.691  20.791  0.00  0.00    +0.000 A 
ATOM     26  C   UNL     1       1.724   4.857  20.085  0.00  0.00    +0.000 A 
ATOM     27  C   UNL     1       1.571   6.132  20.642  0.00  0.00    +0.000 A 
ENDBRANCH  17  18
ENDBRANCH   7  17
TORSDOF 3
ENDMDL
MODEL 8
REMARK VINA RESULT:      -8.2      4.031      6.310
REMARK  Name = 
REMARK  3 active torsions:
REMARK  status: ('A' for Active; 'I' for Inactive)
REMARK    1  A    between atoms: N_3  and  C_4
REMARK    2  A    between atoms: N_13  and  C_14
REMARK    3  A    between atoms: C_14  and  C_15
REMARK                            x       y       z     vdW  Elec       q    Type
REMARK                         _______ _______ _______ _____ _____    ______ ____
ROOT
ATOM      1  O   UNL     1       2.003  13.423  17.486  0.00  0.00    +0.000 OA
ATOM      2  C   UNL     1       1.607  13.305  18.643  0.00  0.00    +0.000 C 
ATOM      3  N   UNL     1       1.132  14.348  19.397  0.00  0.00    +0.000 N 
ATOM      4  N   UNL     1       1.610  12.071  19.272  0.00  0.00    +0.000 N 
ATOM      5  C   UNL     1       1.075  11.734  20.602  0.00  0.00    +0.000 C 
ATOM      6  C   UNL     1       0.064  10.567  20.535  0.00  0.00    +0.000 C 
ATOM      7  N   UNL     1       0.533   9.382  19.783  0.00  0.00    +0.000 NA
ATOM      8  C   UNL     1       0.983   9.831  18.444  0.00  0.00    +0.000 C 
ATOM      9  C   UNL     1       2.072  10.916  18.493  0.00  0.00    +0.000 C 
ATOM     10  H   UNL     1       1.125  14.219  20.394  0.00  0.00    +0.000 HD
ENDROOT
BRANCH   3  11
ATOM     11  C   UNL     1       0.906  15.670  18.961  0.00  0.00    +0.000 A 
ATOM     12  C   UNL     1      -0.336  16.172  18.575  0.00  0.00    +0.000 A 
ATOM     13  C   UNL     1      -0.440  17.481  18.115  0.00  0.00    +0.000 A 
ATOM     14  C   UNL     1       0.702  18.262  18.077  0.00  0.00    +0.000 A 
ATOM     15  N   UNL     1       1.918  17.830  18.473  0.00  0.00    +0.000 NA
ATOM     16  C   UNL     1       1.986  16.549  18.909  0.00  0.00    +0.000 A 
ENDBRANCH   3  11
BRANCH   7  17
ATOM     17  C   UNL     1       1.587   8.679  20.531  0.00  0.00    +0.000 C 
BRANCH  17  18
ATOM     18  C   UNL     1       1.876   7.293  20.023  0.00  0.00    +0.000 A 
ATOM     19  C   UNL     1       2.558   7.104  18.830  0.00  0.00    +0.000 A 
ATOM     20  N   UNL     1       2.772   5.899  18.260  0.00  0.00    +0.000 NA
ATOM     21  C   UNL     1       2.326   4.810  18.908  0.00  0.00    +0.000 A 
ATOM     22  C   UNL     1       2.474   3.562  18.320  0.00  0.00    +0.000 A 
ATOM     23  C   UNL     1       2.035   2.395  18.951  0.00  0.00    +0.000 A 
ATOM     24  C   UNL     1       1.458   2.465  20.215  0.00  0.00    +0.000 A 
ATOM     25  C   UNL     1       1.284   3.706  20.824  0.00  0.00    +0.000 A 
ATOM     26  C   UNL     1       1.689   4.882  20.166  0.00  0.00    +0.000 A 
ATOM     27  C   UNL     1       1.459   6.151  20.711  0.00  0.00    +0.000 A 
ENDBRANCH  17  18
ENDBRANCH   7  17
TORSDOF 3
ENDMDL
MODEL 9
REMARK VINA RESULT:      -8.1      1.911      2.661
REMARK  Name = 
REMARK  3 active torsions:
REMARK  status: ('A' for Active; 'I' for Inactive)
REMARK    1  A    between atoms: N_3  and  C_4
REMARK    2  A    between atoms: N_13  and  C_14
REMARK    3  A    between atoms: C_14  and  C_15
REMARK                            x       y       z     vdW  Elec       q    Type
REMARK                         _______ _______ _______ _____ _____    ______ ____
ROOT
ATOM      1  O   UNL     1       1.054   7.868  20.809  0.00  0.00    +0.000 OA
ATOM      2  C   UNL     1       1.494   8.180  19.705  0.00  0.00    +0.000 C 
ATOM      3  N   UNL     1       1.254   9.389  19.103  0.00  0.00    +0.000 N 
ATOM      4  N   UNL     1       2.288   7.304  18.983  0.00  0.00    +0.000 N 
ATOM      5  C   UNL     1       2.980   7.555  17.708  0.00  0.00    +0.000 C 
ATOM      6  C   UNL     1       4.493   7.252  17.807  0.00  0.00    +0.000 C 
ATOM      7  N   UNL     1       4.825   5.936  18.397  0.00  0.00    +0.000 NA
ATOM      8  C   UNL     1       4.128   5.823  19.701  0.00  0.00    +0.000 C 
ATOM      9  C   UNL     1       2.605   6.012  19.603  0.00  0.00    +0.000 C 
ATOM     10  H   UNL     1       1.388   9.433  18.108  0.00  0.00    +0.000 HD
ENDROOT
BRANCH   3  11
ATOM     11  C   UNL     1       0.589  10.497  19.669  0.00  0.00    +0.000 A 
ATOM     12  C   UNL     1       0.935  11.088  20.884  0.00  0.00    +0.000 A 
ATOM     13  C   UNL     1       0.181  12.150  21.375  0.00  0.00    +0.000 A 
ATOM     14  C   UNL     1      -0.887  12.607  20.623  0.00  0.00    +0.000 A 
ATOM     15  N   UNL     1      -1.236  12.088  19.426  0.00  0.00    +0.000 NA
ATOM     16  C   UNL     1      -0.486  11.052  18.980  0.00  0.00    +0.000 A 
ENDBRANCH   3  11
BRANCH   7  17
ATOM     17  C   UNL     1       4.473   4.850  17.468  0.00  0.00    +0.000 C 
BRANCH  17  18
ATOM     18  C   UNL     1       5.367   4.764  16.262  0.00  0.00    +0.000 A 
ATOM     19  C   UNL     1       6.598   5.404  16.246  0.00  0.00    +0.000 A 
ATOM     20  N   UNL     1       7.414   5.454  15.171  0.00  0.00    +0.000 NA
ATOM     21  C   UNL     1       7.024   4.814  14.056  0.00  0.00    +0.000 A 
ATOM     22  C   UNL     1       7.808   4.900  12.915  0.00  0.00    +0.000 A 
ATOM     23  C   UNL     1       7.454   4.249  11.730  0.00  0.00    +0.000 A 
ATOM     24  C   UNL     1       6.304   3.469  11.683  0.00  0.00    +0.000 A 
ATOM     25  C   UNL     1       5.489   3.377  12.809  0.00  0.00    +0.000 A 
ATOM     26  C   UNL     1       5.827   4.068  13.987  0.00  0.00    +0.000 A 
ATOM     27  C   UNL     1       4.994   4.064  15.112  0.00  0.00    +0.000 A 
ENDBRANCH  17  18
ENDBRANCH   7  17
TORSDOF 3
ENDMDL
