MODEL 1
REMARK VINA RESULT:      -6.3      0.000      0.000
REMARK  Name = 
REMARK  2 active torsions:
REMARK  status: ('A' for Active; 'I' for Inactive)
REMARK    1  A    between atoms: C_2  and  C_4
REMARK    2  A    between atoms: C_7  and  C_8
REMARK                            x       y       z     vdW  Elec       q    Type
REMARK                         _______ _______ _______ _____ _____    ______ ____
ROOT
ATOM      1  C   UNL     1       2.762   2.958  20.049  0.00  0.00    +0.000 A 
ATOM      2  C   UNL     1       3.109   2.024  19.092  0.00  0.00    +0.000 A 
ATOM      3  N   UNL     1       4.288   2.466  18.565  0.00  0.00    +0.000 N 
ATOM      4  C   UNL     1       4.625   3.629  19.203  0.00  0.00    +0.000 A 
ATOM      5  N   UNL     1       3.718   3.972  20.098  0.00  0.00    +0.000 NA
ATOM      6  H   UNL     1       4.850   2.028  17.846  0.00  0.00    +0.000 HD
ENDROOT
BRANCH   4   7
ATOM      7  C   UNL     1       5.830   4.324  18.913  0.00  0.00    +0.000 A 
ATOM      8  N   UNL     1       6.354   5.282  19.650  0.00  0.00    +0.000 NA
ATOM      9  C   UNL     1       7.481   5.682  18.976  0.00  0.00    +0.000 A 
ATOM     10  C   UNL     1       7.647   4.948  17.824  0.00  0.00    +0.000 A 
ATOM     11  N   UNL     1       6.588   4.084  17.799  0.00  0.00    +0.000 N 
ATOM     12  H   UNL     1       6.370   3.389  17.098  0.00  0.00    +0.000 HD
ENDBRANCH   4   7
BRANCH   1  14
ATOM     13  N   UNL     1       0.425   3.270  20.282  0.00  0.00    +0.000 N 
ATOM     14  C   UNL     1       1.583   2.913  20.912  0.00  0.00    +0.000 C 
ATOM     15  O   UNL     1       1.603   2.594  22.095  0.00  0.00    +0.000 OA
ATOM     16  H   UNL     1      -0.434   3.293  20.810  0.00  0.00    +0.000 HD
ATOM     17  H   UNL     1       0.450   3.543  19.309  0.00  0.00    +0.000 HD
ENDBRANCH   1  14
TORSDOF 2
ENDMDL
MODEL 2
REMARK VINA RESULT:      -6.2      1.088      1.309
REMARK  Name = 
REMARK  2 active torsions:
REMARK  status: ('A' for Active; 'I' for Inactive)
REMARK    1  A    between atoms: C_2  and  C_4
REMARK    2  A    between atoms: C_7  and  C_8
REMARK                            x       y       z     vdW  Elec       q    Type
REMARK                         _______ _______ _______ _____ _____    ______ ____
ROOT
ATOM      1  C   UNL     1       2.998   2.987  20.401  0.00  0.00    +0.000 A 
ATOM      2  C   UNL     1       4.032   2.086  20.572  0.00  0.00    +0.000 A 
ATOM      3  N   UNL     1       5.027   2.513  19.743  0.00  0.00    +0.000 N 
ATOM      4  C   UNL     1       4.588   3.642  19.104  0.00  0.00    +0.000 A 
ATOM      5  N   UNL     1       3.357   3.953  19.461  0.00  0.00    +0.000 NA
ATOM      6  H   UNL     1       5.944   2.107  19.612  0.00  0.00    +0.000 HD
ENDROOT
BRANCH   4   7
ATOM      7  C   UNL     1       5.412   4.361  18.197  0.00  0.00    +0.000 A 
ATOM      8  N   UNL     1       4.982   5.215  17.289  0.00  0.00    +0.000 NA
ATOM      9  C   UNL     1       6.109   5.634  16.626  0.00  0.00    +0.000 A 
ATOM     10  C   UNL     1       7.233   5.037  17.147  0.00  0.00    +0.000 A 
ATOM     11  N   UNL     1       6.773   4.230  18.150  0.00  0.00    +0.000 N 
ATOM     12  H   UNL     1       7.311   3.628  18.759  0.00  0.00    +0.000 HD
ENDBRANCH   4   7
BRANCH   1  14
ATOM     13  N   UNL     1       0.681   3.479  20.361  0.00  0.00    +0.000 N 
ATOM     14  C   UNL     1       1.713   2.970  21.096  0.00  0.00    +0.000 C 
ATOM     15  O   UNL     1       1.548   2.549  22.235  0.00  0.00    +0.000 OA
ATOM     16  H   UNL     1      -0.237   3.531  20.774  0.00  0.00    +0.000 HD
ATOM     17  H   UNL     1       0.859   3.833  19.431  0.00  0.00    +0.000 HD
ENDBRANCH   1  14
TORSDOF 2
ENDMDL
MODEL 3
REMARK VINA RESULT:      -6.2      5.094      6.740
REMARK  Name = 
REMARK  2 active torsions:
REMARK  status: ('A' for Active; 'I' for Inactive)
REMARK    1  A    between atoms: C_2  and  C_4
REMARK    2  A    between atoms: C_7  and  C_8
REMARK                            x       y       z     vdW  Elec       q    Type
REMARK                         _______ _______ _______ _____ _____    ______ ____
ROOT
ATOM      1  C   UNL     1       6.366   3.891  12.951  0.00  0.00    +0.000 A 
ATOM      2  C   UNL     1       7.383   4.761  12.609  0.00  0.00    +0.000 A 
ATOM      3  N   UNL     1       7.767   5.350  13.778  0.00  0.00    +0.000 N 
ATOM      4  C   UNL     1       6.994   4.833  14.784  0.00  0.00    +0.000 A 
ATOM      5  N   UNL     1       6.121   3.957  14.322  0.00  0.00    +0.000 NA
ATOM      6  H   UNL     1       8.499   6.034  13.919  0.00  0.00    +0.000 HD
ENDROOT
BRANCH   4   7
ATOM      7  C   UNL     1       7.175   5.210  16.141  0.00  0.00    +0.000 A 
ATOM      8  N   UNL     1       7.345   6.444  16.573  0.00  0.00    +0.000 NA
ATOM      9  C   UNL     1       7.515   6.331  17.930  0.00  0.00    +0.000 A 
ATOM     10  C   UNL     1       7.436   5.016  18.325  0.00  0.00    +0.000 A 
ATOM     11  N   UNL     1       7.216   4.313  17.173  0.00  0.00    +0.000 N 
ATOM     12  H   UNL     1       7.107   3.314  17.067  0.00  0.00    +0.000 HD
ENDBRANCH   4   7
BRANCH   1  14
ATOM     13  N   UNL     1       6.336   1.878  11.704  0.00  0.00    +0.000 N 
ATOM     14  C   UNL     1       5.643   3.005  12.040  0.00  0.00    +0.000 C 
ATOM     15  O   UNL     1       4.523   3.232  11.599  0.00  0.00    +0.000 OA
ATOM     16  H   UNL     1       5.922   1.223  11.057  0.00  0.00    +0.000 HD
ATOM     17  H   UNL     1       7.265   1.733  12.075  0.00  0.00    +0.000 HD
ENDBRANCH   1  14
TORSDOF 2
ENDMDL
MODEL 4
REMARK VINA RESULT:      -6.1      3.181      5.677
REMARK  Name = 
REMARK  2 active torsions:
REMARK  status: ('A' for Active; 'I' for Inactive)
REMARK    1  A    between atoms: C_2  and  C_4
REMARK    2  A    between atoms: C_7  and  C_8
REMARK                            x       y       z     vdW  Elec       q    Type
REMARK                         _______ _______ _______ _____ _____    ______ ____
ROOT
ATOM      1  C   UNL     1       6.516   4.393  16.091  0.00  0.00    +0.000 A 
ATOM      2  C   UNL     1       7.457   4.577  17.086  0.00  0.00    +0.000 A 
ATOM      3  N   UNL     1       6.806   4.309  18.255  0.00  0.00    +0.000 N 
ATOM      4  C   UNL     1       5.515   3.970  17.950  0.00  0.00    +0.000 A 
ATOM      5  N   UNL     1       5.293   4.025  16.651  0.00  0.00    +0.000 NA
ATOM      6  H   UNL     1       7.182   4.327  19.194  0.00  0.00    +0.000 HD
ENDROOT
BRANCH   4   7
ATOM      7  C   UNL     1       4.581   3.590  18.951  0.00  0.00    +0.000 A 
ATOM      8  N   UNL     1       3.470   4.236  19.243  0.00  0.00    +0.000 NA
ATOM      9  C   UNL     1       2.910   3.539  20.285  0.00  0.00    +0.000 A 
ATOM     10  C   UNL     1       3.684   2.452  20.618  0.00  0.00    +0.000 A 
ATOM     11  N   UNL     1       4.745   2.496  19.757  0.00  0.00    +0.000 N 
ATOM     12  H   UNL     1       5.528   1.859  19.704  0.00  0.00    +0.000 HD
ENDBRANCH   4   7
BRANCH   1  14
ATOM     13  N   UNL     1       7.697   5.456  14.335  0.00  0.00    +0.000 N 
ATOM     14  C   UNL     1       6.740   4.536  14.654  0.00  0.00    +0.000 C 
ATOM     15  O   UNL     1       6.135   3.908  13.793  0.00  0.00    +0.000 OA
ATOM     16  H   UNL     1       7.897   5.638  13.363  0.00  0.00    +0.000 HD
ATOM     17  H   UNL     1       8.163   5.967  15.072  0.00  0.00    +0.000 HD
ENDBRANCH   1  14
TORSDOF 2
ENDMDL
MODEL 5
REMARK VINA RESULT:      -6.1      1.061      1.068
REMARK  Name = 
REMARK  2 active torsions:
REMARK  status: ('A' for Active; 'I' for Inactive)
REMARK    1  A    between atoms: C_2  and  C_4
REMARK    2  A    between atoms: C_7  and  C_8
REMARK                            x       y       z     vdW  Elec       q    Type
REMARK                         _______ _______ _______ _____ _____    ______ ____
ROOT
ATOM      1  C   UNL     1       3.045   3.212  20.339  0.00  0.00    +0.000 A 
ATOM      2  C   UNL     1       3.948   2.192  20.110  0.00  0.00    +0.000 A 
ATOM      3  N   UNL     1       5.012   2.782  19.492  0.00  0.00    +0.000 N 
ATOM      4  C   UNL     1       4.739   4.118  19.366  0.00  0.00    +0.000 A 
ATOM      5  N   UNL     1       3.550   4.417  19.852  0.00  0.00    +0.000 NA
ATOM      6  H   UNL     1       5.873   2.347  19.186  0.00  0.00    +0.000 HD
ENDROOT
BRANCH   4   7
ATOM      7  C   UNL     1       5.673   5.026  18.798  0.00  0.00    +0.000 A 
ATOM      8  N   UNL     1       6.917   5.192  19.201  0.00  0.00    +0.000 NA
ATOM      9  C   UNL     1       7.426   6.183  18.400  0.00  0.00    +0.000 A 
ATOM     10  C   UNL     1       6.484   6.613  17.495  0.00  0.00    +0.000 A 
ATOM     11  N   UNL     1       5.372   5.863  17.759  0.00  0.00    +0.000 N 
ATOM     12  H   UNL     1       4.474   5.902  17.297  0.00  0.00    +0.000 HD
ENDBRANCH   4   7
BRANCH   1  14
ATOM     13  N   UNL     1       0.707   3.590  20.282  0.00  0.00    +0.000 N 
ATOM     14  C   UNL     1       1.750   3.086  21.005  0.00  0.00    +0.000 C 
ATOM     15  O   UNL     1       1.587   2.584  22.111  0.00  0.00    +0.000 OA
ATOM     16  H   UNL     1      -0.220   3.569  20.679  0.00  0.00    +0.000 HD
ATOM     17  H   UNL     1       0.883   4.012  19.380  0.00  0.00    +0.000 HD
ENDBRANCH   1  14
TORSDOF 2
ENDMDL
MODEL 6
REMARK VINA RESULT:      -6.0      3.839      5.703
REMARK  Name = 
REMARK  2 active torsions:
REMARK  status: ('A' for Active; 'I' for Inactive)
REMARK    1  A    between atoms: C_2  and  C_4
REMARK    2  A    between atoms: C_7  and  C_8
REMARK                            x       y       z     vdW  Elec       q    Type
REMARK                         _______ _______ _______ _____ _____    ______ ____
ROOT
ATOM      1  C   UNL     1       6.992   5.284  17.892  0.00  0.00    +0.000 A 
ATOM      2  C   UNL     1       5.849   4.508  17.865  0.00  0.00    +0.000 A 
ATOM      3  N   UNL     1       5.677   4.161  16.557  0.00  0.00    +0.000 N 
ATOM      4  C   UNL     1       6.699   4.717  15.835  0.00  0.00    +0.000 A 
ATOM      5  N   UNL     1       7.509   5.419  16.604  0.00  0.00    +0.000 NA
ATOM      6  H   UNL     1       4.949   3.582  16.158  0.00  0.00    +0.000 HD
ENDROOT
BRANCH   4   7
ATOM      7  C   UNL     1       6.834   4.506  14.437  0.00  0.00    +0.000 A 
ATOM      8  N   UNL     1       7.506   5.281  13.610  0.00  0.00    +0.000 NA
ATOM      9  C   UNL     1       7.333   4.721  12.368  0.00  0.00    +0.000 A 
ATOM     10  C   UNL     1       6.558   3.587  12.447  0.00  0.00    +0.000 A 
ATOM     11  N   UNL     1       6.250   3.462  13.773  0.00  0.00    +0.000 N 
ATOM     12  H   UNL     1       5.688   2.745  14.214  0.00  0.00    +0.000 HD
ENDBRANCH   4   7
BRANCH   1  14
ATOM     13  N   UNL     1       8.311   7.017  18.823  0.00  0.00    +0.000 N 
ATOM     14  C   UNL     1       7.606   5.876  19.079  0.00  0.00    +0.000 C 
ATOM     15  O   UNL     1       7.519   5.410  20.209  0.00  0.00    +0.000 OA
ATOM     16  H   UNL     1       8.790   7.477  19.582  0.00  0.00    +0.000 HD
ATOM     17  H   UNL     1       8.375   7.362  17.875  0.00  0.00    +0.000 HD
ENDBRANCH   1  14
TORSDOF 2
ENDMDL
MODEL 7
REMARK VINA RESULT:      -6.0      1.321      1.353
REMARK  Name = 
REMARK  2 active torsions:
REMARK  status: ('A' for Active; 'I' for Inactive)
REMARK    1  A    between atoms: C_2  and  C_4
REMARK    2  A    between atoms: C_7  and  C_8
REMARK                            x       y       z     vdW  Elec       q    Type
REMARK                         _______ _______ _______ _____ _____    ______ ____
ROOT
ATOM      1  C   UNL     1       2.976   3.280  20.303  0.00  0.00    +0.000 A 
ATOM      2  C   UNL     1       3.885   2.240  20.339  0.00  0.00    +0.000 A 
ATOM      3  N   UNL     1       4.969   2.681  19.637  0.00  0.00    +0.000 N 
ATOM      4  C   UNL     1       4.702   3.953  19.205  0.00  0.00    +0.000 A 
ATOM      5  N   UNL     1       3.497   4.347  19.573  0.00  0.00    +0.000 NA
ATOM      6  H   UNL     1       5.838   2.193  19.464  0.00  0.00    +0.000 HD
ENDROOT
BRANCH   4   7
ATOM      7  C   UNL     1       5.654   4.715  18.476  0.00  0.00    +0.000 A 
ATOM      8  N   UNL     1       5.451   5.921  17.986  0.00  0.00    +0.000 NA
ATOM      9  C   UNL     1       6.615   6.247  17.336  0.00  0.00    +0.000 A 
ATOM     10  C   UNL     1       7.537   5.231  17.444  0.00  0.00    +0.000 A 
ATOM     11  N   UNL     1       6.910   4.262  18.177  0.00  0.00    +0.000 N 
ATOM     12  H   UNL     1       7.276   3.362  18.456  0.00  0.00    +0.000 HD
ENDBRANCH   4   7
BRANCH   1  14
ATOM     13  N   UNL     1       1.620   2.651  22.141  0.00  0.00    +0.000 N 
ATOM     14  C   UNL     1       1.660   3.299  20.940  0.00  0.00    +0.000 C 
ATOM     15  O   UNL     1       0.667   3.833  20.461  0.00  0.00    +0.000 OA
ATOM     16  H   UNL     1       0.744   2.592  22.638  0.00  0.00    +0.000 HD
ATOM     17  H   UNL     1       2.456   2.207  22.497  0.00  0.00    +0.000 HD
ENDBRANCH   1  14
TORSDOF 2
ENDMDL
MODEL 8
REMARK VINA RESULT:      -6.0      1.517      1.677
REMARK  Name = 
REMARK  2 active torsions:
REMARK  status: ('A' for Active; 'I' for Inactive)
REMARK    1  A    between atoms: C_2  and  C_4
REMARK    2  A    between atoms: C_7  and  C_8
REMARK                            x       y       z     vdW  Elec       q    Type
REMARK                         _______ _______ _______ _____ _____    ______ ____
ROOT
ATOM      1  C   UNL     1       2.845   3.221  19.239  0.00  0.00    +0.000 A 
ATOM      2  C   UNL     1       3.767   2.280  19.654  0.00  0.00    +0.000 A 
ATOM      3  N   UNL     1       4.987   2.865  19.474  0.00  0.00    +0.000 N 
ATOM      4  C   UNL     1       4.783   4.121  18.970  0.00  0.00    +0.000 A 
ATOM      5  N   UNL     1       3.499   4.370  18.797  0.00  0.00    +0.000 NA
ATOM      6  H   UNL     1       5.899   2.478  19.684  0.00  0.00    +0.000 HD
ENDROOT
BRANCH   4   7
ATOM      7  C   UNL     1       5.859   5.012  18.711  0.00  0.00    +0.000 A 
ATOM      8  N   UNL     1       5.954   5.808  17.666  0.00  0.00    +0.000 NA
ATOM      9  C   UNL     1       7.160   6.449  17.809  0.00  0.00    +0.000 A 
ATOM     10  C   UNL     1       7.795   6.045  18.960  0.00  0.00    +0.000 A 
ATOM     11  N   UNL     1       6.951   5.130  19.527  0.00  0.00    +0.000 N 
ATOM     12  H   UNL     1       7.084   4.612  20.385  0.00  0.00    +0.000 HD
ENDBRANCH   4   7
BRANCH   1  14
ATOM     13  N   UNL     1       0.804   3.574  20.388  0.00  0.00    +0.000 N 
ATOM     14  C   UNL     1       1.391   3.073  19.262  0.00  0.00    +0.000 C 
ATOM     15  O   UNL     1       0.734   2.548  18.370  0.00  0.00    +0.000 OA
ATOM     16  H   UNL     1      -0.195   3.490  20.500  0.00  0.00    +0.000 HD
ATOM     17  H   UNL     1       1.380   3.985  21.110  0.00  0.00    +0.000 HD
ENDBRANCH   1  14
TORSDOF 2
ENDMDL
MODEL 9
REMARK VINA RESULT:      -5.9      3.363      5.772
REMARK  Name = 
REMARK  2 active torsions:
REMARK  status: ('A' for Active; 'I' for Inactive)
REMARK    1  A    between atoms: C_2  and  C_4
REMARK    2  A    between atoms: C_7  and  C_8
REMARK                            x       y       z     vdW  Elec       q    Type
REMARK                         _______ _______ _______ _____ _____    ______ ____
ROOT
ATOM      1  C   UNL     1       6.271   4.313  16.231  0.00  0.00    +0.000 A 
ATOM      2  C   UNL     1       6.904   4.488  17.446  0.00  0.00    +0.000 A 
ATOM      3  N   UNL     1       5.988   4.125  18.389  0.00  0.00    +0.000 N 
ATOM      4  C   UNL     1       4.845   3.740  17.740  0.00  0.00    +0.000 A 
ATOM      5  N   UNL     1       4.969   3.855  16.432  0.00  0.00    +0.000 NA
ATOM      6  H   UNL     1       6.102   4.110  19.394  0.00  0.00    +0.000 HD
ENDROOT
BRANCH   4   7
ATOM      7  C   UNL     1       3.707   3.260  18.442  0.00  0.00    +0.000 A 
ATOM      8  N   UNL     1       3.662   2.995  19.732  0.00  0.00    +0.000 NA
ATOM      9  C   UNL     1       2.392   2.527  19.960  0.00  0.00    +0.000 A 
ATOM     10  C   UNL     1       1.656   2.520  18.798  0.00  0.00    +0.000 A 
ATOM     11  N   UNL     1       2.508   2.994  17.838  0.00  0.00    +0.000 N 
ATOM     12  H   UNL     1       2.320   3.127  16.854  0.00  0.00    +0.000 HD
ENDBRANCH   4   7
BRANCH   1  14
ATOM     13  N   UNL     1       6.394   3.695  13.948  0.00  0.00    +0.000 N 
ATOM     14  C   UNL     1       6.855   4.546  14.912  0.00  0.00    +0.000 C 
ATOM     15  O   UNL     1       7.686   5.412  14.666  0.00  0.00    +0.000 OA
ATOM     16  H   UNL     1       6.765   3.768  13.012  0.00  0.00    +0.000 HD
ATOM     17  H   UNL     1       5.721   2.982  14.192  0.00  0.00    +0.000 HD
ENDBRANCH   1  14
TORSDOF 2
ENDMDL
