MODEL 1
REMARK VINA RESULT:      -7.4      0.000      0.000
REMARK  Name = 
REMARK  8 active torsions:
REMARK  status: ('A' for Active; 'I' for Inactive)
REMARK    1  A    between atoms: N_2  and  C_4
REMARK    2  A    between atoms: C_8  and  C_9
REMARK    3  A    between atoms: C_9  and  C_10
REMARK    4  A    between atoms: C_9  and  C_18
REMARK    5  A    between atoms: C_13  and  O_14
REMARK    6  A    between atoms: C_16  and  O_17
REMARK    7  A    between atoms: C_22  and  O_23
REMARK    8  A    between atoms: C_25  and  O_26
REMARK                            x       y       z     vdW  Elec       q    Type
REMARK                         _______ _______ _______ _____ _____    ______ ____
ROOT
ATOM      1  C   UNL     1       4.115   5.333  18.454  0.00  0.00    +0.000 C 
ENDROOT
BRANCH   1   2
ATOM      2  C   UNL     1       5.162   5.294  17.318  0.00  0.00    +0.000 A 
ATOM      3  C   UNL     1       4.897   4.698  16.067  0.00  0.00    +0.000 A 
ATOM      4  C   UNL     1       5.834   4.737  15.031  0.00  0.00    +0.000 A 
ATOM      5 BR   UNL     1       5.411   3.921  13.373  0.00  0.00    +0.000 Br
ATOM      6  C   UNL     1       7.055   5.378  15.218  0.00  0.00    +0.000 A 
ATOM      7  C   UNL     1       7.353   5.969  16.438  0.00  0.00    +0.000 A 
ATOM      8  C   UNL     1       6.409   5.936  17.468  0.00  0.00    +0.000 A 
BRANCH   6   9
ATOM      9  O   UNL     1       7.992   5.475  14.228  0.00  0.00    +0.000 OA
ATOM     10  H   UNL     1       7.550   5.257  13.387  0.00  0.00    +0.000 HD
ENDBRANCH   6   9
BRANCH   8  11
ATOM     11  O   UNL     1       6.695   6.567  18.647  0.00  0.00    +0.000 OA
ATOM     12  H   UNL     1       5.885   6.967  19.006  0.00  0.00    +0.000 HD
ENDBRANCH   8  11
ENDBRANCH   1   2
BRANCH   1  17
ATOM     13  C   UNL     1       1.860   8.121  19.851  0.00  0.00    +0.000 A 
ATOM     14  C   UNL     1       1.796   9.020  18.779  0.00  0.00    +0.000 A 
ATOM     15  C   UNL     1       2.492   8.737  17.607  0.00  0.00    +0.000 A 
ATOM     16  C   UNL     1       3.239   7.563  17.506  0.00  0.00    +0.000 A 
ATOM     17  C   UNL     1       3.325   6.653  18.580  0.00  0.00    +0.000 A 
ATOM     18  C   UNL     1       2.628   6.949  19.764  0.00  0.00    +0.000 A 
BRANCH  13  20
ATOM     19  O   UNL     1       0.076   7.732  21.284  0.00  0.00    +0.000 OA
ATOM     20  N   UNL     1       1.096   8.405  21.072  0.00  0.00    +0.000 N 
ATOM     21  O   UNL     1       1.513   9.300  21.822  0.00  0.00    +0.000 OA
ENDBRANCH  13  20
ENDBRANCH   1  17
BRANCH   1  22
ATOM     22  C   UNL     1       3.130   4.155  18.496  0.00  0.00    +0.000 A 
ATOM     23  C   UNL     1       1.797   4.300  18.070  0.00  0.00    +0.000 A 
ATOM     24  C   UNL     1       0.876   3.260  18.216  0.00  0.00    +0.000 A 
ATOM     25  C   UNL     1       1.287   2.061  18.786  0.00  0.00    +0.000 A 
ATOM     26  C   UNL     1       2.601   1.876  19.196  0.00  0.00    +0.000 A 
ATOM     27  C   UNL     1       3.514   2.923  19.053  0.00  0.00    +0.000 A 
BRANCH  25  28
ATOM     28  O   UNL     1       0.414   1.030  18.975  0.00  0.00    +0.000 OA
ATOM     29  H   UNL     1      -0.227   1.032  18.246  0.00  0.00    +0.000 HD
ENDBRANCH  25  28
BRANCH  27  30
ATOM     30  O   UNL     1       4.802   2.755  19.483  0.00  0.00    +0.000 OA
ATOM     31  H   UNL     1       4.936   1.818  19.703  0.00  0.00    +0.000 HD
ENDBRANCH  27  30
ENDBRANCH   1  22
TORSDOF 8
ENDMDL
MODEL 2
REMARK VINA RESULT:      -7.3      3.335      5.976
REMARK  Name = 
REMARK  8 active torsions:
REMARK  status: ('A' for Active; 'I' for Inactive)
REMARK    1  A    between atoms: N_2  and  C_4
REMARK    2  A    between atoms: C_8  and  C_9
REMARK    3  A    between atoms: C_9  and  C_10
REMARK    4  A    between atoms: C_9  and  C_18
REMARK    5  A    between atoms: C_13  and  O_14
REMARK    6  A    between atoms: C_16  and  O_17
REMARK    7  A    between atoms: C_22  and  O_23
REMARK    8  A    between atoms: C_25  and  O_26
REMARK                            x       y       z     vdW  Elec       q    Type
REMARK                         _______ _______ _______ _____ _____    ______ ____
ROOT
ATOM      1  C   UNL     1       2.766   5.801  18.442  0.00  0.00    +0.000 C 
ENDROOT
BRANCH   1   2
ATOM      2  C   UNL     1       2.292   7.254  18.670  0.00  0.00    +0.000 A 
ATOM      3  C   UNL     1       1.688   7.670  19.874  0.00  0.00    +0.000 A 
ATOM      4  C   UNL     1       1.332   9.005  20.085  0.00  0.00    +0.000 A 
ATOM      5 BR   UNL     1       0.528   9.498  21.729  0.00  0.00    +0.000 Br
ATOM      6  C   UNL     1       1.577   9.957  19.098  0.00  0.00    +0.000 A 
ATOM      7  C   UNL     1       2.163   9.581  17.898  0.00  0.00    +0.000 A 
ATOM      8  C   UNL     1       2.527   8.247  17.697  0.00  0.00    +0.000 A 
BRANCH   6   9
ATOM      9  O   UNL     1       1.281  11.280  19.266  0.00  0.00    +0.000 OA
ATOM     10  H   UNL     1       1.687  11.765  18.524  0.00  0.00    +0.000 HD
ENDBRANCH   6   9
BRANCH   8  11
ATOM     11  O   UNL     1       3.151   7.901  16.530  0.00  0.00    +0.000 OA
ATOM     12  H   UNL     1       4.114   7.971  16.643  0.00  0.00    +0.000 HD
ENDBRANCH   8  11
ENDBRANCH   1   2
BRANCH   1  17
ATOM     13  C   UNL     1       6.144   5.070  16.748  0.00  0.00    +0.000 A 
ATOM     14  C   UNL     1       7.047   5.212  17.809  0.00  0.00    +0.000 A 
ATOM     15  C   UNL     1       6.572   5.558  19.070  0.00  0.00    +0.000 A 
ATOM     16  C   UNL     1       5.205   5.754  19.271  0.00  0.00    +0.000 A 
ATOM     17  C   UNL     1       4.283   5.628  18.211  0.00  0.00    +0.000 A 
ATOM     18  C   UNL     1       4.769   5.287  16.938  0.00  0.00    +0.000 A 
BRANCH  13  20
ATOM     19  O   UNL     1       6.158   3.652  14.911  0.00  0.00    +0.000 OA
ATOM     20  N   UNL     1       6.644   4.669  15.428  0.00  0.00    +0.000 N 
ATOM     21  O   UNL     1       7.525   5.368  14.905  0.00  0.00    +0.000 OA
ENDBRANCH  13  20
ENDBRANCH   1  17
BRANCH   1  22
ATOM     22  C   UNL     1       2.298   4.774  19.484  0.00  0.00    +0.000 A 
ATOM     23  C   UNL     1       2.596   4.930  20.851  0.00  0.00    +0.000 A 
ATOM     24  C   UNL     1       2.268   3.939  21.778  0.00  0.00    +0.000 A 
ATOM     25  C   UNL     1       1.632   2.782  21.342  0.00  0.00    +0.000 A 
ATOM     26  C   UNL     1       1.304   2.606  20.004  0.00  0.00    +0.000 A 
ATOM     27  C   UNL     1       1.641   3.598  19.083  0.00  0.00    +0.000 A 
BRANCH  25  28
ATOM     28  O   UNL     1       1.321   1.776  22.209  0.00  0.00    +0.000 OA
ATOM     29  H   UNL     1       0.481   1.377  21.930  0.00  0.00    +0.000 HD
ENDBRANCH  25  28
BRANCH  27  30
ATOM     30  O   UNL     1       1.346   3.415  17.759  0.00  0.00    +0.000 OA
ATOM     31  H   UNL     1       2.022   3.865  17.226  0.00  0.00    +0.000 HD
ENDBRANCH  27  30
ENDBRANCH   1  22
TORSDOF 8
ENDMDL
MODEL 3
REMARK VINA RESULT:      -7.2      3.229      5.595
REMARK  Name = 
REMARK  8 active torsions:
REMARK  status: ('A' for Active; 'I' for Inactive)
REMARK    1  A    between atoms: N_2  and  C_4
REMARK    2  A    between atoms: C_8  and  C_9
REMARK    3  A    between atoms: C_9  and  C_10
REMARK    4  A    between atoms: C_9  and  C_18
REMARK    5  A    between atoms: C_13  and  O_14
REMARK    6  A    between atoms: C_16  and  O_17
REMARK    7  A    between atoms: C_22  and  O_23
REMARK    8  A    between atoms: C_25  and  O_26
REMARK                            x       y       z     vdW  Elec       q    Type
REMARK                         _______ _______ _______ _____ _____    ______ ____
ROOT
ATOM      1  C   UNL     1       2.552   5.642  18.317  0.00  0.00    +0.000 C 
ENDROOT
BRANCH   1   2
ATOM      2  C   UNL     1       2.213   7.131  18.554  0.00  0.00    +0.000 A 
ATOM      3  C   UNL     1       1.595   7.585  19.738  0.00  0.00    +0.000 A 
ATOM      4  C   UNL     1       1.362   8.945  19.960  0.00  0.00    +0.000 A 
ATOM      5 BR   UNL     1       0.532   9.488  21.575  0.00  0.00    +0.000 Br
ATOM      6  C   UNL     1       1.747   9.884  19.007  0.00  0.00    +0.000 A 
ATOM      7  C   UNL     1       2.351   9.472  17.827  0.00  0.00    +0.000 A 
ATOM      8  C   UNL     1       2.591   8.112  17.614  0.00  0.00    +0.000 A 
BRANCH   6   9
ATOM      9  O   UNL     1       1.575  11.227  19.188  0.00  0.00    +0.000 OA
ATOM     10  H   UNL     1       0.971  11.540  18.489  0.00  0.00    +0.000 HD
ENDBRANCH   6   9
BRANCH   8  11
ATOM     11  O   UNL     1       3.234   7.726  16.471  0.00  0.00    +0.000 OA
ATOM     12  H   UNL     1       2.622   7.223  15.908  0.00  0.00    +0.000 HD
ENDBRANCH   8  11
ENDBRANCH   1   2
BRANCH   1  17
ATOM     13  C   UNL     1       6.399   5.534  18.341  0.00  0.00    +0.000 A 
ATOM     14  C   UNL     1       6.689   4.917  17.118  0.00  0.00    +0.000 A 
ATOM     15  C   UNL     1       5.644   4.520  16.287  0.00  0.00    +0.000 A 
ATOM     16  C   UNL     1       4.322   4.745  16.674  0.00  0.00    +0.000 A 
ATOM     17  C   UNL     1       4.013   5.353  17.908  0.00  0.00    +0.000 A 
ATOM     18  C   UNL     1       5.071   5.743  18.746  0.00  0.00    +0.000 A 
BRANCH  13  20
ATOM     19  O   UNL     1       8.225   6.900  18.774  0.00  0.00    +0.000 OA
ATOM     20  N   UNL     1       7.504   5.984  19.197  0.00  0.00    +0.000 N 
ATOM     21  O   UNL     1       7.653   5.423  20.293  0.00  0.00    +0.000 OA
ENDBRANCH  13  20
ENDBRANCH   1  17
BRANCH   1  22
ATOM     22  C   UNL     1       2.147   4.677  19.442  0.00  0.00    +0.000 A 
ATOM     23  C   UNL     1       2.572   4.880  20.768  0.00  0.00    +0.000 A 
ATOM     24  C   UNL     1       2.298   3.940  21.765  0.00  0.00    +0.000 A 
ATOM     25  C   UNL     1       1.588   2.790  21.440  0.00  0.00    +0.000 A 
ATOM     26  C   UNL     1       1.135   2.570  20.146  0.00  0.00    +0.000 A 
ATOM     27  C   UNL     1       1.419   3.510  19.154  0.00  0.00    +0.000 A 
BRANCH  25  28
ATOM     28  O   UNL     1       1.324   1.833  22.375  0.00  0.00    +0.000 OA
ATOM     29  H   UNL     1       0.403   1.932  22.667  0.00  0.00    +0.000 HD
ENDBRANCH  25  28
BRANCH  27  30
ATOM     30  O   UNL     1       0.999   3.283  17.871  0.00  0.00    +0.000 OA
ATOM     31  H   UNL     1       1.775   3.296  17.285  0.00  0.00    +0.000 HD
ENDBRANCH  27  30
ENDBRANCH   1  22
TORSDOF 8
ENDMDL
MODEL 4
REMARK VINA RESULT:      -7.0      3.490      7.380
REMARK  Name = 
REMARK  8 active torsions:
REMARK  status: ('A' for Active; 'I' for Inactive)
REMARK    1  A    between atoms: N_2  and  C_4
REMARK    2  A    between atoms: C_8  and  C_9
REMARK    3  A    between atoms: C_9  and  C_10
REMARK    4  A    between atoms: C_9  and  C_18
REMARK    5  A    between atoms: C_13  and  O_14
REMARK    6  A    between atoms: C_16  and  O_17
REMARK    7  A    between atoms: C_22  and  O_23
REMARK    8  A    between atoms: C_25  and  O_26
REMARK                            x       y       z     vdW  Elec       q    Type
REMARK                         _______ _______ _______ _____ _____    ______ ____
ROOT
ATOM      1  C   UNL     1       6.129   4.972  18.024  0.00  0.00    +0.000 C 
ENDROOT
BRANCH   1   2
ATOM      2  C   UNL     1       4.860   4.807  18.890  0.00  0.00    +0.000 A 
ATOM      3  C   UNL     1       3.978   5.877  19.147  0.00  0.00    +0.000 A 
ATOM      4  C   UNL     1       2.800   5.688  19.875  0.00  0.00    +0.000 A 
ATOM      5 BR   UNL     1       1.655   7.168  20.180  0.00  0.00    +0.000 Br
ATOM      6  C   UNL     1       2.473   4.424  20.358  0.00  0.00    +0.000 A 
ATOM      7  C   UNL     1       3.321   3.350  20.130  0.00  0.00    +0.000 A 
ATOM      8  C   UNL     1       4.493   3.542  19.393  0.00  0.00    +0.000 A 
BRANCH   6   9
ATOM      9  O   UNL     1       1.318   4.177  21.044  0.00  0.00    +0.000 OA
ATOM     10  H   UNL     1       0.649   3.891  20.395  0.00  0.00    +0.000 HD
ENDBRANCH   6   9
BRANCH   8  11
ATOM     11  O   UNL     1       5.294   2.464  19.132  0.00  0.00    +0.000 OA
ATOM     12  H   UNL     1       6.158   2.772  18.812  0.00  0.00    +0.000 HD
ENDBRANCH   8  11
ENDBRANCH   1   2
BRANCH   1  17
ATOM     13  C   UNL     1       6.759   4.721  14.235  0.00  0.00    +0.000 A 
ATOM     14  C   UNL     1       5.611   4.057  13.785  0.00  0.00    +0.000 A 
ATOM     15  C   UNL     1       4.636   3.676  14.703  0.00  0.00    +0.000 A 
ATOM     16  C   UNL     1       4.805   3.961  16.058  0.00  0.00    +0.000 A 
ATOM     17  C   UNL     1       5.961   4.616  16.531  0.00  0.00    +0.000 A 
ATOM     18  C   UNL     1       6.946   4.991  15.601  0.00  0.00    +0.000 A 
BRANCH  13  20
ATOM     19  O   UNL     1       8.674   5.898  13.661  0.00  0.00    +0.000 OA
ATOM     20  N   UNL     1       7.767   5.154  13.260  0.00  0.00    +0.000 N 
ATOM     21  O   UNL     1       7.654   4.752  12.093  0.00  0.00    +0.000 OA
ENDBRANCH  13  20
ENDBRANCH   1  17
BRANCH   1  22
ATOM     22  C   UNL     1       6.845   6.326  18.138  0.00  0.00    +0.000 A 
ATOM     23  C   UNL     1       6.497   7.411  17.312  0.00  0.00    +0.000 A 
ATOM     24  C   UNL     1       7.225   8.602  17.341  0.00  0.00    +0.000 A 
ATOM     25  C   UNL     1       8.309   8.717  18.204  0.00  0.00    +0.000 A 
ATOM     26  C   UNL     1       8.666   7.675  19.048  0.00  0.00    +0.000 A 
ATOM     27  C   UNL     1       7.937   6.485  19.010  0.00  0.00    +0.000 A 
BRANCH  25  28
ATOM     28  O   UNL     1       9.066   9.851  18.242  0.00  0.00    +0.000 OA
ATOM     29  H   UNL     1       8.514  10.580  18.573  0.00  0.00    +0.000 HD
ENDBRANCH  25  28
BRANCH  27  30
ATOM     30  O   UNL     1       8.305   5.444  19.819  0.00  0.00    +0.000 OA
ATOM     31  H   UNL     1       9.272   5.447  19.906  0.00  0.00    +0.000 HD
ENDBRANCH  27  30
ENDBRANCH   1  22
TORSDOF 8
ENDMDL
MODEL 5
REMARK VINA RESULT:      -6.8      2.639      5.474
REMARK  Name = 
REMARK  8 active torsions:
REMARK  status: ('A' for Active; 'I' for Inactive)
REMARK    1  A    between atoms: N_2  and  C_4
REMARK    2  A    between atoms: C_8  and  C_9
REMARK    3  A    between atoms: C_9  and  C_10
REMARK    4  A    between atoms: C_9  and  C_18
REMARK    5  A    between atoms: C_13  and  O_14
REMARK    6  A    between atoms: C_16  and  O_17
REMARK    7  A    between atoms: C_22  and  O_23
REMARK    8  A    between atoms: C_25  and  O_26
REMARK                            x       y       z     vdW  Elec       q    Type
REMARK                         _______ _______ _______ _____ _____    ______ ____
ROOT
ATOM      1  C   UNL     1       2.762   5.696  18.458  0.00  0.00    +0.000 C 
ENDROOT
BRANCH   1   2
ATOM      2  C   UNL     1       4.070   5.762  17.638  0.00  0.00    +0.000 A 
ATOM      3  C   UNL     1       5.099   6.681  17.932  0.00  0.00    +0.000 A 
ATOM      4  C   UNL     1       6.303   6.676  17.221  0.00  0.00    +0.000 A 
ATOM      5 BR   UNL     1       7.646   7.935  17.671  0.00  0.00    +0.000 Br
ATOM      6  C   UNL     1       6.508   5.748  16.204  0.00  0.00    +0.000 A 
ATOM      7  C   UNL     1       5.515   4.833  15.883  0.00  0.00    +0.000 A 
ATOM      8  C   UNL     1       4.318   4.836  16.604  0.00  0.00    +0.000 A 
BRANCH   6   9
ATOM      9  O   UNL     1       7.678   5.676  15.502  0.00  0.00    +0.000 OA
ATOM     10  H   UNL     1       7.639   4.872  14.953  0.00  0.00    +0.000 HD
ENDBRANCH   6   9
BRANCH   8  11
ATOM     11  O   UNL     1       3.368   3.896  16.311  0.00  0.00    +0.000 OA
ATOM     12  H   UNL     1       2.948   4.112  15.462  0.00  0.00    +0.000 HD
ENDBRANCH   8  11
ENDBRANCH   1   2
BRANCH   1  17
ATOM     13  C   UNL     1       3.672   2.602  20.560  0.00  0.00    +0.000 A 
ATOM     14  C   UNL     1       2.553   2.466  21.392  0.00  0.00    +0.000 A 
ATOM     15  C   UNL     1       1.508   3.380  21.287  0.00  0.00    +0.000 A 
ATOM     16  C   UNL     1       1.578   4.416  20.355  0.00  0.00    +0.000 A 
ATOM     17  C   UNL     1       2.703   4.576  19.519  0.00  0.00    +0.000 A 
ATOM     18  C   UNL     1       3.759   3.656  19.636  0.00  0.00    +0.000 A 
BRANCH  13  20
ATOM     19  O   UNL     1       5.275   1.426  21.758  0.00  0.00    +0.000 OA
ATOM     20  N   UNL     1       4.756   1.616  20.648  0.00  0.00    +0.000 N 
ATOM     21  O   UNL     1       5.091   1.029  19.608  0.00  0.00    +0.000 OA
ENDBRANCH  13  20
ENDBRANCH   1  17
BRANCH   1  22
ATOM     22  C   UNL     1       2.306   7.016  19.098  0.00  0.00    +0.000 A 
ATOM     23  C   UNL     1       2.003   7.098  20.469  0.00  0.00    +0.000 A 
ATOM     24  C   UNL     1       1.481   8.269  21.023  0.00  0.00    +0.000 A 
ATOM     25  C   UNL     1       1.263   9.372  20.205  0.00  0.00    +0.000 A 
ATOM     26  C   UNL     1       1.573   9.331  18.852  0.00  0.00    +0.000 A 
ATOM     27  C   UNL     1       2.088   8.156  18.305  0.00  0.00    +0.000 A 
BRANCH  25  28
ATOM     28  O   UNL     1       0.727  10.524  20.699  0.00  0.00    +0.000 OA
ATOM     29  H   UNL     1       0.854  11.229  20.042  0.00  0.00    +0.000 HD
ENDBRANCH  25  28
BRANCH  27  30
ATOM     30  O   UNL     1       2.366   8.103  16.966  0.00  0.00    +0.000 OA
ATOM     31  H   UNL     1       2.208   7.196  16.653  0.00  0.00    +0.000 HD
ENDBRANCH  27  30
ENDBRANCH   1  22
TORSDOF 8
ENDMDL
MODEL 6
REMARK VINA RESULT:      -6.6      6.289      9.582
REMARK  Name = 
REMARK  8 active torsions:
REMARK  status: ('A' for Active; 'I' for Inactive)
REMARK    1  A    between atoms: N_2  and  C_4
REMARK    2  A    between atoms: C_8  and  C_9
REMARK    3  A    between atoms: C_9  and  C_10
REMARK    4  A    between atoms: C_9  and  C_18
REMARK    5  A    between atoms: C_13  and  O_14
REMARK    6  A    between atoms: C_16  and  O_17
REMARK    7  A    between atoms: C_22  and  O_23
REMARK    8  A    between atoms: C_25  and  O_26
REMARK                            x       y       z     vdW  Elec       q    Type
REMARK                         _______ _______ _______ _____ _____    ______ ____
ROOT
ATOM      1  C   UNL     1      -0.743  11.658  18.573  0.00  0.00    +0.000 C 
ENDROOT
BRANCH   1   2
ATOM      2  C   UNL     1      -2.271  11.572  18.356  0.00  0.00    +0.000 A 
ATOM      3  C   UNL     1      -3.196  12.060  19.302  0.00  0.00    +0.000 A 
ATOM      4  C   UNL     1      -4.571  12.036  19.053  0.00  0.00    +0.000 A 
ATOM      5 BR   UNL     1      -5.760  12.712  20.365  0.00  0.00    +0.000 Br
ATOM      6  C   UNL     1      -5.053  11.529  17.849  0.00  0.00    +0.000 A 
ATOM      7  C   UNL     1      -4.171  11.034  16.897  0.00  0.00    +0.000 A 
ATOM      8  C   UNL     1      -2.797  11.070  17.148  0.00  0.00    +0.000 A 
BRANCH   6   9
ATOM      9  O   UNL     1      -6.383  11.514  17.539  0.00  0.00    +0.000 OA
ATOM     10  H   UNL     1      -6.457  11.556  16.568  0.00  0.00    +0.000 HD
ENDBRANCH   6   9
BRANCH   8  11
ATOM     11  O   UNL     1      -1.938  10.627  16.180  0.00  0.00    +0.000 OA
ATOM     12  H   UNL     1      -1.395   9.903  16.535  0.00  0.00    +0.000 HD
ENDBRANCH   8  11
ENDBRANCH   1   2
BRANCH   1  17
ATOM     13  C   UNL     1       0.305  15.311  19.183  0.00  0.00    +0.000 A 
ATOM     14  C   UNL     1       0.760  15.274  20.507  0.00  0.00    +0.000 A 
ATOM     15  C   UNL     1       0.717  14.075  21.212  0.00  0.00    +0.000 A 
ATOM     16  C   UNL     1       0.229  12.921  20.597  0.00  0.00    +0.000 A 
ATOM     17  C   UNL     1      -0.245  12.943  19.269  0.00  0.00    +0.000 A 
ATOM     18  C   UNL     1      -0.208  14.158  18.565  0.00  0.00    +0.000 A 
BRANCH  13  20
ATOM     19  O   UNL     1      -0.659  17.009  17.930  0.00  0.00    +0.000 OA
ATOM     20  N   UNL     1       0.386  16.568  18.431  0.00  0.00    +0.000 N 
ATOM     21  O   UNL     1       1.493  17.119  18.339  0.00  0.00    +0.000 OA
ENDBRANCH  13  20
ENDBRANCH   1  17
BRANCH   1  22
ATOM     22  C   UNL     1      -0.095  10.440  19.249  0.00  0.00    +0.000 A 
ATOM     23  C   UNL     1      -0.541   9.973  20.499  0.00  0.00    +0.000 A 
ATOM     24  C   UNL     1       0.124   8.938  21.161  0.00  0.00    +0.000 A 
ATOM     25  C   UNL     1       1.240   8.358  20.571  0.00  0.00    +0.000 A 
ATOM     26  C   UNL     1       1.693   8.779  19.327  0.00  0.00    +0.000 A 
ATOM     27  C   UNL     1       1.028   9.818  18.675  0.00  0.00    +0.000 A 
BRANCH  25  28
ATOM     28  O   UNL     1       1.937   7.366  21.196  0.00  0.00    +0.000 OA
ATOM     29  H   UNL     1       1.365   6.583  21.264  0.00  0.00    +0.000 HD
ENDBRANCH  25  28
BRANCH  27  30
ATOM     30  O   UNL     1       1.489  10.257  17.463  0.00  0.00    +0.000 OA
ATOM     31  H   UNL     1       0.830  10.037  16.784  0.00  0.00    +0.000 HD
ENDBRANCH  27  30
ENDBRANCH   1  22
TORSDOF 8
ENDMDL
MODEL 7
REMARK VINA RESULT:      -6.6      6.043      9.260
REMARK  Name = 
REMARK  8 active torsions:
REMARK  status: ('A' for Active; 'I' for Inactive)
REMARK    1  A    between atoms: N_2  and  C_4
REMARK    2  A    between atoms: C_8  and  C_9
REMARK    3  A    between atoms: C_9  and  C_10
REMARK    4  A    between atoms: C_9  and  C_18
REMARK    5  A    between atoms: C_13  and  O_14
REMARK    6  A    between atoms: C_16  and  O_17
REMARK    7  A    between atoms: C_22  and  O_23
REMARK    8  A    between atoms: C_25  and  O_26
REMARK                            x       y       z     vdW  Elec       q    Type
REMARK                         _______ _______ _______ _____ _____    ______ ____
ROOT
ATOM      1  C   UNL     1      -0.707  11.573  18.303  0.00  0.00    +0.000 C 
ENDROOT
BRANCH   1   2
ATOM      2  C   UNL     1      -2.244  11.536  18.149  0.00  0.00    +0.000 A 
ATOM      3  C   UNL     1      -3.115  11.983  19.164  0.00  0.00    +0.000 A 
ATOM      4  C   UNL     1      -4.500  12.006  18.976  0.00  0.00    +0.000 A 
ATOM      5 BR   UNL     1      -5.613  12.624  20.379  0.00  0.00    +0.000 Br
ATOM      6  C   UNL     1      -5.046  11.587  17.765  0.00  0.00    +0.000 A 
ATOM      7  C   UNL     1      -4.219  11.134  16.747  0.00  0.00    +0.000 A 
ATOM      8  C   UNL     1      -2.835  11.123  16.937  0.00  0.00    +0.000 A 
BRANCH   6   9
ATOM      9  O   UNL     1      -6.389  11.622  17.516  0.00  0.00    +0.000 OA
ATOM     10  H   UNL     1      -6.521  12.148  16.705  0.00  0.00    +0.000 HD
ENDBRANCH   6   9
BRANCH   8  11
ATOM     11  O   UNL     1      -2.030  10.723  15.906  0.00  0.00    +0.000 OA
ATOM     12  H   UNL     1      -2.343  11.120  15.077  0.00  0.00    +0.000 HD
ENDBRANCH   8  11
ENDBRANCH   1   2
BRANCH   1  17
ATOM     13  C   UNL     1       1.287  14.137  20.368  0.00  0.00    +0.000 A 
ATOM     14  C   UNL     1       0.864  15.355  19.821  0.00  0.00    +0.000 A 
ATOM     15  C   UNL     1      -0.054  15.353  18.775  0.00  0.00    +0.000 A 
ATOM     16  C   UNL     1      -0.550  14.145  18.285  0.00  0.00    +0.000 A 
ATOM     17  C   UNL     1      -0.126  12.908  18.815  0.00  0.00    +0.000 A 
ATOM     18  C   UNL     1       0.808  12.916  19.865  0.00  0.00    +0.000 A 
BRANCH  13  20
ATOM     19  O   UNL     1       3.259  13.464  21.390  0.00  0.00    +0.000 OA
ATOM     20  N   UNL     1       2.227  14.143  21.495  0.00  0.00    +0.000 N 
ATOM     21  O   UNL     1       1.936  14.827  22.488  0.00  0.00    +0.000 OA
ENDBRANCH  13  20
ENDBRANCH   1  17
BRANCH   1  22
ATOM     22  C   UNL     1      -0.088  10.418  19.104  0.00  0.00    +0.000 A 
ATOM     23  C   UNL     1      -0.573  10.067  20.378  0.00  0.00    +0.000 A 
ATOM     24  C   UNL     1       0.065   9.094  21.149  0.00  0.00    +0.000 A 
ATOM     25  C   UNL     1       1.194   8.458  20.647  0.00  0.00    +0.000 A 
ATOM     26  C   UNL     1       1.686   8.764  19.384  0.00  0.00    +0.000 A 
ATOM     27  C   UNL     1       1.047   9.743  18.622  0.00  0.00    +0.000 A 
BRANCH  25  28
ATOM     28  O   UNL     1       1.866   7.523  21.379  0.00  0.00    +0.000 OA
ATOM     29  H   UNL     1       1.237   7.095  21.983  0.00  0.00    +0.000 HD
ENDBRANCH  25  28
BRANCH  27  30
ATOM     30  O   UNL     1       1.546  10.068  17.390  0.00  0.00    +0.000 OA
ATOM     31  H   UNL     1       1.772  11.013  17.387  0.00  0.00    +0.000 HD
ENDBRANCH  27  30
ENDBRANCH   1  22
TORSDOF 8
ENDMDL
MODEL 8
REMARK VINA RESULT:      -6.6      5.655      8.981
REMARK  Name = 
REMARK  8 active torsions:
REMARK  status: ('A' for Active; 'I' for Inactive)
REMARK    1  A    between atoms: N_2  and  C_4
REMARK    2  A    between atoms: C_8  and  C_9
REMARK    3  A    between atoms: C_9  and  C_10
REMARK    4  A    between atoms: C_9  and  C_18
REMARK    5  A    between atoms: C_13  and  O_14
REMARK    6  A    between atoms: C_16  and  O_17
REMARK    7  A    between atoms: C_22  and  O_23
REMARK    8  A    between atoms: C_25  and  O_26
REMARK                            x       y       z     vdW  Elec       q    Type
REMARK                         _______ _______ _______ _____ _____    ______ ____
ROOT
ATOM      1  C   UNL     1       0.315  11.295  18.735  0.00  0.00    +0.000 C 
ENDROOT
BRANCH   1   2
ATOM      2  C   UNL     1      -1.190  11.579  18.939  0.00  0.00    +0.000 A 
ATOM      3  C   UNL     1      -1.682  12.269  20.067  0.00  0.00    +0.000 A 
ATOM      4  C   UNL     1      -3.039  12.577  20.196  0.00  0.00    +0.000 A 
ATOM      5 BR   UNL     1      -3.632  13.511  21.735  0.00  0.00    +0.000 Br
ATOM      6  C   UNL     1      -3.936  12.207  19.198  0.00  0.00    +0.000 A 
ATOM      7  C   UNL     1      -3.489  11.521  18.078  0.00  0.00    +0.000 A 
ATOM      8  C   UNL     1      -2.130  11.225  17.949  0.00  0.00    +0.000 A 
BRANCH   6   9
ATOM      9  O   UNL     1      -5.266  12.513  19.257  0.00  0.00    +0.000 OA
ATOM     10  H   UNL     1      -5.403  13.319  18.725  0.00  0.00    +0.000 HD
ENDBRANCH   6   9
BRANCH   8  11
ATOM     11  O   UNL     1      -1.695  10.594  16.816  0.00  0.00    +0.000 OA
ATOM     12  H   UNL     1      -2.383  10.645  16.132  0.00  0.00    +0.000 HD
ENDBRANCH   8  11
ENDBRANCH   1   2
BRANCH   1  17
ATOM     13  C   UNL     1       3.009  14.042  18.817  0.00  0.00    +0.000 A 
ATOM     14  C   UNL     1       3.093  14.338  20.183  0.00  0.00    +0.000 A 
ATOM     15  C   UNL     1       2.271  13.663  21.081  0.00  0.00    +0.000 A 
ATOM     16  C   UNL     1       1.378  12.696  20.618  0.00  0.00    +0.000 A 
ATOM     17  C   UNL     1       1.271  12.395  19.244  0.00  0.00    +0.000 A 
ATOM     18  C   UNL     1       2.097  13.086  18.341  0.00  0.00    +0.000 A 
BRANCH  13  20
ATOM     19  O   UNL     1       5.095  14.387  17.859  0.00  0.00    +0.000 OA
ATOM     20  N   UNL     1       3.903  14.729  17.878  0.00  0.00    +0.000 N 
ATOM     21  O   UNL     1       3.417  15.613  17.156  0.00  0.00    +0.000 OA
ENDBRANCH  13  20
ENDBRANCH   1  17
BRANCH   1  22
ATOM     22  C   UNL     1       0.811   9.930  19.236  0.00  0.00    +0.000 A 
ATOM     23  C   UNL     1       0.499   9.467  20.528  0.00  0.00    +0.000 A 
ATOM     24  C   UNL     1       1.046   8.279  21.019  0.00  0.00    +0.000 A 
ATOM     25  C   UNL     1       1.908   7.542  20.215  0.00  0.00    +0.000 A 
ATOM     26  C   UNL     1       2.219   7.959  18.928  0.00  0.00    +0.000 A 
ATOM     27  C   UNL     1       1.674   9.150  18.446  0.00  0.00    +0.000 A 
BRANCH  25  28
ATOM     28  O   UNL     1       2.488   6.393  20.666  0.00  0.00    +0.000 OA
ATOM     29  H   UNL     1       2.288   5.679  20.038  0.00  0.00    +0.000 HD
ENDBRANCH  25  28
BRANCH  27  30
ATOM     30  O   UNL     1       2.001   9.580  17.189  0.00  0.00    +0.000 OA
ATOM     31  H   UNL     1       1.183   9.803  16.715  0.00  0.00    +0.000 HD
ENDBRANCH  27  30
ENDBRANCH   1  22
TORSDOF 8
ENDMDL
MODEL 9
REMARK VINA RESULT:      -6.5      7.484      9.876
REMARK  Name = 
REMARK  8 active torsions:
REMARK  status: ('A' for Active; 'I' for Inactive)
REMARK    1  A    between atoms: N_2  and  C_4
REMARK    2  A    between atoms: C_8  and  C_9
REMARK    3  A    between atoms: C_9  and  C_10
REMARK    4  A    between atoms: C_9  and  C_18
REMARK    5  A    between atoms: C_13  and  O_14
REMARK    6  A    between atoms: C_16  and  O_17
REMARK    7  A    between atoms: C_22  and  O_23
REMARK    8  A    between atoms: C_25  and  O_26
REMARK                            x       y       z     vdW  Elec       q    Type
REMARK                         _______ _______ _______ _____ _____    ______ ____
ROOT
ATOM      1  C   UNL     1      -0.910  11.469  19.056  0.00  0.00    +0.000 C 
ENDROOT
BRANCH   1   2
ATOM      2  C   UNL     1      -2.371  11.556  18.563  0.00  0.00    +0.000 A 
ATOM      3  C   UNL     1      -3.412  12.056  19.373  0.00  0.00    +0.000 A 
ATOM      4  C   UNL     1      -4.714  12.191  18.881  0.00  0.00    +0.000 A 
ATOM      5 BR   UNL     1      -6.065  12.874  20.022  0.00  0.00    +0.000 Br
ATOM      6  C   UNL     1      -5.004  11.836  17.567  0.00  0.00    +0.000 A 
ATOM      7  C   UNL     1      -4.005  11.333  16.744  0.00  0.00    +0.000 A 
ATOM      8  C   UNL     1      -2.704  11.210  17.237  0.00  0.00    +0.000 A 
BRANCH   6   9
ATOM      9  O   UNL     1      -6.250  11.980  17.026  0.00  0.00    +0.000 OA
ATOM     10  H   UNL     1      -6.745  11.161  17.213  0.00  0.00    +0.000 HD
ENDBRANCH   6   9
BRANCH   8  11
ATOM     11  O   UNL     1      -1.720  10.763  16.399  0.00  0.00    +0.000 OA
ATOM     12  H   UNL     1      -0.987  10.400  16.924  0.00  0.00    +0.000 HD
ENDBRANCH   8  11
ENDBRANCH   1   2
BRANCH   1  17
ATOM     13  C   UNL     1      -0.024  15.209  18.843  0.00  0.00    +0.000 A 
ATOM     14  C   UNL     1       1.367  15.178  18.687  0.00  0.00    +0.000 A 
ATOM     15  C   UNL     1       2.026  13.952  18.664  0.00  0.00    +0.000 A 
ATOM     16  C   UNL     1       1.300  12.767  18.790  0.00  0.00    +0.000 A 
ATOM     17  C   UNL     1      -0.100  12.780  18.961  0.00  0.00    +0.000 A 
ATOM     18  C   UNL     1      -0.759  14.021  18.992  0.00  0.00    +0.000 A 
BRANCH  13  20
ATOM     19  O   UNL     1      -1.279  16.866  19.875  0.00  0.00    +0.000 OA
ATOM     20  N   UNL     1      -0.720  16.501  18.830  0.00  0.00    +0.000 N 
ATOM     21  O   UNL     1      -0.709  17.154  17.776  0.00  0.00    +0.000 OA
ENDBRANCH  13  20
ENDBRANCH   1  17
BRANCH   1  22
ATOM     22  C   UNL     1      -0.710  10.858  20.451  0.00  0.00    +0.000 A 
ATOM     23  C   UNL     1      -1.280  11.445  21.596  0.00  0.00    +0.000 A 
ATOM     24  C   UNL     1      -1.002  10.953  22.873  0.00  0.00    +0.000 A 
ATOM     25  C   UNL     1      -0.154   9.861  23.013  0.00  0.00    +0.000 A 
ATOM     26  C   UNL     1       0.407   9.243  21.902  0.00  0.00    +0.000 A 
ATOM     27  C   UNL     1       0.131   9.745  20.630  0.00  0.00    +0.000 A 
BRANCH  25  28
ATOM     28  O   UNL     1       0.168   9.367  24.243  0.00  0.00    +0.000 OA
ATOM     29  H   UNL     1      -0.622   8.948  24.623  0.00  0.00    +0.000 HD
ENDBRANCH  25  28
BRANCH  27  30
ATOM     30  O   UNL     1       0.705   9.158  19.536  0.00  0.00    +0.000 OA
ATOM     31  H   UNL     1       0.320   8.274  19.421  0.00  0.00    +0.000 HD
ENDBRANCH  27  30
ENDBRANCH   1  22
TORSDOF 8
ENDMDL
