MODEL 1
REMARK VINA RESULT:      -8.3      0.000      0.000
REMARK  Name = 
REMARK  2 active torsions:
REMARK  status: ('A' for Active; 'I' for Inactive)
REMARK    1  A    between atoms: C_2  and  C_3
REMARK    2  A    between atoms: N_16  and  C_17
REMARK                            x       y       z     vdW  Elec       q    Type
REMARK                         _______ _______ _______ _____ _____    ______ ____
ROOT
ATOM      1  O   UNL     1       7.520   5.879  15.879  0.00  0.00    +0.000 OA
ATOM      2  C   UNL     1       7.177   6.229  17.008  0.00  0.00    +0.000 C 
ATOM      3  N   UNL     1       6.284   5.467  17.754  0.00  0.00    +0.000 N 
ATOM      4  C   UNL     1       5.935   5.642  19.171  0.00  0.00    +0.000 C 
ATOM      5  C   UNL     1       4.476   6.110  19.279  0.00  0.00    +0.000 C 
ATOM      6  N   UNL     1       3.586   5.130  18.630  0.00  0.00    +0.000 N 
ATOM      7  C   UNL     1       3.945   4.779  17.235  0.00  0.00    +0.000 C 
ATOM      8  C   UNL     1       5.455   4.452  17.096  0.00  0.00    +0.000 C 
ENDROOT
BRANCH   2   9
ATOM      9  C   UNL     1       7.714   7.456  17.576  0.00  0.00    +0.000 A 
ATOM     10  C   UNL     1       8.455   7.704  18.713  0.00  0.00    +0.000 A 
ATOM     11  C   UNL     1       8.750   9.084  18.785  0.00  0.00    +0.000 A 
ATOM     12  C   UNL     1       9.518   9.861  19.670  0.00  0.00    +0.000 A 
ATOM     13  C   UNL     1       9.534  11.243  19.501  0.00  0.00    +0.000 A 
ATOM     14 CL   UNL     1      10.442  12.212  20.598  0.00  0.00    +0.000 Cl
ATOM     15  C   UNL     1       8.818  11.850  18.471  0.00  0.00    +0.000 A 
ATOM     16  C   UNL     1       8.074  11.087  17.559  0.00  0.00    +0.000 A 
ATOM     17  C   UNL     1       8.065   9.700  17.743  0.00  0.00    +0.000 A 
ATOM     18  N   UNL     1       7.433   8.698  17.036  0.00  0.00    +0.000 N 
ATOM     19  H   UNL     1       6.845   8.835  16.221  0.00  0.00    +0.000 HD
ENDBRANCH   2   9
BRANCH   6  20
ATOM     20  C   UNL     1       2.721   4.337  19.371  0.00  0.00    +0.000 A 
ATOM     21  C   UNL     1       3.065   3.958  20.680  0.00  0.00    +0.000 A 
ATOM     22  C   UNL     1       2.248   3.123  21.452  0.00  0.00    +0.000 A 
ATOM     23  C   UNL     1       1.054   2.635  20.931  0.00  0.00    +0.000 A 
ATOM     24  C   UNL     1       0.683   2.987  19.640  0.00  0.00    +0.000 A 
ATOM     25  C   UNL     1       1.504   3.823  18.879  0.00  0.00    +0.000 A 
ATOM     26  F   UNL     1       1.064   4.154  17.655  0.00  0.00    +0.000 F 
ENDBRANCH   6  20
TORSDOF 2
ENDMDL
MODEL 2
REMARK VINA RESULT:      -8.2      1.023      1.281
REMARK  Name = 
REMARK  2 active torsions:
REMARK  status: ('A' for Active; 'I' for Inactive)
REMARK    1  A    between atoms: C_2  and  C_3
REMARK    2  A    between atoms: N_16  and  C_17
REMARK                            x       y       z     vdW  Elec       q    Type
REMARK                         _______ _______ _______ _____ _____    ______ ____
ROOT
ATOM      1  O   UNL     1       7.561   6.002  15.853  0.00  0.00    +0.000 OA
ATOM      2  C   UNL     1       7.255   6.311  17.003  0.00  0.00    +0.000 C 
ATOM      3  N   UNL     1       6.416   5.503  17.764  0.00  0.00    +0.000 N 
ATOM      4  C   UNL     1       6.121   5.631  19.198  0.00  0.00    +0.000 C 
ATOM      5  C   UNL     1       4.654   6.050  19.378  0.00  0.00    +0.000 C 
ATOM      6  N   UNL     1       3.768   5.061  18.739  0.00  0.00    +0.000 N 
ATOM      7  C   UNL     1       4.079   4.757  17.322  0.00  0.00    +0.000 C 
ATOM      8  C   UNL     1       5.591   4.481  17.113  0.00  0.00    +0.000 C 
ENDROOT
BRANCH   2   9
ATOM      9  C   UNL     1       7.777   7.540  17.583  0.00  0.00    +0.000 A 
ATOM     10  C   UNL     1       8.497   7.789  18.733  0.00  0.00    +0.000 A 
ATOM     11  C   UNL     1       8.787   9.170  18.812  0.00  0.00    +0.000 A 
ATOM     12  C   UNL     1       9.536   9.947  19.712  0.00  0.00    +0.000 A 
ATOM     13  C   UNL     1       9.552  11.330  19.544  0.00  0.00    +0.000 A 
ATOM     14 CL   UNL     1      10.437  12.300  20.659  0.00  0.00    +0.000 Cl
ATOM     15  C   UNL     1       8.853  11.936  18.501  0.00  0.00    +0.000 A 
ATOM     16  C   UNL     1       8.129  11.171  17.576  0.00  0.00    +0.000 A 
ATOM     17  C   UNL     1       8.119   9.784  17.758  0.00  0.00    +0.000 A 
ATOM     18  N   UNL     1       7.503   8.782  17.038  0.00  0.00    +0.000 N 
ATOM     19  H   UNL     1       6.931   8.918  16.213  0.00  0.00    +0.000 HD
ENDBRANCH   2   9
BRANCH   6  20
ATOM     20  C   UNL     1       2.958   4.223  19.493  0.00  0.00    +0.000 A 
ATOM     21  C   UNL     1       1.589   4.508  19.628  0.00  0.00    +0.000 A 
ATOM     22  C   UNL     1       0.738   3.720  20.414  0.00  0.00    +0.000 A 
ATOM     23  C   UNL     1       1.238   2.616  21.096  0.00  0.00    +0.000 A 
ATOM     24  C   UNL     1       2.588   2.305  20.988  0.00  0.00    +0.000 A 
ATOM     25  C   UNL     1       3.426   3.096  20.199  0.00  0.00    +0.000 A 
ATOM     26  F   UNL     1       4.710   2.715  20.108  0.00  0.00    +0.000 F 
ENDBRANCH   6  20
TORSDOF 2
ENDMDL
MODEL 3
REMARK VINA RESULT:      -7.8      0.915      1.015
REMARK  Name = 
REMARK  2 active torsions:
REMARK  status: ('A' for Active; 'I' for Inactive)
REMARK    1  A    between atoms: C_2  and  C_3
REMARK    2  A    between atoms: N_16  and  C_17
REMARK                            x       y       z     vdW  Elec       q    Type
REMARK                         _______ _______ _______ _____ _____    ______ ____
ROOT
ATOM      1  O   UNL     1       7.664   6.100  15.788  0.00  0.00    +0.000 OA
ATOM      2  C   UNL     1       7.305   6.395  16.927  0.00  0.00    +0.000 C 
ATOM      3  N   UNL     1       6.421   5.584  17.631  0.00  0.00    +0.000 N 
ATOM      4  C   UNL     1       6.056   5.692  19.051  0.00  0.00    +0.000 C 
ATOM      5  C   UNL     1       4.587   6.125  19.166  0.00  0.00    +0.000 C 
ATOM      6  N   UNL     1       3.723   5.157  18.467  0.00  0.00    +0.000 N 
ATOM      7  C   UNL     1       4.100   4.873  17.062  0.00  0.00    +0.000 C 
ATOM      8  C   UNL     1       5.618   4.583  16.923  0.00  0.00    +0.000 C 
ENDROOT
BRANCH   2   9
ATOM      9  C   UNL     1       7.812   7.607  17.552  0.00  0.00    +0.000 A 
ATOM     10  C   UNL     1       8.490   7.826  18.733  0.00  0.00    +0.000 A 
ATOM     11  C   UNL     1       8.783   9.203  18.854  0.00  0.00    +0.000 A 
ATOM     12  C   UNL     1       9.503   9.957  19.797  0.00  0.00    +0.000 A 
ATOM     13  C   UNL     1       9.532  11.343  19.661  0.00  0.00    +0.000 A 
ATOM     14 CL   UNL     1      10.380  12.283  20.829  0.00  0.00    +0.000 Cl
ATOM     15  C   UNL     1       8.875  11.975  18.607  0.00  0.00    +0.000 A 
ATOM     16  C   UNL     1       8.181  11.235  17.639  0.00  0.00    +0.000 A 
ATOM     17  C   UNL     1       8.158   9.845  17.790  0.00  0.00    +0.000 A 
ATOM     18  N   UNL     1       7.564   8.862  17.026  0.00  0.00    +0.000 N 
ATOM     19  H   UNL     1       7.023   9.019  16.183  0.00  0.00    +0.000 HD
ENDBRANCH   2   9
BRANCH   6  20
ATOM     20  C   UNL     1       2.867   4.317  19.165  0.00  0.00    +0.000 A 
ATOM     21  C   UNL     1       2.922   2.929  18.953  0.00  0.00    +0.000 A 
ATOM     22  C   UNL     1       2.050   2.042  19.599  0.00  0.00    +0.000 A 
ATOM     23  C   UNL     1       1.087   2.524  20.480  0.00  0.00    +0.000 A 
ATOM     24  C   UNL     1       1.002   3.891  20.712  0.00  0.00    +0.000 A 
ATOM     25  C   UNL     1       1.878   4.766  20.064  0.00  0.00    +0.000 A 
ATOM     26  F   UNL     1       1.766   6.069  20.365  0.00  0.00    +0.000 F 
ENDBRANCH   6  20
TORSDOF 2
ENDMDL
MODEL 4
REMARK VINA RESULT:      -7.5      7.165      8.917
REMARK  Name = 
REMARK  2 active torsions:
REMARK  status: ('A' for Active; 'I' for Inactive)
REMARK    1  A    between atoms: C_2  and  C_3
REMARK    2  A    between atoms: N_16  and  C_17
REMARK                            x       y       z     vdW  Elec       q    Type
REMARK                         _______ _______ _______ _____ _____    ______ ____
ROOT
ATOM      1  O   UNL     1       2.394  10.037  17.569  0.00  0.00    +0.000 OA
ATOM      2  C   UNL     1       1.675   9.528  18.428  0.00  0.00    +0.000 C 
ATOM      3  N   UNL     1       0.635  10.247  19.010  0.00  0.00    +0.000 N 
ATOM      4  C   UNL     1      -0.420   9.727  19.891  0.00  0.00    +0.000 C 
ATOM      5  C   UNL     1      -0.226  10.294  21.305  0.00  0.00    +0.000 C 
ATOM      6  N   UNL     1      -0.248  11.767  21.261  0.00  0.00    +0.000 N 
ATOM      7  C   UNL     1       0.688  12.384  20.291  0.00  0.00    +0.000 C 
ATOM      8  C   UNL     1       0.600  11.708  18.898  0.00  0.00    +0.000 C 
ENDROOT
BRANCH   2   9
ATOM      9  C   UNL     1       1.909   8.153  18.844  0.00  0.00    +0.000 A 
ATOM     10  C   UNL     1       1.913   7.548  20.083  0.00  0.00    +0.000 A 
ATOM     11  C   UNL     1       2.165   6.166  19.926  0.00  0.00    +0.000 A 
ATOM     12  C   UNL     1       2.207   5.086  20.825  0.00  0.00    +0.000 A 
ATOM     13  C   UNL     1       2.575   3.832  20.343  0.00  0.00    +0.000 A 
ATOM     14 CL   UNL     1       2.665   2.506  21.438  0.00  0.00    +0.000 Cl
ATOM     15  C   UNL     1       2.885   3.642  18.997  0.00  0.00    +0.000 A 
ATOM     16  C   UNL     1       2.815   4.702  18.082  0.00  0.00    +0.000 A 
ATOM     17  C   UNL     1       2.447   5.956  18.581  0.00  0.00    +0.000 A 
ATOM     18  N   UNL     1       2.301   7.174  17.949  0.00  0.00    +0.000 N 
ATOM     19  H   UNL     1       2.449   7.344  16.960  0.00  0.00    +0.000 HD
ENDBRANCH   2   9
BRANCH   6  20
ATOM     20  C   UNL     1      -1.301  12.490  21.803  0.00  0.00    +0.000 A 
ATOM     21  C   UNL     1      -1.168  13.074  23.075  0.00  0.00    +0.000 A 
ATOM     22  C   UNL     1      -2.216  13.775  23.685  0.00  0.00    +0.000 A 
ATOM     23  C   UNL     1      -3.440  13.910  23.037  0.00  0.00    +0.000 A 
ATOM     24  C   UNL     1      -3.608  13.344  21.779  0.00  0.00    +0.000 A 
ATOM     25  C   UNL     1      -2.555  12.649  21.179  0.00  0.00    +0.000 A 
ATOM     26  F   UNL     1      -2.775  12.162  19.947  0.00  0.00    +0.000 F 
ENDBRANCH   6  20
TORSDOF 2
ENDMDL
MODEL 5
REMARK VINA RESULT:      -7.4      7.367      8.853
REMARK  Name = 
REMARK  2 active torsions:
REMARK  status: ('A' for Active; 'I' for Inactive)
REMARK    1  A    between atoms: C_2  and  C_3
REMARK    2  A    between atoms: N_16  and  C_17
REMARK                            x       y       z     vdW  Elec       q    Type
REMARK                         _______ _______ _______ _____ _____    ______ ____
ROOT
ATOM      1  O   UNL     1       2.523  11.106  17.832  0.00  0.00    +0.000 OA
ATOM      2  C   UNL     1       1.739  10.347  18.401  0.00  0.00    +0.000 C 
ATOM      3  N   UNL     1       0.551  10.822  18.946  0.00  0.00    +0.000 N 
ATOM      4  C   UNL     1      -0.565  10.024  19.475  0.00  0.00    +0.000 C 
ATOM      5  C   UNL     1      -0.654  10.221  20.996  0.00  0.00    +0.000 C 
ATOM      6  N   UNL     1      -0.829  11.651  21.306  0.00  0.00    +0.000 N 
ATOM      7  C   UNL     1       0.172  12.557  20.696  0.00  0.00    +0.000 C 
ATOM      8  C   UNL     1       0.374  12.257  19.187  0.00  0.00    +0.000 C 
ENDROOT
BRANCH   2   9
ATOM      9  C   UNL     1       2.055   8.931  18.506  0.00  0.00    +0.000 A 
ATOM     10  C   UNL     1       2.470   8.002  17.574  0.00  0.00    +0.000 A 
ATOM     11  C   UNL     1       2.671   6.758  18.213  0.00  0.00    +0.000 A 
ATOM     12  C   UNL     1       3.151   5.513  17.770  0.00  0.00    +0.000 A 
ATOM     13  C   UNL     1       3.145   4.442  18.660  0.00  0.00    +0.000 A 
ATOM     14 CL   UNL     1       3.697   2.902  18.122  0.00  0.00    +0.000 Cl
ATOM     15  C   UNL     1       2.687   4.596  19.968  0.00  0.00    +0.000 A 
ATOM     16  C   UNL     1       2.237   5.839  20.435  0.00  0.00    +0.000 A 
ATOM     17  C   UNL     1       2.246   6.905  19.529  0.00  0.00    +0.000 A 
ATOM     18  N   UNL     1       1.862   8.222  19.679  0.00  0.00    +0.000 N 
ATOM     19  H   UNL     1       1.496   8.634  20.529  0.00  0.00    +0.000 HD
ENDBRANCH   2   9
BRANCH   6  20
ATOM     20  C   UNL     1      -2.025  12.139  21.813  0.00  0.00    +0.000 A 
ATOM     21  C   UNL     1      -2.267  12.102  23.197  0.00  0.00    +0.000 A 
ATOM     22  C   UNL     1      -3.476  12.540  23.754  0.00  0.00    +0.000 A 
ATOM     23  C   UNL     1      -4.488  13.029  22.934  0.00  0.00    +0.000 A 
ATOM     24  C   UNL     1      -4.285  13.078  21.560  0.00  0.00    +0.000 A 
ATOM     25  C   UNL     1      -3.075  12.641  21.016  0.00  0.00    +0.000 A 
ATOM     26  F   UNL     1      -2.932  12.755  19.686  0.00  0.00    +0.000 F 
ENDBRANCH   6  20
TORSDOF 2
ENDMDL
MODEL 6
REMARK VINA RESULT:      -7.4      7.263      9.029
REMARK  Name = 
REMARK  2 active torsions:
REMARK  status: ('A' for Active; 'I' for Inactive)
REMARK    1  A    between atoms: C_2  and  C_3
REMARK    2  A    between atoms: N_16  and  C_17
REMARK                            x       y       z     vdW  Elec       q    Type
REMARK                         _______ _______ _______ _____ _____    ______ ____
ROOT
ATOM      1  O   UNL     1       2.133  10.109  17.619  0.00  0.00    +0.000 OA
ATOM      2  C   UNL     1       1.561   9.583  18.572  0.00  0.00    +0.000 C 
ATOM      3  N   UNL     1       0.625  10.286  19.324  0.00  0.00    +0.000 N 
ATOM      4  C   UNL     1      -0.274   9.745  20.353  0.00  0.00    +0.000 C 
ATOM      5  C   UNL     1       0.141  10.292  21.727  0.00  0.00    +0.000 C 
ATOM      6  N   UNL     1       0.106  11.765  21.712  0.00  0.00    +0.000 N 
ATOM      7  C   UNL     1       0.874  12.403  20.616  0.00  0.00    +0.000 C 
ATOM      8  C   UNL     1       0.567  11.749  19.243  0.00  0.00    +0.000 C 
ENDROOT
BRANCH   2   9
ATOM      9  C   UNL     1       1.864   8.203  18.923  0.00  0.00    +0.000 A 
ATOM     10  C   UNL     1       1.935   7.549  20.135  0.00  0.00    +0.000 A 
ATOM     11  C   UNL     1       2.235   6.186  19.913  0.00  0.00    +0.000 A 
ATOM     12  C   UNL     1       2.351   5.074  20.764  0.00  0.00    +0.000 A 
ATOM     13  C   UNL     1       2.751   3.856  20.218  0.00  0.00    +0.000 A 
ATOM     14 CL   UNL     1       2.931   2.492  21.254  0.00  0.00    +0.000 Cl
ATOM     15  C   UNL     1       3.021   3.733  18.856  0.00  0.00    +0.000 A 
ATOM     16  C   UNL     1       2.878   4.825  17.989  0.00  0.00    +0.000 A 
ATOM     17  C   UNL     1       2.478   6.042  18.551  0.00  0.00    +0.000 A 
ATOM     18  N   UNL     1       2.263   7.277  17.975  0.00  0.00    +0.000 N 
ATOM     19  H   UNL     1       2.370   7.493  16.991  0.00  0.00    +0.000 HD
ENDBRANCH   2   9
BRANCH   6  20
ATOM     20  C   UNL     1      -0.849  12.473  22.427  0.00  0.00    +0.000 A 
ATOM     21  C   UNL     1      -2.053  11.849  22.795  0.00  0.00    +0.000 A 
ATOM     22  C   UNL     1      -3.068  12.532  23.477  0.00  0.00    +0.000 A 
ATOM     23  C   UNL     1      -2.907  13.874  23.810  0.00  0.00    +0.000 A 
ATOM     24  C   UNL     1      -1.731  14.524  23.459  0.00  0.00    +0.000 A 
ATOM     25  C   UNL     1      -0.725  13.832  22.781  0.00  0.00    +0.000 A 
ATOM     26  F   UNL     1       0.401  14.512  22.509  0.00  0.00    +0.000 F 
ENDBRANCH   6  20
TORSDOF 2
ENDMDL
MODEL 7
REMARK VINA RESULT:      -7.4      4.713      7.157
REMARK  Name = 
REMARK  2 active torsions:
REMARK  status: ('A' for Active; 'I' for Inactive)
REMARK    1  A    between atoms: C_2  and  C_3
REMARK    2  A    between atoms: N_16  and  C_17
REMARK                            x       y       z     vdW  Elec       q    Type
REMARK                         _______ _______ _______ _____ _____    ______ ____
ROOT
ATOM      1  O   UNL     1       2.103   4.900  21.293  0.00  0.00    +0.000 OA
ATOM      2  C   UNL     1       2.177   5.718  20.378  0.00  0.00    +0.000 C 
ATOM      3  N   UNL     1       2.757   5.381  19.160  0.00  0.00    +0.000 N 
ATOM      4  C   UNL     1       2.744   6.171  17.920  0.00  0.00    +0.000 C 
ATOM      5  C   UNL     1       4.167   6.664  17.618  0.00  0.00    +0.000 C 
ATOM      6  N   UNL     1       5.082   5.514  17.505  0.00  0.00    +0.000 N 
ATOM      7  C   UNL     1       5.062   4.576  18.653  0.00  0.00    +0.000 C 
ATOM      8  C   UNL     1       3.613   4.195  19.057  0.00  0.00    +0.000 C 
ENDROOT
BRANCH   2   9
ATOM      9  C   UNL     1       1.648   7.061  20.566  0.00  0.00    +0.000 A 
ATOM     10  C   UNL     1       1.707   8.198  19.788  0.00  0.00    +0.000 A 
ATOM     11  C   UNL     1       0.990   9.237  20.424  0.00  0.00    +0.000 A 
ATOM     12  C   UNL     1       0.669  10.554  20.052  0.00  0.00    +0.000 A 
ATOM     13  C   UNL     1       0.002  11.361  20.971  0.00  0.00    +0.000 A 
ATOM     14 CL   UNL     1      -0.367  12.988  20.544  0.00  0.00    +0.000 Cl
ATOM     15  C   UNL     1      -0.354  10.876  22.228  0.00  0.00    +0.000 A 
ATOM     16  C   UNL     1      -0.071   9.555  22.601  0.00  0.00    +0.000 A 
ATOM     17  C   UNL     1       0.602   8.756  21.669  0.00  0.00    +0.000 A 
ATOM     18  N   UNL     1       1.024   7.445  21.740  0.00  0.00    +0.000 N 
ATOM     19  H   UNL     1       0.894   6.828  22.534  0.00  0.00    +0.000 HD
ENDBRANCH   2   9
BRANCH   6  20
ATOM     20  C   UNL     1       5.634   5.146  16.287  0.00  0.00    +0.000 A 
ATOM     21  C   UNL     1       4.916   4.308  15.416  0.00  0.00    +0.000 A 
ATOM     22  C   UNL     1       5.446   3.872  14.196  0.00  0.00    +0.000 A 
ATOM     23  C   UNL     1       6.724   4.261  13.809  0.00  0.00    +0.000 A 
ATOM     24  C   UNL     1       7.465   5.087  14.645  0.00  0.00    +0.000 A 
ATOM     25  C   UNL     1       6.925   5.519  15.859  0.00  0.00    +0.000 A 
ATOM     26  F   UNL     1       7.680   6.347  16.598  0.00  0.00    +0.000 F 
ENDBRANCH   6  20
TORSDOF 2
ENDMDL
MODEL 8
REMARK VINA RESULT:      -7.3      7.801      9.285
REMARK  Name = 
REMARK  2 active torsions:
REMARK  status: ('A' for Active; 'I' for Inactive)
REMARK    1  A    between atoms: C_2  and  C_3
REMARK    2  A    between atoms: N_16  and  C_17
REMARK                            x       y       z     vdW  Elec       q    Type
REMARK                         _______ _______ _______ _____ _____    ______ ____
ROOT
ATOM      1  O   UNL     1       2.002  11.992  18.777  0.00  0.00    +0.000 OA
ATOM      2  C   UNL     1       1.195  11.089  18.563  0.00  0.00    +0.000 C 
ATOM      3  N   UNL     1      -0.123  11.372  18.222  0.00  0.00    +0.000 N 
ATOM      4  C   UNL     1      -1.142  10.423  17.749  0.00  0.00    +0.000 C 
ATOM      5  C   UNL     1      -2.231  10.273  18.821  0.00  0.00    +0.000 C 
ATOM      6  N   UNL     1      -2.827  11.588  19.117  0.00  0.00    +0.000 N 
ATOM      7  C   UNL     1      -1.860  12.655  19.468  0.00  0.00    +0.000 C 
ATOM      8  C   UNL     1      -0.675  12.708  18.467  0.00  0.00    +0.000 C 
ENDROOT
BRANCH   2   9
ATOM      9  C   UNL     1       1.622   9.701  18.666  0.00  0.00    +0.000 A 
ATOM     10  C   UNL     1       2.194   8.838  17.754  0.00  0.00    +0.000 A 
ATOM     11  C   UNL     1       2.446   7.597  18.382  0.00  0.00    +0.000 A 
ATOM     12  C   UNL     1       3.068   6.411  17.956  0.00  0.00    +0.000 A 
ATOM     13  C   UNL     1       3.078   5.318  18.819  0.00  0.00    +0.000 A 
ATOM     14 CL   UNL     1       3.806   3.845  18.299  0.00  0.00    +0.000 Cl
ATOM     15  C   UNL     1       2.498   5.395  20.084  0.00  0.00    +0.000 A 
ATOM     16  C   UNL     1       1.904   6.582  20.536  0.00  0.00    +0.000 A 
ATOM     17  C   UNL     1       1.899   7.670  19.658  0.00  0.00    +0.000 A 
ATOM     18  N   UNL     1       1.392   8.946  19.801  0.00  0.00    +0.000 N 
ATOM     19  H   UNL     1       0.920   9.301  20.625  0.00  0.00    +0.000 HD
ENDBRANCH   2   9
BRANCH   6  20
ATOM     20  C   UNL     1      -4.129  11.893  18.744  0.00  0.00    +0.000 A 
ATOM     21  C   UNL     1      -5.080  12.223  19.725  0.00  0.00    +0.000 A 
ATOM     22  C   UNL     1      -6.416  12.494  19.405  0.00  0.00    +0.000 A 
ATOM     23  C   UNL     1      -6.844  12.438  18.082  0.00  0.00    +0.000 A 
ATOM     24  C   UNL     1      -5.932  12.112  17.086  0.00  0.00    +0.000 A 
ATOM     25  C   UNL     1      -4.602  11.846  17.417  0.00  0.00    +0.000 A 
ATOM     26  F   UNL     1      -3.767  11.577  16.400  0.00  0.00    +0.000 F 
ENDBRANCH   6  20
TORSDOF 2
ENDMDL
MODEL 9
REMARK VINA RESULT:      -7.3      7.151      8.915
REMARK  Name = 
REMARK  2 active torsions:
REMARK  status: ('A' for Active; 'I' for Inactive)
REMARK    1  A    between atoms: C_2  and  C_3
REMARK    2  A    between atoms: N_16  and  C_17
REMARK                            x       y       z     vdW  Elec       q    Type
REMARK                         _______ _______ _______ _____ _____    ______ ____
ROOT
ATOM      1  O   UNL     1       2.737  10.343  17.615  0.00  0.00    +0.000 OA
ATOM      2  C   UNL     1       1.905   9.720  18.273  0.00  0.00    +0.000 C 
ATOM      3  N   UNL     1       0.802  10.363  18.826  0.00  0.00    +0.000 N 
ATOM      4  C   UNL     1      -0.366   9.735  19.460  0.00  0.00    +0.000 C 
ATOM      5  C   UNL     1      -0.359  10.053  20.963  0.00  0.00    +0.000 C 
ATOM      6  N   UNL     1      -0.364  11.512  21.167  0.00  0.00    +0.000 N 
ATOM      7  C   UNL     1       0.698  12.254  20.447  0.00  0.00    +0.000 C 
ATOM      8  C   UNL     1       0.793  11.823  18.960  0.00  0.00    +0.000 C 
ENDROOT
BRANCH   2   9
ATOM      9  C   UNL     1       2.070   8.289  18.476  0.00  0.00    +0.000 A 
ATOM     10  C   UNL     1       2.162   7.232  17.594  0.00  0.00    +0.000 A 
ATOM     11  C   UNL     1       2.354   6.035  18.320  0.00  0.00    +0.000 A 
ATOM     12  C   UNL     1       2.578   4.701  17.936  0.00  0.00    +0.000 A 
ATOM     13  C   UNL     1       2.644   3.725  18.928  0.00  0.00    +0.000 A 
ATOM     14 CL   UNL     1       2.884   2.082  18.472  0.00  0.00    +0.000 Cl
ATOM     15  C   UNL     1       2.505   4.058  20.274  0.00  0.00    +0.000 A 
ATOM     16  C   UNL     1       2.314   5.388  20.675  0.00  0.00    +0.000 A 
ATOM     17  C   UNL     1       2.247   6.357  19.668  0.00  0.00    +0.000 A 
ATOM     18  N   UNL     1       2.060   7.722  19.738  0.00  0.00    +0.000 N 
ATOM     19  H   UNL     1       1.939   8.256  20.591  0.00  0.00    +0.000 HD
ENDBRANCH   2   9
BRANCH   6  20
ATOM     20  C   UNL     1      -1.475  12.166  21.681  0.00  0.00    +0.000 A 
ATOM     21  C   UNL     1      -2.011  13.275  21.003  0.00  0.00    +0.000 A 
ATOM     22  C   UNL     1      -3.103  13.997  21.503  0.00  0.00    +0.000 A 
ATOM     23  C   UNL     1      -3.692  13.629  22.709  0.00  0.00    +0.000 A 
ATOM     24  C   UNL     1      -3.187  12.540  23.408  0.00  0.00    +0.000 A 
ATOM     25  C   UNL     1      -2.100  11.826  22.898  0.00  0.00    +0.000 A 
ATOM     26  F   UNL     1      -1.689  10.761  23.605  0.00  0.00    +0.000 F 
ENDBRANCH   6  20
TORSDOF 2
ENDMDL
