MODEL 1
REMARK VINA RESULT:      -9.2      0.000      0.000
REMARK  Name = 
REMARK  14 active torsions:
REMARK  status: ('A' for Active; 'I' for Inactive)
REMARK    1  A    between atoms: C_1  and  N_2
REMARK    2  A    between atoms: N_2  and  C_3
REMARK    3  A    between atoms: C_3  and  C_4
REMARK    4  A    between atoms: C_4  and  C_5
REMARK    5  A    between atoms: C_5  and  C_6
REMARK    6  A    between atoms: C_6  and  C_7
REMARK    7  A    between atoms: C_7  and  C_8
REMARK    8  A    between atoms: C_8  and  C_9
REMARK    9  A    between atoms: N_11  and  O_12
REMARK   10  A    between atoms: C_13  and  C_15
REMARK   11  A    between atoms: C_18  and  C_19
REMARK   12  A    between atoms: C_19  and  O_20
REMARK   13  A    between atoms: C_19  and  C_21
REMARK   14  A    between atoms: C_19  and  C_28
REMARK                            x       y       z     vdW  Elec       q    Type
REMARK                         _______ _______ _______ _____ _____    ______ ____
ROOT
ATOM      1  C   UNL     1       1.282   9.661  18.942  0.00  0.00    +0.000 A 
ATOM      2  C   UNL     1       1.964   9.189  17.822  0.00  0.00    +0.000 A 
ATOM      3  C   UNL     1       2.528   7.917  17.804  0.00  0.00    +0.000 A 
ATOM      4  C   UNL     1       2.566   7.122  18.958  0.00  0.00    +0.000 A 
ATOM      5  C   UNL     1       1.951   7.641  20.117  0.00  0.00    +0.000 A 
ATOM      6  C   UNL     1       1.293   8.879  20.101  0.00  0.00    +0.000 A 
ENDROOT
BRANCH   1   9
ATOM      7  C   UNL     1      -1.175  12.568  18.575  0.00  0.00    +0.000 C 
ATOM      8  N   UNL     1      -0.690  11.192  18.512  0.00  0.00    +0.000 N 
ATOM      9  C   UNL     1       0.627  11.002  18.981  0.00  0.00    +0.000 C 
ATOM     10  O   UNL     1       1.287  11.931  19.454  0.00  0.00    +0.000 OA
BRANCH   8  11
ATOM     11  C   UNL     1      -1.595  10.098  18.133  0.00  0.00    +0.000 C 
BRANCH  11  12
ATOM     12  C   UNL     1      -2.537  10.309  16.954  0.00  0.00    +0.000 C 
BRANCH  12  13
ATOM     13  C   UNL     1      -3.994  10.280  17.415  0.00  0.00    +0.000 C 
BRANCH  13  14
ATOM     14  C   UNL     1      -4.636  11.644  17.194  0.00  0.00    +0.000 C 
BRANCH  14  15
ATOM     15  C   UNL     1      -6.091  11.658  17.651  0.00  0.00    +0.000 C 
BRANCH  15  16
ATOM     16  C   UNL     1      -6.383  10.488  18.589  0.00  0.00    +0.000 C 
BRANCH  16  17
ATOM     17  C   UNL     1      -6.629  10.953  20.000  0.00  0.00    +0.000 C 
ATOM     18  O   UNL     1      -6.022  11.858  20.566  0.00  0.00    +0.000 OA
ATOM     19  N   UNL     1      -7.645  10.267  20.634  0.00  0.00    +0.000 N 
ATOM     20  H   UNL     1      -7.943   9.343  20.345  0.00  0.00    +0.000 HD
BRANCH  19  21
ATOM     21  O   UNL     1      -7.843  10.602  21.994  0.00  0.00    +0.000 OA
ATOM     22  H   UNL     1      -6.955  10.931  22.255  0.00  0.00    +0.000 HD
ENDBRANCH  19  21
ENDBRANCH  16  17
ENDBRANCH  15  16
ENDBRANCH  14  15
ENDBRANCH  13  14
ENDBRANCH  12  13
ENDBRANCH  11  12
ENDBRANCH   8  11
ENDBRANCH   1   9
BRANCH   4  23
ATOM     23  C   UNL     1       3.356   5.784  18.978  0.00  0.00    +0.000 C 
BRANCH  23  24
ATOM     24  C   UNL     1       2.374   4.668  19.391  0.00  0.00    +0.000 A 
ATOM     25  C   UNL     1       2.445   4.058  20.660  0.00  0.00    +0.000 A 
ATOM     26  C   UNL     1       1.668   2.937  20.967  0.00  0.00    +0.000 A 
ATOM     27  C   UNL     1       0.798   2.405  20.019  0.00  0.00    +0.000 A 
ATOM     28  C   UNL     1       0.688   3.009  18.769  0.00  0.00    +0.000 A 
ATOM     29  C   UNL     1       1.472   4.121  18.466  0.00  0.00    +0.000 A 
ATOM     30  F   UNL     1       1.374   4.645  17.234  0.00  0.00    +0.000 F 
ENDBRANCH  23  24
BRANCH  23  31
ATOM     31  C   UNL     1       4.162   5.479  17.708  0.00  0.00    +0.000 A 
ATOM     32  C   UNL     1       4.472   6.444  16.731  0.00  0.00    +0.000 A 
ATOM     33  C   UNL     1       5.255   6.125  15.613  0.00  0.00    +0.000 A 
ATOM     34  C   UNL     1       5.751   4.835  15.453  0.00  0.00    +0.000 A 
ATOM     35  C   UNL     1       5.466   3.864  16.405  0.00  0.00    +0.000 A 
ATOM     36  C   UNL     1       4.681   4.186  17.511  0.00  0.00    +0.000 A 
ATOM     37  F   UNL     1       4.427   3.210  18.396  0.00  0.00    +0.000 F 
ENDBRANCH  23  31
BRANCH  23  38
ATOM     38  O   UNL     1       4.399   5.923  19.964  0.00  0.00    +0.000 OA
ATOM     39  H   UNL     1       4.912   5.097  19.953  0.00  0.00    +0.000 HD
ENDBRANCH  23  38
ENDBRANCH   4  23
TORSDOF 13
ENDMDL
MODEL 2
REMARK VINA RESULT:      -9.0      2.636      3.360
REMARK  Name = 
REMARK  14 active torsions:
REMARK  status: ('A' for Active; 'I' for Inactive)
REMARK    1  A    between atoms: C_1  and  N_2
REMARK    2  A    between atoms: N_2  and  C_3
REMARK    3  A    between atoms: C_3  and  C_4
REMARK    4  A    between atoms: C_4  and  C_5
REMARK    5  A    between atoms: C_5  and  C_6
REMARK    6  A    between atoms: C_6  and  C_7
REMARK    7  A    between atoms: C_7  and  C_8
REMARK    8  A    between atoms: C_8  and  C_9
REMARK    9  A    between atoms: N_11  and  O_12
REMARK   10  A    between atoms: C_13  and  C_15
REMARK   11  A    between atoms: C_18  and  C_19
REMARK   12  A    between atoms: C_19  and  O_20
REMARK   13  A    between atoms: C_19  and  C_21
REMARK   14  A    between atoms: C_19  and  C_28
REMARK                            x       y       z     vdW  Elec       q    Type
REMARK                         _______ _______ _______ _____ _____    ______ ____
ROOT
ATOM      1  C   UNL     1       1.501   9.584  18.977  0.00  0.00    +0.000 A 
ATOM      2  C   UNL     1       2.271   9.173  17.890  0.00  0.00    +0.000 A 
ATOM      3  C   UNL     1       2.831   7.900  17.844  0.00  0.00    +0.000 A 
ATOM      4  C   UNL     1       2.772   7.039  18.949  0.00  0.00    +0.000 A 
ATOM      5  C   UNL     1       2.065   7.493  20.082  0.00  0.00    +0.000 A 
ATOM      6  C   UNL     1       1.415   8.735  20.085  0.00  0.00    +0.000 A 
ENDROOT
BRANCH   1   9
ATOM      7  C   UNL     1      -0.887  12.539  18.542  0.00  0.00    +0.000 C 
ATOM      8  N   UNL     1      -0.401  11.167  18.431  0.00  0.00    +0.000 N 
ATOM      9  C   UNL     1       0.849  10.925  19.040  0.00  0.00    +0.000 C 
ATOM     10  O   UNL     1       1.448  11.807  19.662  0.00  0.00    +0.000 OA
BRANCH   8  11
ATOM     11  C   UNL     1      -1.255  10.115  17.860  0.00  0.00    +0.000 C 
BRANCH  11  12
ATOM     12  C   UNL     1      -2.573   9.794  18.554  0.00  0.00    +0.000 C 
BRANCH  12  13
ATOM     13  C   UNL     1      -3.732   9.843  17.559  0.00  0.00    +0.000 C 
BRANCH  13  14
ATOM     14  C   UNL     1      -3.706  11.161  16.794  0.00  0.00    +0.000 C 
BRANCH  14  15
ATOM     15  C   UNL     1      -3.111  10.987  15.401  0.00  0.00    +0.000 C 
BRANCH  15  16
ATOM     16  C   UNL     1      -3.955  10.032  14.558  0.00  0.00    +0.000 C 
BRANCH  16  17
ATOM     17  C   UNL     1      -3.336   9.785  13.208  0.00  0.00    +0.000 C 
ATOM     18  O   UNL     1      -2.150   9.542  13.004  0.00  0.00    +0.000 OA
ATOM     19  N   UNL     1      -4.244   9.836  12.170  0.00  0.00    +0.000 N 
ATOM     20  H   UNL     1      -5.127  10.330  12.241  0.00  0.00    +0.000 HD
BRANCH  19  21
ATOM     21  O   UNL     1      -3.690   9.710  10.875  0.00  0.00    +0.000 OA
ATOM     22  H   UNL     1      -4.038   8.837  10.588  0.00  0.00    +0.000 HD
ENDBRANCH  19  21
ENDBRANCH  16  17
ENDBRANCH  15  16
ENDBRANCH  14  15
ENDBRANCH  13  14
ENDBRANCH  12  13
ENDBRANCH  11  12
ENDBRANCH   8  11
ENDBRANCH   1   9
BRANCH   4  23
ATOM     23  C   UNL     1       3.554   5.695  18.955  0.00  0.00    +0.000 C 
BRANCH  23  24
ATOM     24  C   UNL     1       2.551   4.572  19.290  0.00  0.00    +0.000 A 
ATOM     25  C   UNL     1       2.687   3.787  20.453  0.00  0.00    +0.000 A 
ATOM     26  C   UNL     1       1.879   2.666  20.666  0.00  0.00    +0.000 A 
ATOM     27  C   UNL     1       0.913   2.308  19.728  0.00  0.00    +0.000 A 
ATOM     28  C   UNL     1       0.740   3.086  18.587  0.00  0.00    +0.000 A 
ATOM     29  C   UNL     1       1.554   4.198  18.376  0.00  0.00    +0.000 A 
ATOM     30  F   UNL     1       1.390   4.894  17.241  0.00  0.00    +0.000 F 
ENDBRANCH  23  24
BRANCH  23  31
ATOM     31  C   UNL     1       4.409   5.429  17.708  0.00  0.00    +0.000 A 
ATOM     32  C   UNL     1       4.375   6.233  16.553  0.00  0.00    +0.000 A 
ATOM     33  C   UNL     1       5.214   5.974  15.460  0.00  0.00    +0.000 A 
ATOM     34  C   UNL     1       6.110   4.912  15.503  0.00  0.00    +0.000 A 
ATOM     35  C   UNL     1       6.170   4.106  16.633  0.00  0.00    +0.000 A 
ATOM     36  C   UNL     1       5.328   4.363  17.714  0.00  0.00    +0.000 A 
ATOM     37  F   UNL     1       5.419   3.550  18.778  0.00  0.00    +0.000 F 
ENDBRANCH  23  31
BRANCH  23  38
ATOM     38  O   UNL     1       4.557   5.794  19.986  0.00  0.00    +0.000 OA
ATOM     39  H   UNL     1       5.419   5.670  19.555  0.00  0.00    +0.000 HD
ENDBRANCH  23  38
ENDBRANCH   4  23
TORSDOF 13
ENDMDL
MODEL 3
REMARK VINA RESULT:      -8.9      0.818      1.199
REMARK  Name = 
REMARK  14 active torsions:
REMARK  status: ('A' for Active; 'I' for Inactive)
REMARK    1  A    between atoms: C_1  and  N_2
REMARK    2  A    between atoms: N_2  and  C_3
REMARK    3  A    between atoms: C_3  and  C_4
REMARK    4  A    between atoms: C_4  and  C_5
REMARK    5  A    between atoms: C_5  and  C_6
REMARK    6  A    between atoms: C_6  and  C_7
REMARK    7  A    between atoms: C_7  and  C_8
REMARK    8  A    between atoms: C_8  and  C_9
REMARK    9  A    between atoms: N_11  and  O_12
REMARK   10  A    between atoms: C_13  and  C_15
REMARK   11  A    between atoms: C_18  and  C_19
REMARK   12  A    between atoms: C_19  and  O_20
REMARK   13  A    between atoms: C_19  and  C_21
REMARK   14  A    between atoms: C_19  and  C_28
REMARK                            x       y       z     vdW  Elec       q    Type
REMARK                         _______ _______ _______ _____ _____    ______ ____
ROOT
ATOM      1  C   UNL     1       1.249   9.428  19.259  0.00  0.00    +0.000 A 
ATOM      2  C   UNL     1       1.313   8.532  20.324  0.00  0.00    +0.000 A 
ATOM      3  C   UNL     1       2.105   7.390  20.258  0.00  0.00    +0.000 A 
ATOM      4  C   UNL     1       2.748   7.018  19.070  0.00  0.00    +0.000 A 
ATOM      5  C   UNL     1       2.609   7.884  17.964  0.00  0.00    +0.000 A 
ATOM      6  C   UNL     1       1.895   9.086  18.066  0.00  0.00    +0.000 A 
ENDROOT
BRANCH   1   9
ATOM      7  C   UNL     1      -1.300  12.196  18.580  0.00  0.00    +0.000 C 
ATOM      8  N   UNL     1      -0.641  10.902  18.436  0.00  0.00    +0.000 N 
ATOM      9  C   UNL     1       0.445  10.685  19.311  0.00  0.00    +0.000 C 
ATOM     10  O   UNL     1       0.767  11.517  20.162  0.00  0.00    +0.000 OA
BRANCH   8  11
ATOM     11  C   UNL     1      -1.201   9.873  17.548  0.00  0.00    +0.000 C 
BRANCH  11  12
ATOM     12  C   UNL     1      -2.463  10.201  16.760  0.00  0.00    +0.000 C 
BRANCH  12  13
ATOM     13  C   UNL     1      -3.710   9.819  17.555  0.00  0.00    +0.000 C 
BRANCH  13  14
ATOM     14  C   UNL     1      -4.725  10.956  17.511  0.00  0.00    +0.000 C 
BRANCH  14  15
ATOM     15  C   UNL     1      -5.831  10.759  18.542  0.00  0.00    +0.000 C 
BRANCH  15  16
ATOM     16  C   UNL     1      -6.304  12.100  19.101  0.00  0.00    +0.000 C 
BRANCH  16  17
ATOM     17  C   UNL     1      -6.680  11.996  20.555  0.00  0.00    +0.000 C 
ATOM     18  O   UNL     1      -7.802  11.735  20.982  0.00  0.00    +0.000 OA
ATOM     19  N   UNL     1      -5.620  12.207  21.413  0.00  0.00    +0.000 N 
ATOM     20  H   UNL     1      -4.790  12.720  21.139  0.00  0.00    +0.000 HD
BRANCH  19  21
ATOM     21  O   UNL     1      -5.948  12.218  22.788  0.00  0.00    +0.000 OA
ATOM     22  H   UNL     1      -5.092  12.467  23.201  0.00  0.00    +0.000 HD
ENDBRANCH  19  21
ENDBRANCH  16  17
ENDBRANCH  15  16
ENDBRANCH  14  15
ENDBRANCH  13  14
ENDBRANCH  12  13
ENDBRANCH  11  12
ENDBRANCH   8  11
ENDBRANCH   1   9
BRANCH   4  23
ATOM     23  C   UNL     1       3.479   5.651  18.953  0.00  0.00    +0.000 C 
BRANCH  23  24
ATOM     24  C   UNL     1       2.462   4.546  19.309  0.00  0.00    +0.000 A 
ATOM     25  C   UNL     1       2.571   3.800  20.500  0.00  0.00    +0.000 A 
ATOM     26  C   UNL     1       1.752   2.693  20.737  0.00  0.00    +0.000 A 
ATOM     27  C   UNL     1       0.801   2.309  19.794  0.00  0.00    +0.000 A 
ATOM     28  C   UNL     1       0.653   3.048  18.624  0.00  0.00    +0.000 A 
ATOM     29  C   UNL     1       1.479   4.146  18.390  0.00  0.00    +0.000 A 
ATOM     30  F   UNL     1       1.340   4.804  17.228  0.00  0.00    +0.000 F 
ENDBRANCH  23  24
BRANCH  23  31
ATOM     31  C   UNL     1       4.230   5.419  17.635  0.00  0.00    +0.000 A 
ATOM     32  C   UNL     1       4.519   6.442  16.712  0.00  0.00    +0.000 A 
ATOM     33  C   UNL     1       5.253   6.185  15.545  0.00  0.00    +0.000 A 
ATOM     34  C   UNL     1       5.720   4.902  15.281  0.00  0.00    +0.000 A 
ATOM     35  C   UNL     1       5.455   3.874  16.178  0.00  0.00    +0.000 A 
ATOM     36  C   UNL     1       4.718   4.133  17.333  0.00  0.00    +0.000 A 
ATOM     37  F   UNL     1       4.482   3.105  18.162  0.00  0.00    +0.000 F 
ENDBRANCH  23  31
BRANCH  23  38
ATOM     38  O   UNL     1       4.557   5.664  19.910  0.00  0.00    +0.000 OA
ATOM     39  H   UNL     1       4.476   6.489  20.417  0.00  0.00    +0.000 HD
ENDBRANCH  23  38
ENDBRANCH   4  23
TORSDOF 13
ENDMDL
MODEL 4
REMARK VINA RESULT:      -8.8      1.098      1.304
REMARK  Name = 
REMARK  14 active torsions:
REMARK  status: ('A' for Active; 'I' for Inactive)
REMARK    1  A    between atoms: C_1  and  N_2
REMARK    2  A    between atoms: N_2  and  C_3
REMARK    3  A    between atoms: C_3  and  C_4
REMARK    4  A    between atoms: C_4  and  C_5
REMARK    5  A    between atoms: C_5  and  C_6
REMARK    6  A    between atoms: C_6  and  C_7
REMARK    7  A    between atoms: C_7  and  C_8
REMARK    8  A    between atoms: C_8  and  C_9
REMARK    9  A    between atoms: N_11  and  O_12
REMARK   10  A    between atoms: C_13  and  C_15
REMARK   11  A    between atoms: C_18  and  C_19
REMARK   12  A    between atoms: C_19  and  O_20
REMARK   13  A    between atoms: C_19  and  C_21
REMARK   14  A    between atoms: C_19  and  C_28
REMARK                            x       y       z     vdW  Elec       q    Type
REMARK                         _______ _______ _______ _____ _____    ______ ____
ROOT
ATOM      1  C   UNL     1       1.367   9.613  19.103  0.00  0.00    +0.000 A 
ATOM      2  C   UNL     1       2.092   9.217  17.980  0.00  0.00    +0.000 A 
ATOM      3  C   UNL     1       2.648   7.945  17.893  0.00  0.00    +0.000 A 
ATOM      4  C   UNL     1       2.632   7.068  18.987  0.00  0.00    +0.000 A 
ATOM      5  C   UNL     1       1.973   7.507  20.155  0.00  0.00    +0.000 A 
ATOM      6  C   UNL     1       1.324   8.749  20.201  0.00  0.00    +0.000 A 
ENDROOT
BRANCH   1   9
ATOM      7  C   UNL     1      -0.918  12.644  18.641  0.00  0.00    +0.000 C 
ATOM      8  N   UNL     1      -0.428  11.281  18.458  0.00  0.00    +0.000 N 
ATOM      9  C   UNL     1       0.719  10.954  19.211  0.00  0.00    +0.000 C 
ATOM     10  O   UNL     1       1.226  11.754  20.001  0.00  0.00    +0.000 OA
BRANCH   8  11
ATOM     11  C   UNL     1      -1.196  10.312  17.663  0.00  0.00    +0.000 C 
BRANCH  11  12
ATOM     12  C   UNL     1      -2.463   9.718  18.268  0.00  0.00    +0.000 C 
BRANCH  12  13
ATOM     13  C   UNL     1      -3.629   9.821  17.286  0.00  0.00    +0.000 C 
BRANCH  13  14
ATOM     14  C   UNL     1      -3.756  11.253  16.778  0.00  0.00    +0.000 C 
BRANCH  14  15
ATOM     15  C   UNL     1      -5.179  11.778  16.937  0.00  0.00    +0.000 C 
BRANCH  15  16
ATOM     16  C   UNL     1      -5.743  11.429  18.313  0.00  0.00    +0.000 C 
BRANCH  16  17
ATOM     17  C   UNL     1      -5.421  12.489  19.333  0.00  0.00    +0.000 C 
ATOM     18  O   UNL     1      -5.037  12.278  20.480  0.00  0.00    +0.000 OA
ATOM     19  N   UNL     1      -5.581  13.775  18.857  0.00  0.00    +0.000 N 
ATOM     20  H   UNL     1      -6.178  13.995  18.068  0.00  0.00    +0.000 HD
BRANCH  19  21
ATOM     21  O   UNL     1      -5.387  14.800  19.811  0.00  0.00    +0.000 OA
ATOM     22  H   UNL     1      -6.304  14.968  20.121  0.00  0.00    +0.000 HD
ENDBRANCH  19  21
ENDBRANCH  16  17
ENDBRANCH  15  16
ENDBRANCH  14  15
ENDBRANCH  13  14
ENDBRANCH  12  13
ENDBRANCH  11  12
ENDBRANCH   8  11
ENDBRANCH   1   9
BRANCH   4  23
ATOM     23  C   UNL     1       3.413   5.724  18.942  0.00  0.00    +0.000 C 
BRANCH  23  24
ATOM     24  C   UNL     1       2.429   4.599  19.325  0.00  0.00    +0.000 A 
ATOM     25  C   UNL     1       2.535   3.914  20.553  0.00  0.00    +0.000 A 
ATOM     26  C   UNL     1       1.752   2.788  20.822  0.00  0.00    +0.000 A 
ATOM     27  C   UNL     1       0.839   2.326  19.876  0.00  0.00    +0.000 A 
ATOM     28  C   UNL     1       0.695   3.004  18.669  0.00  0.00    +0.000 A 
ATOM     29  C   UNL     1       1.485   4.121  18.403  0.00  0.00    +0.000 A 
ATOM     30  F   UNL     1       1.352   4.718  17.209  0.00  0.00    +0.000 F 
ENDBRANCH  23  24
BRANCH  23  31
ATOM     31  C   UNL     1       4.198   5.465  17.649  0.00  0.00    +0.000 A 
ATOM     32  C   UNL     1       4.489   6.463  16.700  0.00  0.00    +0.000 A 
ATOM     33  C   UNL     1       5.254   6.183  15.559  0.00  0.00    +0.000 A 
ATOM     34  C   UNL     1       5.751   4.902  15.348  0.00  0.00    +0.000 A 
ATOM     35  C   UNL     1       5.485   3.899  16.272  0.00  0.00    +0.000 A 
ATOM     36  C   UNL     1       4.718   4.180  17.401  0.00  0.00    +0.000 A 
ATOM     37  F   UNL     1       4.482   3.175  18.257  0.00  0.00    +0.000 F 
ENDBRANCH  23  31
BRANCH  23  38
ATOM     38  O   UNL     1       4.471   5.817  19.918  0.00  0.00    +0.000 OA
ATOM     39  H   UNL     1       4.949   4.971  19.897  0.00  0.00    +0.000 HD
ENDBRANCH  23  38
ENDBRANCH   4  23
TORSDOF 13
ENDMDL
MODEL 5
REMARK VINA RESULT:      -8.7      1.439      1.778
REMARK  Name = 
REMARK  14 active torsions:
REMARK  status: ('A' for Active; 'I' for Inactive)
REMARK    1  A    between atoms: C_1  and  N_2
REMARK    2  A    between atoms: N_2  and  C_3
REMARK    3  A    between atoms: C_3  and  C_4
REMARK    4  A    between atoms: C_4  and  C_5
REMARK    5  A    between atoms: C_5  and  C_6
REMARK    6  A    between atoms: C_6  and  C_7
REMARK    7  A    between atoms: C_7  and  C_8
REMARK    8  A    between atoms: C_8  and  C_9
REMARK    9  A    between atoms: N_11  and  O_12
REMARK   10  A    between atoms: C_13  and  C_15
REMARK   11  A    between atoms: C_18  and  C_19
REMARK   12  A    between atoms: C_19  and  O_20
REMARK   13  A    between atoms: C_19  and  C_21
REMARK   14  A    between atoms: C_19  and  C_28
REMARK                            x       y       z     vdW  Elec       q    Type
REMARK                         _______ _______ _______ _____ _____    ______ ____
ROOT
ATOM      1  C   UNL     1       1.248   9.561  19.179  0.00  0.00    +0.000 A 
ATOM      2  C   UNL     1       1.248   8.660  20.242  0.00  0.00    +0.000 A 
ATOM      3  C   UNL     1       2.034   7.511  20.214  0.00  0.00    +0.000 A 
ATOM      4  C   UNL     1       2.737   7.140  19.060  0.00  0.00    +0.000 A 
ATOM      5  C   UNL     1       2.664   8.011  17.953  0.00  0.00    +0.000 A 
ATOM      6  C   UNL     1       1.955   9.218  18.022  0.00  0.00    +0.000 A 
ENDROOT
BRANCH   1   9
ATOM      7  C   UNL     1      -1.417  12.237  18.585  0.00  0.00    +0.000 C 
ATOM      8  N   UNL     1      -0.780  10.926  18.514  0.00  0.00    +0.000 N 
ATOM      9  C   UNL     1       0.452  10.824  19.194  0.00  0.00    +0.000 C 
ATOM     10  O   UNL     1       0.916  11.767  19.839  0.00  0.00    +0.000 OA
BRANCH   8  11
ATOM     11  C   UNL     1      -1.482   9.786  17.906  0.00  0.00    +0.000 C 
BRANCH  11  12
ATOM     12  C   UNL     1      -1.955   9.910  16.463  0.00  0.00    +0.000 C 
BRANCH  12  13
ATOM     13  C   UNL     1      -3.432  10.296  16.410  0.00  0.00    +0.000 C 
BRANCH  13  14
ATOM     14  C   UNL     1      -4.125   9.879  17.703  0.00  0.00    +0.000 C 
BRANCH  14  15
ATOM     15  C   UNL     1      -5.100  10.948  18.184  0.00  0.00    +0.000 C 
BRANCH  15  16
ATOM     16  C   UNL     1      -5.302  12.026  17.122  0.00  0.00    +0.000 C 
BRANCH  16  17
ATOM     17  C   UNL     1      -6.336  13.037  17.542  0.00  0.00    +0.000 C 
ATOM     18  O   UNL     1      -7.476  13.116  17.092  0.00  0.00    +0.000 OA
ATOM     19  N   UNL     1      -5.895  13.896  18.529  0.00  0.00    +0.000 N 
ATOM     20  H   UNL     1      -4.912  14.077  18.695  0.00  0.00    +0.000 HD
BRANCH  19  21
ATOM     21  O   UNL     1      -6.798  14.924  18.883  0.00  0.00    +0.000 OA
ATOM     22  H   UNL     1      -7.418  14.455  19.483  0.00  0.00    +0.000 HD
ENDBRANCH  19  21
ENDBRANCH  16  17
ENDBRANCH  15  16
ENDBRANCH  14  15
ENDBRANCH  13  14
ENDBRANCH  12  13
ENDBRANCH  11  12
ENDBRANCH   8  11
ENDBRANCH   1   9
BRANCH   4  23
ATOM     23  C   UNL     1       3.462   5.767  18.976  0.00  0.00    +0.000 C 
BRANCH  23  24
ATOM     24  C   UNL     1       2.442   4.676  19.364  0.00  0.00    +0.000 A 
ATOM     25  C   UNL     1       2.505   4.018  20.609  0.00  0.00    +0.000 A 
ATOM     26  C   UNL     1       1.689   2.918  20.887  0.00  0.00    +0.000 A 
ATOM     27  C   UNL     1       0.786   2.455  19.933  0.00  0.00    +0.000 A 
ATOM     28  C   UNL     1       0.685   3.107  18.707  0.00  0.00    +0.000 A 
ATOM     29  C   UNL     1       1.507   4.198  18.433  0.00  0.00    +0.000 A 
ATOM     30  F   UNL     1       1.415   4.769  17.222  0.00  0.00    +0.000 F 
ENDBRANCH  23  24
BRANCH  23  31
ATOM     31  C   UNL     1       4.208   5.498  17.662  0.00  0.00    +0.000 A 
ATOM     32  C   UNL     1       4.470   6.489  16.698  0.00  0.00    +0.000 A 
ATOM     33  C   UNL     1       5.200   6.202  15.536  0.00  0.00    +0.000 A 
ATOM     34  C   UNL     1       5.690   4.918  15.319  0.00  0.00    +0.000 A 
ATOM     35  C   UNL     1       5.453   3.922  16.258  0.00  0.00    +0.000 A 
ATOM     36  C   UNL     1       4.720   4.212  17.407  0.00  0.00    +0.000 A 
ATOM     37  F   UNL     1       4.510   3.213  18.278  0.00  0.00    +0.000 F 
ENDBRANCH  23  31
BRANCH  23  38
ATOM     38  O   UNL     1       4.544   5.801  19.929  0.00  0.00    +0.000 OA
ATOM     39  H   UNL     1       4.206   5.417  20.755  0.00  0.00    +0.000 HD
ENDBRANCH  23  38
ENDBRANCH   4  23
TORSDOF 13
ENDMDL
MODEL 6
REMARK VINA RESULT:      -8.5      3.520      6.644
REMARK  Name = 
REMARK  14 active torsions:
REMARK  status: ('A' for Active; 'I' for Inactive)
REMARK    1  A    between atoms: C_1  and  N_2
REMARK    2  A    between atoms: N_2  and  C_3
REMARK    3  A    between atoms: C_3  and  C_4
REMARK    4  A    between atoms: C_4  and  C_5
REMARK    5  A    between atoms: C_5  and  C_6
REMARK    6  A    between atoms: C_6  and  C_7
REMARK    7  A    between atoms: C_7  and  C_8
REMARK    8  A    between atoms: C_8  and  C_9
REMARK    9  A    between atoms: N_11  and  O_12
REMARK   10  A    between atoms: C_13  and  C_15
REMARK   11  A    between atoms: C_18  and  C_19
REMARK   12  A    between atoms: C_19  and  O_20
REMARK   13  A    between atoms: C_19  and  C_21
REMARK   14  A    between atoms: C_19  and  C_28
REMARK                            x       y       z     vdW  Elec       q    Type
REMARK                         _______ _______ _______ _____ _____    ______ ____
ROOT
ATOM      1  C   UNL     1       0.871   9.571  18.984  0.00  0.00    +0.000 A 
ATOM      2  C   UNL     1       1.068   8.846  20.157  0.00  0.00    +0.000 A 
ATOM      3  C   UNL     1       1.939   7.761  20.197  0.00  0.00    +0.000 A 
ATOM      4  C   UNL     1       2.532   7.262  19.029  0.00  0.00    +0.000 A 
ATOM      5  C   UNL     1       2.260   7.946  17.825  0.00  0.00    +0.000 A 
ATOM      6  C   UNL     1       1.465   9.101  17.808  0.00  0.00    +0.000 A 
ENDROOT
BRANCH   1   9
ATOM      7  C   UNL     1      -0.561  13.110  19.198  0.00  0.00    +0.000 C 
ATOM      8  N   UNL     1       0.440  12.051  19.275  0.00  0.00    +0.000 N 
ATOM      9  C   UNL     1      -0.021  10.767  18.916  0.00  0.00    +0.000 C 
ATOM     10  O   UNL     1      -1.173  10.580  18.517  0.00  0.00    +0.000 OA
BRANCH   8  11
ATOM     11  C   UNL     1       1.847  12.372  19.556  0.00  0.00    +0.000 C 
BRANCH  11  12
ATOM     12  C   UNL     1       2.333  13.794  19.301  0.00  0.00    +0.000 C 
BRANCH  12  13
ATOM     13  C   UNL     1       3.004  13.898  17.932  0.00  0.00    +0.000 C 
BRANCH  13  14
ATOM     14  C   UNL     1       3.515  15.317  17.710  0.00  0.00    +0.000 C 
BRANCH  14  15
ATOM     15  C   UNL     1       4.868  15.535  18.379  0.00  0.00    +0.000 C 
BRANCH  15  16
ATOM     16  C   UNL     1       5.897  14.523  17.880  0.00  0.00    +0.000 C 
BRANCH  16  17
ATOM     17  C   UNL     1       7.288  15.099  17.872  0.00  0.00    +0.000 C 
ATOM     18  O   UNL     1       7.597  16.213  18.287  0.00  0.00    +0.000 OA
ATOM     19  N   UNL     1       8.236  14.239  17.357  0.00  0.00    +0.000 N 
ATOM     20  H   UNL     1       7.999  13.477  16.732  0.00  0.00    +0.000 HD
BRANCH  19  21
ATOM     21  O   UNL     1       9.538  14.776  17.237  0.00  0.00    +0.000 OA
ATOM     22  H   UNL     1       9.569  15.029  16.288  0.00  0.00    +0.000 HD
ENDBRANCH  19  21
ENDBRANCH  16  17
ENDBRANCH  15  16
ENDBRANCH  14  15
ENDBRANCH  13  14
ENDBRANCH  12  13
ENDBRANCH  11  12
ENDBRANCH   8  11
ENDBRANCH   1   9
BRANCH   4  23
ATOM     23  C   UNL     1       3.355   5.943  19.054  0.00  0.00    +0.000 C 
BRANCH  23  24
ATOM     24  C   UNL     1       2.396   4.802  19.454  0.00  0.00    +0.000 A 
ATOM     25  C   UNL     1       2.434   4.224  20.739  0.00  0.00    +0.000 A 
ATOM     26  C   UNL     1       1.685   3.083  21.040  0.00  0.00    +0.000 A 
ATOM     27  C   UNL     1       0.874   2.500  20.070  0.00  0.00    +0.000 A 
ATOM     28  C   UNL     1       0.796   3.071  18.802  0.00  0.00    +0.000 A 
ATOM     29  C   UNL     1       1.552   4.203  18.505  0.00  0.00    +0.000 A 
ATOM     30  F   UNL     1       1.488   4.695  17.258  0.00  0.00    +0.000 F 
ENDBRANCH  23  24
BRANCH  23  31
ATOM     31  C   UNL     1       4.182   5.662  17.792  0.00  0.00    +0.000 A 
ATOM     32  C   UNL     1       4.412   6.615  16.783  0.00  0.00    +0.000 A 
ATOM     33  C   UNL     1       5.218   6.322  15.673  0.00  0.00    +0.000 A 
ATOM     34  C   UNL     1       5.817   5.073  15.555  0.00  0.00    +0.000 A 
ATOM     35  C   UNL     1       5.613   4.115  16.541  0.00  0.00    +0.000 A 
ATOM     36  C   UNL     1       4.805   4.409  17.638  0.00  0.00    +0.000 A 
ATOM     37  F   UNL     1       4.632   3.447  18.557  0.00  0.00    +0.000 F 
ENDBRANCH  23  31
BRANCH  23  38
ATOM     38  O   UNL     1       4.383   6.105  20.052  0.00  0.00    +0.000 OA
ATOM     39  H   UNL     1       5.120   5.525  19.796  0.00  0.00    +0.000 HD
ENDBRANCH  23  38
ENDBRANCH   4  23
TORSDOF 13
ENDMDL
MODEL 7
REMARK VINA RESULT:      -8.5      2.976      4.739
REMARK  Name = 
REMARK  14 active torsions:
REMARK  status: ('A' for Active; 'I' for Inactive)
REMARK    1  A    between atoms: C_1  and  N_2
REMARK    2  A    between atoms: N_2  and  C_3
REMARK    3  A    between atoms: C_3  and  C_4
REMARK    4  A    between atoms: C_4  and  C_5
REMARK    5  A    between atoms: C_5  and  C_6
REMARK    6  A    between atoms: C_6  and  C_7
REMARK    7  A    between atoms: C_7  and  C_8
REMARK    8  A    between atoms: C_8  and  C_9
REMARK    9  A    between atoms: N_11  and  O_12
REMARK   10  A    between atoms: C_13  and  C_15
REMARK   11  A    between atoms: C_18  and  C_19
REMARK   12  A    between atoms: C_19  and  O_20
REMARK   13  A    between atoms: C_19  and  C_21
REMARK   14  A    between atoms: C_19  and  C_28
REMARK                            x       y       z     vdW  Elec       q    Type
REMARK                         _______ _______ _______ _____ _____    ______ ____
ROOT
ATOM      1  C   UNL     1       1.437   9.701  19.049  0.00  0.00    +0.000 A 
ATOM      2  C   UNL     1       1.724   9.254  17.761  0.00  0.00    +0.000 A 
ATOM      3  C   UNL     1       1.902   7.900  17.491  0.00  0.00    +0.000 A 
ATOM      4  C   UNL     1       1.950   6.953  18.523  0.00  0.00    +0.000 A 
ATOM      5  C   UNL     1       1.746   7.423  19.838  0.00  0.00    +0.000 A 
ATOM      6  C   UNL     1       1.464   8.772  20.094  0.00  0.00    +0.000 A 
ENDROOT
BRANCH   1   9
ATOM      7  C   UNL     1      -0.168  13.124  19.627  0.00  0.00    +0.000 C 
ATOM      8  N   UNL     1      -0.101  11.695  19.336  0.00  0.00    +0.000 N 
ATOM      9  C   UNL     1       1.196  11.140  19.367  0.00  0.00    +0.000 C 
ATOM     10  O   UNL     1       2.182  11.816  19.671  0.00  0.00    +0.000 OA
BRANCH   8  11
ATOM     11  C   UNL     1      -1.331  10.904  19.187  0.00  0.00    +0.000 C 
BRANCH  11  12
ATOM     12  C   UNL     1      -1.678  10.353  17.809  0.00  0.00    +0.000 C 
BRANCH  12  13
ATOM     13  C   UNL     1      -3.164  10.006  17.726  0.00  0.00    +0.000 C 
BRANCH  13  14
ATOM     14  C   UNL     1      -3.852  10.908  16.708  0.00  0.00    +0.000 C 
BRANCH  14  15
ATOM     15  C   UNL     1      -3.199  10.803  15.335  0.00  0.00    +0.000 C 
BRANCH  15  16
ATOM     16  C   UNL     1      -3.989   9.869  14.420  0.00  0.00    +0.000 C 
BRANCH  16  17
ATOM     17  C   UNL     1      -3.327   9.713  13.076  0.00  0.00    +0.000 C 
ATOM     18  O   UNL     1      -2.146   9.430  12.895  0.00  0.00    +0.000 OA
ATOM     19  N   UNL     1      -4.189   9.904  12.015  0.00  0.00    +0.000 N 
ATOM     20  H   UNL     1      -5.049  10.433  12.099  0.00  0.00    +0.000 HD
BRANCH  19  21
ATOM     21  O   UNL     1      -3.589   9.866  10.735  0.00  0.00    +0.000 OA
ATOM     22  H   UNL     1      -3.596  10.815  10.478  0.00  0.00    +0.000 HD
ENDBRANCH  19  21
ENDBRANCH  16  17
ENDBRANCH  15  16
ENDBRANCH  14  15
ENDBRANCH  13  14
ENDBRANCH  12  13
ENDBRANCH  11  12
ENDBRANCH   8  11
ENDBRANCH   1   9
BRANCH   4  23
ATOM     23  C   UNL     1       2.330   5.474  18.230  0.00  0.00    +0.000 C 
BRANCH  23  24
ATOM     24  C   UNL     1       3.744   5.469  17.613  0.00  0.00    +0.000 A 
ATOM     25  C   UNL     1       4.543   6.631  17.592  0.00  0.00    +0.000 A 
ATOM     26  C   UNL     1       5.747   6.666  16.885  0.00  0.00    +0.000 A 
ATOM     27  C   UNL     1       6.186   5.542  16.189  0.00  0.00    +0.000 A 
ATOM     28  C   UNL     1       5.429   4.373  16.220  0.00  0.00    +0.000 A 
ATOM     29  C   UNL     1       4.225   4.347  16.920  0.00  0.00    +0.000 A 
ATOM     30  F   UNL     1       3.499   3.219  16.885  0.00  0.00    +0.000 F 
ENDBRANCH  23  24
BRANCH  23  31
ATOM     31  C   UNL     1       2.150   4.506  19.407  0.00  0.00    +0.000 A 
ATOM     32  C   UNL     1       0.966   3.783  19.648  0.00  0.00    +0.000 A 
ATOM     33  C   UNL     1       0.872   2.872  20.710  0.00  0.00    +0.000 A 
ATOM     34  C   UNL     1       1.961   2.659  21.547  0.00  0.00    +0.000 A 
ATOM     35  C   UNL     1       3.144   3.354  21.328  0.00  0.00    +0.000 A 
ATOM     36  C   UNL     1       3.231   4.264  20.276  0.00  0.00    +0.000 A 
ATOM     37  F   UNL     1       4.392   4.916  20.113  0.00  0.00    +0.000 F 
ENDBRANCH  23  31
BRANCH  23  38
ATOM     38  O   UNL     1       1.368   4.970  17.282  0.00  0.00    +0.000 OA
ATOM     39  H   UNL     1       1.533   4.016  17.191  0.00  0.00    +0.000 HD
ENDBRANCH  23  38
ENDBRANCH   4  23
TORSDOF 13
ENDMDL
MODEL 8
REMARK VINA RESULT:      -8.4      3.151      4.758
REMARK  Name = 
REMARK  14 active torsions:
REMARK  status: ('A' for Active; 'I' for Inactive)
REMARK    1  A    between atoms: C_1  and  N_2
REMARK    2  A    between atoms: N_2  and  C_3
REMARK    3  A    between atoms: C_3  and  C_4
REMARK    4  A    between atoms: C_4  and  C_5
REMARK    5  A    between atoms: C_5  and  C_6
REMARK    6  A    between atoms: C_6  and  C_7
REMARK    7  A    between atoms: C_7  and  C_8
REMARK    8  A    between atoms: C_8  and  C_9
REMARK    9  A    between atoms: N_11  and  O_12
REMARK   10  A    between atoms: C_13  and  C_15
REMARK   11  A    between atoms: C_18  and  C_19
REMARK   12  A    between atoms: C_19  and  O_20
REMARK   13  A    between atoms: C_19  and  C_21
REMARK   14  A    between atoms: C_19  and  C_28
REMARK                            x       y       z     vdW  Elec       q    Type
REMARK                         _______ _______ _______ _____ _____    ______ ____
ROOT
ATOM      1  C   UNL     1       1.529   9.280  19.506  0.00  0.00    +0.000 A 
ATOM      2  C   UNL     1       1.729   8.150  20.296  0.00  0.00    +0.000 A 
ATOM      3  C   UNL     1       2.452   7.059  19.823  0.00  0.00    +0.000 A 
ATOM      4  C   UNL     1       2.877   6.991  18.489  0.00  0.00    +0.000 A 
ATOM      5  C   UNL     1       2.595   8.102  17.666  0.00  0.00    +0.000 A 
ATOM      6  C   UNL     1       1.957   9.241  18.174  0.00  0.00    +0.000 A 
ENDROOT
BRANCH   1   9
ATOM      7  C   UNL     1      -1.083  12.010  20.097  0.00  0.00    +0.000 C 
ATOM      8  N   UNL     1      -0.517  10.774  19.565  0.00  0.00    +0.000 N 
ATOM      9  C   UNL     1       0.795  10.485  19.995  0.00  0.00    +0.000 C 
ATOM     10  O   UNL     1       1.386  11.207  20.802  0.00  0.00    +0.000 OA
BRANCH   8  11
ATOM     11  C   UNL     1      -1.346   9.853  18.774  0.00  0.00    +0.000 C 
BRANCH  11  12
ATOM     12  C   UNL     1      -1.935  10.351  17.460  0.00  0.00    +0.000 C 
BRANCH  12  13
ATOM     13  C   UNL     1      -3.134  11.264  17.718  0.00  0.00    +0.000 C 
BRANCH  13  14
ATOM     14  C   UNL     1      -4.067  11.250  16.513  0.00  0.00    +0.000 C 
BRANCH  14  15
ATOM     15  C   UNL     1      -3.306  10.978  15.219  0.00  0.00    +0.000 C 
BRANCH  15  16
ATOM     16  C   UNL     1      -3.987   9.882  14.402  0.00  0.00    +0.000 C 
BRANCH  16  17
ATOM     17  C   UNL     1      -3.344   9.712  13.052  0.00  0.00    +0.000 C 
ATOM     18  O   UNL     1      -2.169   9.411  12.857  0.00  0.00    +0.000 OA
ATOM     19  N   UNL     1      -4.214   9.911  11.999  0.00  0.00    +0.000 N 
ATOM     20  H   UNL     1      -5.066  10.453  12.091  0.00  0.00    +0.000 HD
BRANCH  19  21
ATOM     21  O   UNL     1      -3.629   9.861  10.713  0.00  0.00    +0.000 OA
ATOM     22  H   UNL     1      -4.312   9.378  10.196  0.00  0.00    +0.000 HD
ENDBRANCH  19  21
ENDBRANCH  16  17
ENDBRANCH  15  16
ENDBRANCH  14  15
ENDBRANCH  13  14
ENDBRANCH  12  13
ENDBRANCH  11  12
ENDBRANCH   8  11
ENDBRANCH   1   9
BRANCH   4  23
ATOM     23  C   UNL     1       3.522   5.694  17.924  0.00  0.00    +0.000 C 
BRANCH  23  24
ATOM     24  C   UNL     1       5.046   5.798  18.141  0.00  0.00    +0.000 A 
ATOM     25  C   UNL     1       5.660   5.290  19.304  0.00  0.00    +0.000 A 
ATOM     26  C   UNL     1       7.009   5.535  19.574  0.00  0.00    +0.000 A 
ATOM     27  C   UNL     1       7.778   6.285  18.687  0.00  0.00    +0.000 A 
ATOM     28  C   UNL     1       7.201   6.772  17.517  0.00  0.00    +0.000 A 
ATOM     29  C   UNL     1       5.853   6.531  17.258  0.00  0.00    +0.000 A 
ATOM     30  F   UNL     1       5.321   7.058  16.144  0.00  0.00    +0.000 F 
ENDBRANCH  23  24
BRANCH  23  31
ATOM     31  C   UNL     1       2.900   4.382  18.420  0.00  0.00    +0.000 A 
ATOM     32  C   UNL     1       1.809   4.323  19.308  0.00  0.00    +0.000 A 
ATOM     33  C   UNL     1       1.246   3.098  19.691  0.00  0.00    +0.000 A 
ATOM     34  C   UNL     1       1.757   1.906  19.187  0.00  0.00    +0.000 A 
ATOM     35  C   UNL     1       2.829   1.935  18.303  0.00  0.00    +0.000 A 
ATOM     36  C   UNL     1       3.389   3.156  17.932  0.00  0.00    +0.000 A 
ATOM     37  F   UNL     1       4.428   3.129  17.083  0.00  0.00    +0.000 F 
ENDBRANCH  23  31
BRANCH  23  38
ATOM     38  O   UNL     1       3.220   5.651  16.514  0.00  0.00    +0.000 OA
ATOM     39  H   UNL     1       3.331   4.728  16.229  0.00  0.00    +0.000 HD
ENDBRANCH  23  38
ENDBRANCH   4  23
TORSDOF 13
ENDMDL
MODEL 9
REMARK VINA RESULT:      -8.4      3.104      4.636
REMARK  Name = 
REMARK  14 active torsions:
REMARK  status: ('A' for Active; 'I' for Inactive)
REMARK    1  A    between atoms: C_1  and  N_2
REMARK    2  A    between atoms: N_2  and  C_3
REMARK    3  A    between atoms: C_3  and  C_4
REMARK    4  A    between atoms: C_4  and  C_5
REMARK    5  A    between atoms: C_5  and  C_6
REMARK    6  A    between atoms: C_6  and  C_7
REMARK    7  A    between atoms: C_7  and  C_8
REMARK    8  A    between atoms: C_8  and  C_9
REMARK    9  A    between atoms: N_11  and  O_12
REMARK   10  A    between atoms: C_13  and  C_15
REMARK   11  A    between atoms: C_18  and  C_19
REMARK   12  A    between atoms: C_19  and  O_20
REMARK   13  A    between atoms: C_19  and  C_21
REMARK   14  A    between atoms: C_19  and  C_28
REMARK                            x       y       z     vdW  Elec       q    Type
REMARK                         _______ _______ _______ _____ _____    ______ ____
ROOT
ATOM      1  C   UNL     1       0.933   9.461  19.096  0.00  0.00    +0.000 A 
ATOM      2  C   UNL     1       1.149   8.703  20.246  0.00  0.00    +0.000 A 
ATOM      3  C   UNL     1       2.010   7.610  20.238  0.00  0.00    +0.000 A 
ATOM      4  C   UNL     1       2.573   7.137  19.044  0.00  0.00    +0.000 A 
ATOM      5  C   UNL     1       2.282   7.855  17.865  0.00  0.00    +0.000 A 
ATOM      6  C   UNL     1       1.498   9.017  17.896  0.00  0.00    +0.000 A 
ENDROOT
BRANCH   1   9
ATOM      7  C   UNL     1      -0.400  13.044  19.038  0.00  0.00    +0.000 C 
ATOM      8  N   UNL     1       0.587  11.969  19.000  0.00  0.00    +0.000 N 
ATOM      9  C   UNL     1       0.052  10.666  19.079  0.00  0.00    +0.000 C 
ATOM     10  O   UNL     1      -1.164  10.466  19.122  0.00  0.00    +0.000 OA
BRANCH   8  11
ATOM     11  C   UNL     1       2.003  12.263  18.738  0.00  0.00    +0.000 C 
BRANCH  11  12
ATOM     12  C   UNL     1       2.356  13.571  18.039  0.00  0.00    +0.000 C 
BRANCH  12  13
ATOM     13  C   UNL     1       3.631  14.171  18.628  0.00  0.00    +0.000 C 
BRANCH  13  14
ATOM     14  C   UNL     1       3.422  15.652  18.922  0.00  0.00    +0.000 C 
BRANCH  14  15
ATOM     15  C   UNL     1       1.990  15.939  19.359  0.00  0.00    +0.000 C 
BRANCH  15  16
ATOM     16  C   UNL     1       1.931  16.304  20.841  0.00  0.00    +0.000 C 
BRANCH  16  17
ATOM     17  C   UNL     1       1.678  15.095  21.703  0.00  0.00    +0.000 C 
ATOM     18  O   UNL     1       2.541  14.331  22.125  0.00  0.00    +0.000 OA
ATOM     19  N   UNL     1       0.346  14.910  22.012  0.00  0.00    +0.000 N 
ATOM     20  H   UNL     1      -0.404  15.299  21.452  0.00  0.00    +0.000 HD
BRANCH  19  21
ATOM     21  O   UNL     1       0.051  13.732  22.735  0.00  0.00    +0.000 OA
ATOM     22  H   UNL     1       0.937  13.471  23.071  0.00  0.00    +0.000 HD
ENDBRANCH  19  21
ENDBRANCH  16  17
ENDBRANCH  15  16
ENDBRANCH  14  15
ENDBRANCH  13  14
ENDBRANCH  12  13
ENDBRANCH  11  12
ENDBRANCH   8  11
ENDBRANCH   1   9
BRANCH   4  23
ATOM     23  C   UNL     1       3.384   5.811  19.017  0.00  0.00    +0.000 C 
BRANCH  23  24
ATOM     24  C   UNL     1       2.420   4.666  19.393  0.00  0.00    +0.000 A 
ATOM     25  C   UNL     1       2.515   4.001  20.632  0.00  0.00    +0.000 A 
ATOM     26  C   UNL     1       1.754   2.859  20.898  0.00  0.00    +0.000 A 
ATOM     27  C   UNL     1       0.876   2.360  19.938  0.00  0.00    +0.000 A 
ATOM     28  C   UNL     1       0.743   3.018  18.718  0.00  0.00    +0.000 A 
ATOM     29  C   UNL     1       1.511   4.151  18.456  0.00  0.00    +0.000 A 
ATOM     30  F   UNL     1       1.391   4.729  17.250  0.00  0.00    +0.000 F 
ENDBRANCH  23  24
BRANCH  23  31
ATOM     31  C   UNL     1       4.192   5.563  17.736  0.00  0.00    +0.000 A 
ATOM     32  C   UNL     1       4.448   6.555  16.771  0.00  0.00    +0.000 A 
ATOM     33  C   UNL     1       5.236   6.289  15.642  0.00  0.00    +0.000 A 
ATOM     34  C   UNL     1       5.791   5.026  15.459  0.00  0.00    +0.000 A 
ATOM     35  C   UNL     1       5.560   4.030  16.400  0.00  0.00    +0.000 A 
ATOM     36  C   UNL     1       4.770   4.298  17.516  0.00  0.00    +0.000 A 
ATOM     37  F   UNL     1       4.571   3.299  18.389  0.00  0.00    +0.000 F 
ENDBRANCH  23  31
BRANCH  23  38
ATOM     38  O   UNL     1       4.427   5.931  20.006  0.00  0.00    +0.000 OA
ATOM     39  H   UNL     1       3.995   5.914  20.876  0.00  0.00    +0.000 HD
ENDBRANCH  23  38
ENDBRANCH   4  23
TORSDOF 13
ENDMDL
