MODEL 1
REMARK VINA RESULT:      -7.7      0.000      0.000
REMARK  Name = 
REMARK  12 active torsions:
REMARK  status: ('A' for Active; 'I' for Inactive)
REMARK    1  A    between atoms: C_1  and  C_2
REMARK    2  A    between atoms: C_2  and  O_3
REMARK    3  A    between atoms: O_3  and  C_4
REMARK    4  A    between atoms: C_7  and  C_8
REMARK    5  A    between atoms: C_8  and  C_9
REMARK    6  A    between atoms: C_9  and  N_10
REMARK    7  A    between atoms: C_11  and  C_13
REMARK    8  A    between atoms: N_19  and  C_20
REMARK    9  A    between atoms: N_19  and  C_21
REMARK   10  A    between atoms: C_25  and  O_26
REMARK   11  A    between atoms: O_26  and  C_27
REMARK   12  A    between atoms: C_27  and  C_28
REMARK                            x       y       z     vdW  Elec       q    Type
REMARK                         _______ _______ _______ _____ _____    ______ ____
ROOT
ATOM      1  N   UNL     1       8.451   7.845  18.654  0.00  0.00    +0.000 N 
ATOM      2  C   UNL     1       7.697   7.105  17.763  0.00  0.00    +0.000 C 
ATOM      3  O   UNL     1       7.182   7.628  16.781  0.00  0.00    +0.000 OA
ATOM      4  H   UNL     1       8.590   7.492  19.594  0.00  0.00    +0.000 HD
ENDROOT
BRANCH   2   5
ATOM      5  C   UNL     1       7.508   5.621  18.084  0.00  0.00    +0.000 C 
ATOM      6  C   UNL     1       6.977   4.807  16.889  0.00  0.00    +0.000 C 
ATOM      7  C   UNL     1       5.490   5.061  16.617  0.00  0.00    +0.000 C 
ATOM      8  N   UNL     1       4.682   4.903  17.838  0.00  0.00    +0.000 N 
ATOM      9  C   UNL     1       3.644   3.995  17.796  0.00  0.00    +0.000 C 
ATOM     10  O   UNL     1       3.440   3.386  16.736  0.00  0.00    +0.000 OA
ATOM     11  N   UNL     1       2.825   3.729  18.876  0.00  0.00    +0.000 N 
ATOM     12  C   UNL     1       2.876   4.222  20.242  0.00  0.00    +0.000 C 
ATOM     13  C   UNL     1       1.661   2.880  18.628  0.00  0.00    +0.000 C 
ATOM     14  C   UNL     1       5.115   5.823  18.884  0.00  0.00    +0.000 C 
ATOM     15  C   UNL     1       6.553   5.469  19.286  0.00  0.00    +0.000 C 
ENDBRANCH   2   5
BRANCH   1  16
ATOM     16  C   UNL     1       8.579   9.271  18.385  0.00  0.00    +0.000 C 
BRANCH  16  17
ATOM     17  C   UNL     1       9.355  10.061  19.434  0.00  0.00    +0.000 C 
BRANCH  17  21
ATOM     18  C   UNL     1      10.813  13.633  17.455  0.00  0.00    +0.000 A 
ATOM     19  C   UNL     1      11.668  12.555  17.720  0.00  0.00    +0.000 A 
ATOM     20  C   UNL     1      11.209  11.418  18.390  0.00  0.00    +0.000 A 
ATOM     21  C   UNL     1       9.886  11.343  18.830  0.00  0.00    +0.000 A 
ATOM     22  C   UNL     1       9.050  12.451  18.627  0.00  0.00    +0.000 A 
ATOM     23  C   UNL     1       9.510  13.611  17.978  0.00  0.00    +0.000 A 
BRANCH  18  24
ATOM     24  O   UNL     1      11.198  14.699  16.680  0.00  0.00    +0.000 OA
BRANCH  24  26
ATOM     25  C   UNL     1      11.861  16.777  17.674  0.00  0.00    +0.000 C 
ATOM     26  C   UNL     1      12.333  15.438  17.136  0.00  0.00    +0.000 C 
ENDBRANCH  24  26
ENDBRANCH  18  24
BRANCH  23  27
ATOM     27  O   UNL     1       8.557  14.597  17.896  0.00  0.00    +0.000 OA
BRANCH  27  28
ATOM     28  C   UNL     1       8.602  15.632  18.880  0.00  0.00    +0.000 C 
ATOM     29  C   UNL     1       7.326  15.569  19.705  0.00  0.00    +0.000 C 
ENDBRANCH  27  28
ENDBRANCH  23  27
ENDBRANCH  17  21
ENDBRANCH  16  17
ENDBRANCH   1  16
TORSDOF 8
ENDMDL
MODEL 2
REMARK VINA RESULT:      -7.6      1.355      1.395
REMARK  Name = 
REMARK  12 active torsions:
REMARK  status: ('A' for Active; 'I' for Inactive)
REMARK    1  A    between atoms: C_1  and  C_2
REMARK    2  A    between atoms: C_2  and  O_3
REMARK    3  A    between atoms: O_3  and  C_4
REMARK    4  A    between atoms: C_7  and  C_8
REMARK    5  A    between atoms: C_8  and  C_9
REMARK    6  A    between atoms: C_9  and  N_10
REMARK    7  A    between atoms: C_11  and  C_13
REMARK    8  A    between atoms: N_19  and  C_20
REMARK    9  A    between atoms: N_19  and  C_21
REMARK   10  A    between atoms: C_25  and  O_26
REMARK   11  A    between atoms: O_26  and  C_27
REMARK   12  A    between atoms: C_27  and  C_28
REMARK                            x       y       z     vdW  Elec       q    Type
REMARK                         _______ _______ _______ _____ _____    ______ ____
ROOT
ATOM      1  N   UNL     1       8.537   7.915  18.740  0.00  0.00    +0.000 N 
ATOM      2  C   UNL     1       7.758   7.179  17.868  0.00  0.00    +0.000 C 
ATOM      3  O   UNL     1       7.202   7.709  16.912  0.00  0.00    +0.000 OA
ATOM      4  H   UNL     1       8.713   7.551  19.670  0.00  0.00    +0.000 HD
ENDROOT
BRANCH   2   5
ATOM      5  C   UNL     1       7.595   5.689  18.176  0.00  0.00    +0.000 C 
ATOM      6  C   UNL     1       7.116   4.870  16.963  0.00  0.00    +0.000 C 
ATOM      7  C   UNL     1       5.631   5.092  16.651  0.00  0.00    +0.000 C 
ATOM      8  N   UNL     1       4.794   4.908  17.849  0.00  0.00    +0.000 N 
ATOM      9  C   UNL     1       3.778   3.976  17.773  0.00  0.00    +0.000 C 
ATOM     10  O   UNL     1       3.617   3.370  16.705  0.00  0.00    +0.000 OA
ATOM     11  N   UNL     1       2.937   3.685  18.829  0.00  0.00    +0.000 N 
ATOM     12  C   UNL     1       2.939   4.172  20.199  0.00  0.00    +0.000 C 
ATOM     13  C   UNL     1       1.800   2.812  18.545  0.00  0.00    +0.000 C 
ATOM     14  C   UNL     1       5.176   5.832  18.910  0.00  0.00    +0.000 C 
ATOM     15  C   UNL     1       6.611   5.509  19.350  0.00  0.00    +0.000 C 
ENDBRANCH   2   5
BRANCH   1  16
ATOM     16  C   UNL     1       8.642   9.345  18.486  0.00  0.00    +0.000 C 
BRANCH  16  17
ATOM     17  C   UNL     1       9.172  10.174  19.652  0.00  0.00    +0.000 C 
BRANCH  17  21
ATOM     18  C   UNL     1      11.349  13.580  18.082  0.00  0.00    +0.000 A 
ATOM     19  C   UNL     1      11.106  12.450  17.289  0.00  0.00    +0.000 A 
ATOM     20  C   UNL     1      10.436  11.338  17.804  0.00  0.00    +0.000 A 
ATOM     21  C   UNL     1      10.013  11.320  19.133  0.00  0.00    +0.000 A 
ATOM     22  C   UNL     1      10.319  12.422  19.946  0.00  0.00    +0.000 A 
ATOM     23  C   UNL     1      11.016  13.535  19.445  0.00  0.00    +0.000 A 
BRANCH  18  24
ATOM     24  O   UNL     1      11.878  14.736  17.565  0.00  0.00    +0.000 OA
BRANCH  24  26
ATOM     25  C   UNL     1      11.426  17.084  17.390  0.00  0.00    +0.000 C 
ATOM     26  C   UNL     1      10.943  15.686  17.048  0.00  0.00    +0.000 C 
ENDBRANCH  24  26
ENDBRANCH  18  24
BRANCH  23  27
ATOM     27  O   UNL     1      11.247  14.500  20.395  0.00  0.00    +0.000 OA
BRANCH  27  28
ATOM     28  C   UNL     1      10.206  14.748  21.342  0.00  0.00    +0.000 C 
ATOM     29  C   UNL     1      10.642  15.884  22.253  0.00  0.00    +0.000 C 
ENDBRANCH  27  28
ENDBRANCH  23  27
ENDBRANCH  17  21
ENDBRANCH  16  17
ENDBRANCH   1  16
TORSDOF 8
ENDMDL
MODEL 3
REMARK VINA RESULT:      -7.3      1.800      2.517
REMARK  Name = 
REMARK  12 active torsions:
REMARK  status: ('A' for Active; 'I' for Inactive)
REMARK    1  A    between atoms: C_1  and  C_2
REMARK    2  A    between atoms: C_2  and  O_3
REMARK    3  A    between atoms: O_3  and  C_4
REMARK    4  A    between atoms: C_7  and  C_8
REMARK    5  A    between atoms: C_8  and  C_9
REMARK    6  A    between atoms: C_9  and  N_10
REMARK    7  A    between atoms: C_11  and  C_13
REMARK    8  A    between atoms: N_19  and  C_20
REMARK    9  A    between atoms: N_19  and  C_21
REMARK   10  A    between atoms: C_25  and  O_26
REMARK   11  A    between atoms: O_26  and  C_27
REMARK   12  A    between atoms: C_27  and  C_28
REMARK                            x       y       z     vdW  Elec       q    Type
REMARK                         _______ _______ _______ _____ _____    ______ ____
ROOT
ATOM      1  N   UNL     1       7.681   8.287  17.492  0.00  0.00    +0.000 N 
ATOM      2  C   UNL     1       7.569   6.954  17.837  0.00  0.00    +0.000 C 
ATOM      3  O   UNL     1       8.097   6.515  18.852  0.00  0.00    +0.000 OA
ATOM      4  H   UNL     1       7.528   8.560  16.527  0.00  0.00    +0.000 HD
ENDROOT
BRANCH   2   5
ATOM      5  C   UNL     1       6.790   6.054  16.875  0.00  0.00    +0.000 C 
ATOM      6  C   UNL     1       5.413   6.627  16.491  0.00  0.00    +0.000 C 
ATOM      7  C   UNL     1       4.388   6.507  17.624  0.00  0.00    +0.000 C 
ATOM      8  N   UNL     1       4.323   5.134  18.152  0.00  0.00    +0.000 N 
ATOM      9  C   UNL     1       3.092   4.510  18.141  0.00  0.00    +0.000 C 
ATOM     10  O   UNL     1       2.117   5.143  17.712  0.00  0.00    +0.000 OA
ATOM     11  N   UNL     1       2.894   3.215  18.580  0.00  0.00    +0.000 N 
ATOM     12  C   UNL     1       3.847   2.224  19.052  0.00  0.00    +0.000 C 
ATOM     13  C   UNL     1       1.510   2.756  18.675  0.00  0.00    +0.000 C 
ATOM     14  C   UNL     1       5.617   4.701  18.665  0.00  0.00    +0.000 C 
ATOM     15  C   UNL     1       6.617   4.655  17.501  0.00  0.00    +0.000 C 
ENDBRANCH   2   5
BRANCH   1  16
ATOM     16  C   UNL     1       8.475   9.132  18.372  0.00  0.00    +0.000 C 
BRANCH  16  17
ATOM     17  C   UNL     1       9.042  10.392  17.724  0.00  0.00    +0.000 C 
BRANCH  17  21
ATOM     18  C   UNL     1       9.943  13.431  20.683  0.00  0.00    +0.000 A 
ATOM     19  C   UNL     1       9.832  12.081  21.044  0.00  0.00    +0.000 A 
ATOM     20  C   UNL     1       9.506  11.105  20.099  0.00  0.00    +0.000 A 
ATOM     21  C   UNL     1       9.262  11.461  18.772  0.00  0.00    +0.000 A 
ATOM     22  C   UNL     1       9.303  12.819  18.425  0.00  0.00    +0.000 A 
ATOM     23  C   UNL     1       9.604  13.812  19.375  0.00  0.00    +0.000 A 
BRANCH  18  24
ATOM     24  O   UNL     1      10.396  14.387  21.556  0.00  0.00    +0.000 OA
BRANCH  24  26
ATOM     25  C   UNL     1       8.723  15.982  22.192  0.00  0.00    +0.000 C 
ATOM     26  C   UNL     1       9.507  14.753  22.614  0.00  0.00    +0.000 C 
ENDBRANCH  24  26
ENDBRANCH  18  24
BRANCH  23  27
ATOM     27  O   UNL     1       9.571  15.084  18.855  0.00  0.00    +0.000 OA
BRANCH  27  28
ATOM     28  C   UNL     1       8.473  15.413  18.003  0.00  0.00    +0.000 C 
ATOM     29  C   UNL     1       7.861  16.719  18.487  0.00  0.00    +0.000 C 
ENDBRANCH  27  28
ENDBRANCH  23  27
ENDBRANCH  17  21
ENDBRANCH  16  17
ENDBRANCH   1  16
TORSDOF 8
ENDMDL
MODEL 4
REMARK VINA RESULT:      -7.2      2.054      2.796
REMARK  Name = 
REMARK  12 active torsions:
REMARK  status: ('A' for Active; 'I' for Inactive)
REMARK    1  A    between atoms: C_1  and  C_2
REMARK    2  A    between atoms: C_2  and  O_3
REMARK    3  A    between atoms: O_3  and  C_4
REMARK    4  A    between atoms: C_7  and  C_8
REMARK    5  A    between atoms: C_8  and  C_9
REMARK    6  A    between atoms: C_9  and  N_10
REMARK    7  A    between atoms: C_11  and  C_13
REMARK    8  A    between atoms: N_19  and  C_20
REMARK    9  A    between atoms: N_19  and  C_21
REMARK   10  A    between atoms: C_25  and  O_26
REMARK   11  A    between atoms: O_26  and  C_27
REMARK   12  A    between atoms: C_27  and  C_28
REMARK                            x       y       z     vdW  Elec       q    Type
REMARK                         _______ _______ _______ _____ _____    ______ ____
ROOT
ATOM      1  N   UNL     1       6.807   8.034  17.233  0.00  0.00    +0.000 N 
ATOM      2  C   UNL     1       6.590   6.792  16.666  0.00  0.00    +0.000 C 
ATOM      3  O   UNL     1       7.525   6.046  16.398  0.00  0.00    +0.000 OA
ATOM      4  H   UNL     1       6.089   8.745  17.150  0.00  0.00    +0.000 HD
ENDROOT
BRANCH   2   5
ATOM      5  C   UNL     1       5.139   6.417  16.359  0.00  0.00    +0.000 C 
ATOM      6  C   UNL     1       4.138   6.976  17.387  0.00  0.00    +0.000 C 
ATOM      7  C   UNL     1       4.178   6.220  18.720  0.00  0.00    +0.000 C 
ATOM      8  N   UNL     1       4.060   4.766  18.520  0.00  0.00    +0.000 N 
ATOM      9  C   UNL     1       3.033   4.119  19.178  0.00  0.00    +0.000 C 
ATOM     10  O   UNL     1       2.290   4.789  19.908  0.00  0.00    +0.000 OA
ATOM     11  N   UNL     1       2.791   2.764  19.058  0.00  0.00    +0.000 N 
ATOM     12  C   UNL     1       3.436   1.761  18.227  0.00  0.00    +0.000 C 
ATOM     13  C   UNL     1       1.785   2.193  19.951  0.00  0.00    +0.000 C 
ATOM     14  C   UNL     1       5.136   4.256  17.679  0.00  0.00    +0.000 C 
ATOM     15  C   UNL     1       5.007   4.882  16.283  0.00  0.00    +0.000 C 
ENDBRANCH   2   5
BRANCH   1  16
ATOM     16  C   UNL     1       8.191   8.419  17.468  0.00  0.00    +0.000 C 
BRANCH  16  17
ATOM     17  C   UNL     1       8.547   8.705  18.923  0.00  0.00    +0.000 C 
BRANCH  17  21
ATOM     18  C   UNL     1      10.022  12.769  19.254  0.00  0.00    +0.000 A 
ATOM     19  C   UNL     1       9.956  12.123  18.012  0.00  0.00    +0.000 A 
ATOM     20  C   UNL     1       9.516  10.802  17.908  0.00  0.00    +0.000 A 
ATOM     21  C   UNL     1       9.150  10.087  19.049  0.00  0.00    +0.000 A 
ATOM     22  C   UNL     1       9.283  10.710  20.299  0.00  0.00    +0.000 A 
ATOM     23  C   UNL     1       9.752  12.030  20.417  0.00  0.00    +0.000 A 
BRANCH  18  24
ATOM     24  O   UNL     1      10.316  14.104  19.369  0.00  0.00    +0.000 OA
BRANCH  24  26
ATOM     25  C   UNL     1       9.227  15.934  20.471  0.00  0.00    +0.000 C 
ATOM     26  C   UNL     1       9.214  15.009  19.268  0.00  0.00    +0.000 C 
ENDBRANCH  24  26
ENDBRANCH  18  24
BRANCH  23  27
ATOM     27  O   UNL     1       9.839  12.458  21.720  0.00  0.00    +0.000 OA
BRANCH  27  28
ATOM     28  C   UNL     1       8.634  12.475  22.485  0.00  0.00    +0.000 C 
ATOM     29  C   UNL     1       8.658  13.690  23.398  0.00  0.00    +0.000 C 
ENDBRANCH  27  28
ENDBRANCH  23  27
ENDBRANCH  17  21
ENDBRANCH  16  17
ENDBRANCH   1  16
TORSDOF 8
ENDMDL
MODEL 5
REMARK VINA RESULT:      -7.2      6.333      8.729
REMARK  Name = 
REMARK  12 active torsions:
REMARK  status: ('A' for Active; 'I' for Inactive)
REMARK    1  A    between atoms: C_1  and  C_2
REMARK    2  A    between atoms: C_2  and  O_3
REMARK    3  A    between atoms: O_3  and  C_4
REMARK    4  A    between atoms: C_7  and  C_8
REMARK    5  A    between atoms: C_8  and  C_9
REMARK    6  A    between atoms: C_9  and  N_10
REMARK    7  A    between atoms: C_11  and  C_13
REMARK    8  A    between atoms: N_19  and  C_20
REMARK    9  A    between atoms: N_19  and  C_21
REMARK   10  A    between atoms: C_25  and  O_26
REMARK   11  A    between atoms: O_26  and  C_27
REMARK   12  A    between atoms: C_27  and  C_28
REMARK                            x       y       z     vdW  Elec       q    Type
REMARK                         _______ _______ _______ _____ _____    ______ ____
ROOT
ATOM      1  N   UNL     1       3.319   5.978  19.969  0.00  0.00    +0.000 N 
ATOM      2  C   UNL     1       3.178   4.766  19.320  0.00  0.00    +0.000 C 
ATOM      3  O   UNL     1       2.069   4.303  19.076  0.00  0.00    +0.000 OA
ATOM      4  H   UNL     1       4.192   6.186  20.440  0.00  0.00    +0.000 HD
ENDROOT
BRANCH   2   5
ATOM      5  C   UNL     1       4.464   4.020  18.962  0.00  0.00    +0.000 C 
ATOM      6  C   UNL     1       5.720   4.908  19.042  0.00  0.00    +0.000 C 
ATOM      7  C   UNL     1       5.822   5.891  17.870  0.00  0.00    +0.000 C 
ATOM      8  N   UNL     1       5.670   5.207  16.575  0.00  0.00    +0.000 N 
ATOM      9  C   UNL     1       6.691   5.357  15.658  0.00  0.00    +0.000 C 
ATOM     10  O   UNL     1       7.657   6.068  15.966  0.00  0.00    +0.000 OA
ATOM     11  N   UNL     1       6.690   4.749  14.417  0.00  0.00    +0.000 N 
ATOM     12  C   UNL     1       5.747   3.814  13.826  0.00  0.00    +0.000 C 
ATOM     13  C   UNL     1       7.748   5.144  13.489  0.00  0.00    +0.000 C 
ATOM     14  C   UNL     1       4.385   4.525  16.483  0.00  0.00    +0.000 C 
ATOM     15  C   UNL     1       4.338   3.420  17.547  0.00  0.00    +0.000 C 
ENDBRANCH   2   5
BRANCH   1  16
ATOM     16  C   UNL     1       2.095   6.659  20.368  0.00  0.00    +0.000 C 
BRANCH  16  17
ATOM     17  C   UNL     1       1.790   7.945  19.605  0.00  0.00    +0.000 C 
BRANCH  17  21
ATOM     18  C   UNL     1      -0.284  10.675  22.260  0.00  0.00    +0.000 A 
ATOM     19  C   UNL     1      -0.317   9.291  22.477  0.00  0.00    +0.000 A 
ATOM     20  C   UNL     1       0.320   8.407  21.603  0.00  0.00    +0.000 A 
ATOM     21  C   UNL     1       0.989   8.888  20.476  0.00  0.00    +0.000 A 
ATOM     22  C   UNL     1       0.961  10.267  20.220  0.00  0.00    +0.000 A 
ATOM     23  C   UNL     1       0.300  11.162  21.079  0.00  0.00    +0.000 A 
BRANCH  18  24
ATOM     24  O   UNL     1      -0.780  11.571  23.173  0.00  0.00    +0.000 OA
BRANCH  24  26
ATOM     25  C   UNL     1      -2.381  13.335  23.450  0.00  0.00    +0.000 C 
ATOM     26  C   UNL     1      -2.172  11.881  23.067  0.00  0.00    +0.000 C 
ENDBRANCH  24  26
ENDBRANCH  18  24
BRANCH  23  27
ATOM     27  O   UNL     1       0.359  12.466  20.650  0.00  0.00    +0.000 OA
BRANCH  27  28
ATOM     28  C   UNL     1      -0.643  12.897  19.728  0.00  0.00    +0.000 C 
ATOM     29  C   UNL     1      -1.051  14.317  20.087  0.00  0.00    +0.000 C 
ENDBRANCH  27  28
ENDBRANCH  23  27
ENDBRANCH  17  21
ENDBRANCH  16  17
ENDBRANCH   1  16
TORSDOF 8
ENDMDL
MODEL 6
REMARK VINA RESULT:      -7.1      6.196      9.608
REMARK  Name = 
REMARK  12 active torsions:
REMARK  status: ('A' for Active; 'I' for Inactive)
REMARK    1  A    between atoms: C_1  and  C_2
REMARK    2  A    between atoms: C_2  and  O_3
REMARK    3  A    between atoms: O_3  and  C_4
REMARK    4  A    between atoms: C_7  and  C_8
REMARK    5  A    between atoms: C_8  and  C_9
REMARK    6  A    between atoms: C_9  and  N_10
REMARK    7  A    between atoms: C_11  and  C_13
REMARK    8  A    between atoms: N_19  and  C_20
REMARK    9  A    between atoms: N_19  and  C_21
REMARK   10  A    between atoms: C_25  and  O_26
REMARK   11  A    between atoms: O_26  and  C_27
REMARK   12  A    between atoms: C_27  and  C_28
REMARK                            x       y       z     vdW  Elec       q    Type
REMARK                         _______ _______ _______ _____ _____    ______ ____
ROOT
ATOM      1  N   UNL     1       2.062   8.232  18.571  0.00  0.00    +0.000 N 
ATOM      2  C   UNL     1       1.428   9.185  19.345  0.00  0.00    +0.000 C 
ATOM      3  O   UNL     1       1.226   9.000  20.540  0.00  0.00    +0.000 OA
ATOM      4  H   UNL     1       1.936   8.251  17.565  0.00  0.00    +0.000 HD
ENDROOT
BRANCH   2   5
ATOM      5  C   UNL     1       0.962  10.456  18.632  0.00  0.00    +0.000 C 
ATOM      6  C   UNL     1       0.800  11.658  19.582  0.00  0.00    +0.000 C 
ATOM      7  C   UNL     1      -0.450  11.549  20.462  0.00  0.00    +0.000 C 
ATOM      8  N   UNL     1      -1.654  11.271  19.660  0.00  0.00    +0.000 N 
ATOM      9  C   UNL     1      -2.708  12.153  19.776  0.00  0.00    +0.000 C 
ATOM     10  O   UNL     1      -2.592  13.107  20.557  0.00  0.00    +0.000 OA
ATOM     11  N   UNL     1      -3.884  12.027  19.062  0.00  0.00    +0.000 N 
ATOM     12  C   UNL     1      -4.266  11.072  18.035  0.00  0.00    +0.000 C 
ATOM     13  C   UNL     1      -4.975  12.930  19.423  0.00  0.00    +0.000 C 
ATOM     14  C   UNL     1      -1.516  10.026  18.912  0.00  0.00    +0.000 C 
ATOM     15  C   UNL     1      -0.369  10.183  17.904  0.00  0.00    +0.000 C 
ENDBRANCH   2   5
BRANCH   1  16
ATOM     16  C   UNL     1       2.449   6.995  19.233  0.00  0.00    +0.000 C 
BRANCH  16  17
ATOM     17  C   UNL     1       2.253   5.728  18.406  0.00  0.00    +0.000 C 
BRANCH  17  21
ATOM     18  C   UNL     1       5.849   4.684  16.221  0.00  0.00    +0.000 A 
ATOM     19  C   UNL     1       4.886   3.714  16.532  0.00  0.00    +0.000 A 
ATOM     20  C   UNL     1       3.745   4.041  17.267  0.00  0.00    +0.000 A 
ATOM     21  C   UNL     1       3.550   5.344  17.728  0.00  0.00    +0.000 A 
ATOM     22  C   UNL     1       4.548   6.298  17.477  0.00  0.00    +0.000 A 
ATOM     23  C   UNL     1       5.713   5.972  16.761  0.00  0.00    +0.000 A 
BRANCH  18  24
ATOM     24  O   UNL     1       6.906   4.423  15.385  0.00  0.00    +0.000 OA
BRANCH  24  26
ATOM     25  C   UNL     1       6.269   3.631  13.214  0.00  0.00    +0.000 C 
ATOM     26  C   UNL     1       6.751   4.822  14.021  0.00  0.00    +0.000 C 
ENDBRANCH  24  26
ENDBRANCH  18  24
BRANCH  23  27
ATOM     27  O   UNL     1       6.584   7.028  16.639  0.00  0.00    +0.000 OA
BRANCH  27  28
ATOM     28  C   UNL     1       7.512   7.236  17.705  0.00  0.00    +0.000 C 
ATOM     29  C   UNL     1       7.926   8.699  17.707  0.00  0.00    +0.000 C 
ENDBRANCH  27  28
ENDBRANCH  23  27
ENDBRANCH  17  21
ENDBRANCH  16  17
ENDBRANCH   1  16
TORSDOF 8
ENDMDL
MODEL 7
REMARK VINA RESULT:      -7.1      1.403      1.870
REMARK  Name = 
REMARK  12 active torsions:
REMARK  status: ('A' for Active; 'I' for Inactive)
REMARK    1  A    between atoms: C_1  and  C_2
REMARK    2  A    between atoms: C_2  and  O_3
REMARK    3  A    between atoms: O_3  and  C_4
REMARK    4  A    between atoms: C_7  and  C_8
REMARK    5  A    between atoms: C_8  and  C_9
REMARK    6  A    between atoms: C_9  and  N_10
REMARK    7  A    between atoms: C_11  and  C_13
REMARK    8  A    between atoms: N_19  and  C_20
REMARK    9  A    between atoms: N_19  and  C_21
REMARK   10  A    between atoms: C_25  and  O_26
REMARK   11  A    between atoms: O_26  and  C_27
REMARK   12  A    between atoms: C_27  and  C_28
REMARK                            x       y       z     vdW  Elec       q    Type
REMARK                         _______ _______ _______ _____ _____    ______ ____
ROOT
ATOM      1  N   UNL     1       8.322   7.760  18.670  0.00  0.00    +0.000 N 
ATOM      2  C   UNL     1       7.628   7.012  17.738  0.00  0.00    +0.000 C 
ATOM      3  O   UNL     1       7.179   7.525  16.720  0.00  0.00    +0.000 OA
ATOM      4  H   UNL     1       8.399   7.415  19.620  0.00  0.00    +0.000 HD
ENDROOT
BRANCH   2   5
ATOM      5  C   UNL     1       7.416   5.531  18.060  0.00  0.00    +0.000 C 
ATOM      6  C   UNL     1       6.849   4.730  16.873  0.00  0.00    +0.000 C 
ATOM      7  C   UNL     1       5.362   5.013  16.627  0.00  0.00    +0.000 C 
ATOM      8  N   UNL     1       4.573   4.867  17.862  0.00  0.00    +0.000 N 
ATOM      9  C   UNL     1       3.516   3.979  17.836  0.00  0.00    +0.000 C 
ATOM     10  O   UNL     1       3.282   3.377  16.779  0.00  0.00    +0.000 OA
ATOM     11  N   UNL     1       2.712   3.727  18.930  0.00  0.00    +0.000 N 
ATOM     12  C   UNL     1       2.797   4.216  20.296  0.00  0.00    +0.000 C 
ATOM     13  C   UNL     1       1.528   2.901  18.701  0.00  0.00    +0.000 C 
ATOM     14  C   UNL     1       5.041   5.777  18.901  0.00  0.00    +0.000 C 
ATOM     15  C   UNL     1       6.479   5.395  19.277  0.00  0.00    +0.000 C 
ENDBRANCH   2   5
BRANCH   1  16
ATOM     16  C   UNL     1       8.469   9.182  18.397  0.00  0.00    +0.000 C 
BRANCH  16  17
ATOM     17  C   UNL     1       9.535   9.895  19.224  0.00  0.00    +0.000 C 
BRANCH  17  21
ATOM     18  C   UNL     1       8.882  14.167  18.878  0.00  0.00    +0.000 A 
ATOM     19  C   UNL     1       8.600  13.305  17.810  0.00  0.00    +0.000 A 
ATOM     20  C   UNL     1       8.844  11.933  17.907  0.00  0.00    +0.000 A 
ATOM     21  C   UNL     1       9.397  11.393  19.069  0.00  0.00    +0.000 A 
ATOM     22  C   UNL     1       9.744  12.266  20.111  0.00  0.00    +0.000 A 
ATOM     23  C   UNL     1       9.528  13.652  20.013  0.00  0.00    +0.000 A 
BRANCH  18  24
ATOM     24  O   UNL     1       8.525  15.492  18.862  0.00  0.00    +0.000 OA
BRANCH  24  26
ATOM     25  C   UNL     1      10.451  16.713  18.124  0.00  0.00    +0.000 C 
ATOM     26  C   UNL     1       9.039  16.276  17.783  0.00  0.00    +0.000 C 
ENDBRANCH  24  26
ENDBRANCH  18  24
BRANCH  23  27
ATOM     27  O   UNL     1       9.956  14.345  21.120  0.00  0.00    +0.000 OA
BRANCH  27  28
ATOM     28  C   UNL     1       9.061  14.421  22.231  0.00  0.00    +0.000 C 
ATOM     29  C   UNL     1       9.478  15.592  23.107  0.00  0.00    +0.000 C 
ENDBRANCH  27  28
ENDBRANCH  23  27
ENDBRANCH  17  21
ENDBRANCH  16  17
ENDBRANCH   1  16
TORSDOF 8
ENDMDL
MODEL 8
REMARK VINA RESULT:      -7.1      6.376      8.677
REMARK  Name = 
REMARK  12 active torsions:
REMARK  status: ('A' for Active; 'I' for Inactive)
REMARK    1  A    between atoms: C_1  and  C_2
REMARK    2  A    between atoms: C_2  and  O_3
REMARK    3  A    between atoms: O_3  and  C_4
REMARK    4  A    between atoms: C_7  and  C_8
REMARK    5  A    between atoms: C_8  and  C_9
REMARK    6  A    between atoms: C_9  and  N_10
REMARK    7  A    between atoms: C_11  and  C_13
REMARK    8  A    between atoms: N_19  and  C_20
REMARK    9  A    between atoms: N_19  and  C_21
REMARK   10  A    between atoms: C_25  and  O_26
REMARK   11  A    between atoms: O_26  and  C_27
REMARK   12  A    between atoms: C_27  and  C_28
REMARK                            x       y       z     vdW  Elec       q    Type
REMARK                         _______ _______ _______ _____ _____    ______ ____
ROOT
ATOM      1  N   UNL     1       3.012   5.972  20.098  0.00  0.00    +0.000 N 
ATOM      2  C   UNL     1       2.998   4.752  19.450  0.00  0.00    +0.000 C 
ATOM      3  O   UNL     1       1.943   4.207  19.146  0.00  0.00    +0.000 OA
ATOM      4  H   UNL     1       3.839   6.245  20.617  0.00  0.00    +0.000 HD
ENDROOT
BRANCH   2   5
ATOM      5  C   UNL     1       4.355   4.104  19.168  0.00  0.00    +0.000 C 
ATOM      6  C   UNL     1       5.527   5.102  19.229  0.00  0.00    +0.000 C 
ATOM      7  C   UNL     1       5.579   6.025  18.006  0.00  0.00    +0.000 C 
ATOM      8  N   UNL     1       5.526   5.260  16.748  0.00  0.00    +0.000 N 
ATOM      9  C   UNL     1       6.558   5.448  15.851  0.00  0.00    +0.000 C 
ATOM     10  O   UNL     1       7.448   6.258  16.142  0.00  0.00    +0.000 OA
ATOM     11  N   UNL     1       6.647   4.776  14.647  0.00  0.00    +0.000 N 
ATOM     12  C   UNL     1       5.807   3.730  14.087  0.00  0.00    +0.000 C 
ATOM     13  C   UNL     1       7.695   5.211  13.726  0.00  0.00    +0.000 C 
ATOM     14  C   UNL     1       4.308   4.463  16.663  0.00  0.00    +0.000 C 
ATOM     15  C   UNL     1       4.324   3.418  17.787  0.00  0.00    +0.000 C 
ENDBRANCH   2   5
BRANCH   1  16
ATOM     16  C   UNL     1       1.721   6.561  20.425  0.00  0.00    +0.000 C 
BRANCH  16  17
ATOM     17  C   UNL     1       1.784   7.885  21.179  0.00  0.00    +0.000 C 
BRANCH  17  21
ATOM     18  C   UNL     1      -0.404  10.814  18.846  0.00  0.00    +0.000 A 
ATOM     19  C   UNL     1       0.547   9.976  18.246  0.00  0.00    +0.000 A 
ATOM     20  C   UNL     1       1.278   9.058  19.002  0.00  0.00    +0.000 A 
ATOM     21  C   UNL     1       1.091   8.970  20.383  0.00  0.00    +0.000 A 
ATOM     22  C   UNL     1       0.192   9.857  20.992  0.00  0.00    +0.000 A 
ATOM     23  C   UNL     1      -0.530  10.804  20.244  0.00  0.00    +0.000 A 
BRANCH  18  24
ATOM     24  O   UNL     1      -1.232  11.624  18.111  0.00  0.00    +0.000 OA
BRANCH  24  26
ATOM     25  C   UNL     1      -2.655  10.023  17.034  0.00  0.00    +0.000 C 
ATOM     26  C   UNL     1      -2.592  11.200  17.990  0.00  0.00    +0.000 C 
ENDBRANCH  24  26
ENDBRANCH  18  24
BRANCH  23  27
ATOM     27  O   UNL     1      -1.339  11.600  21.018  0.00  0.00    +0.000 OA
BRANCH  27  28
ATOM     28  C   UNL     1      -0.701  12.582  21.835  0.00  0.00    +0.000 C 
ATOM     29  C   UNL     1      -1.530  12.774  23.096  0.00  0.00    +0.000 C 
ENDBRANCH  27  28
ENDBRANCH  23  27
ENDBRANCH  17  21
ENDBRANCH  16  17
ENDBRANCH   1  16
TORSDOF 8
ENDMDL
MODEL 9
REMARK VINA RESULT:      -7.0      1.797      2.314
REMARK  Name = 
REMARK  12 active torsions:
REMARK  status: ('A' for Active; 'I' for Inactive)
REMARK    1  A    between atoms: C_1  and  C_2
REMARK    2  A    between atoms: C_2  and  O_3
REMARK    3  A    between atoms: O_3  and  C_4
REMARK    4  A    between atoms: C_7  and  C_8
REMARK    5  A    between atoms: C_8  and  C_9
REMARK    6  A    between atoms: C_9  and  N_10
REMARK    7  A    between atoms: C_11  and  C_13
REMARK    8  A    between atoms: N_19  and  C_20
REMARK    9  A    between atoms: N_19  and  C_21
REMARK   10  A    between atoms: C_25  and  O_26
REMARK   11  A    between atoms: O_26  and  C_27
REMARK   12  A    between atoms: C_27  and  C_28
REMARK                            x       y       z     vdW  Elec       q    Type
REMARK                         _______ _______ _______ _____ _____    ______ ____
ROOT
ATOM      1  N   UNL     1       8.341   7.995  18.593  0.00  0.00    +0.000 N 
ATOM      2  C   UNL     1       7.676   7.061  17.822  0.00  0.00    +0.000 C 
ATOM      3  O   UNL     1       7.109   7.383  16.783  0.00  0.00    +0.000 OA
ATOM      4  H   UNL     1       8.514   7.792  19.571  0.00  0.00    +0.000 HD
ENDROOT
BRANCH   2   5
ATOM      5  C   UNL     1       7.649   5.624  18.346  0.00  0.00    +0.000 C 
ATOM      6  C   UNL     1       7.347   4.585  17.250  0.00  0.00    +0.000 C 
ATOM      7  C   UNL     1       5.873   4.585  16.828  0.00  0.00    +0.000 C 
ATOM      8  N   UNL     1       4.977   4.484  17.992  0.00  0.00    +0.000 N 
ATOM      9  C   UNL     1       4.074   3.441  18.006  0.00  0.00    +0.000 C 
ATOM     10  O   UNL     1       4.054   2.669  17.037  0.00  0.00    +0.000 OA
ATOM     11  N   UNL     1       3.195   3.214  19.046  0.00  0.00    +0.000 N 
ATOM     12  C   UNL     1       3.049   3.893  20.323  0.00  0.00    +0.000 C 
ATOM     13  C   UNL     1       2.180   2.182  18.839  0.00  0.00    +0.000 C 
ATOM     14  C   UNL     1       5.183   5.592  18.917  0.00  0.00    +0.000 C 
ATOM     15  C   UNL     1       6.609   5.505  19.479  0.00  0.00    +0.000 C 
ENDBRANCH   2   5
BRANCH   1  16
ATOM     16  C   UNL     1       8.312   9.374  18.128  0.00  0.00    +0.000 C 
BRANCH  16  17
ATOM     17  C   UNL     1       9.601  10.160  18.351  0.00  0.00    +0.000 C 
BRANCH  17  21
ATOM     18  C   UNL     1       9.133  13.565  20.995  0.00  0.00    +0.000 A 
ATOM     19  C   UNL     1       9.505  12.308  21.494  0.00  0.00    +0.000 A 
ATOM     20  C   UNL     1       9.621  11.203  20.649  0.00  0.00    +0.000 A 
ATOM     21  C   UNL     1       9.346  11.322  19.286  0.00  0.00    +0.000 A 
ATOM     22  C   UNL     1       8.905  12.562  18.800  0.00  0.00    +0.000 A 
ATOM     23  C   UNL     1       8.759  13.675  19.647  0.00  0.00    +0.000 A 
BRANCH  18  24
ATOM     24  O   UNL     1       9.147  14.694  21.774  0.00  0.00    +0.000 OA
BRANCH  24  26
ATOM     25  C   UNL     1      10.466  16.140  23.159  0.00  0.00    +0.000 C 
ATOM     26  C   UNL     1      10.381  15.413  21.830  0.00  0.00    +0.000 C 
ENDBRANCH  24  26
ENDBRANCH  18  24
BRANCH  23  27
ATOM     27  O   UNL     1       8.292  14.791  18.995  0.00  0.00    +0.000 OA
BRANCH  27  28
ATOM     28  C   UNL     1       6.905  15.101  19.141  0.00  0.00    +0.000 C 
ATOM     29  C   UNL     1       6.207  14.825  17.819  0.00  0.00    +0.000 C 
ENDBRANCH  27  28
ENDBRANCH  23  27
ENDBRANCH  17  21
ENDBRANCH  16  17
ENDBRANCH   1  16
TORSDOF 8
ENDMDL
