MODEL 1
REMARK VINA RESULT:      -7.4      0.000      0.000
REMARK  Name = 
REMARK  3 active torsions:
REMARK  status: ('A' for Active; 'I' for Inactive)
REMARK    1  A    between atoms: C_6  and  C_7
REMARK    2  A    between atoms: C_7  and  N_8
REMARK    3  A    between atoms: C_12  and  C_13
REMARK                            x       y       z     vdW  Elec       q    Type
REMARK                         _______ _______ _______ _____ _____    ______ ____
ROOT
ATOM      1  N   UNL     1       3.838   4.084  19.002  0.00  0.00    +0.000 NA
ATOM      2  C   UNL     1       3.255   2.751  19.107  0.00  0.00    +0.000 C 
ATOM      3  C   UNL     1       2.304   2.621  17.935  0.00  0.00    +0.000 C 
ATOM      4  C   UNL     1       1.816   4.039  17.713  0.00  0.00    +0.000 C 
ATOM      5  C   UNL     1       3.005   4.918  18.112  0.00  0.00    +0.000 C 
ENDROOT
BRANCH   5   6
ATOM      6  C   UNL     1       2.546   6.131  18.874  0.00  0.00    +0.000 A 
ATOM      7  N   UNL     1       2.429   7.376  18.456  0.00  0.00    +0.000 NA
ATOM      8  C   UNL     1       1.961   8.083  19.539  0.00  0.00    +0.000 A 
ATOM      9  C   UNL     1       1.791   7.264  20.630  0.00  0.00    +0.000 A 
ATOM     10  N   UNL     1       2.160   6.026  20.190  0.00  0.00    +0.000 N 
ATOM     11  H   UNL     1       2.191   5.161  20.715  0.00  0.00    +0.000 HD
ENDBRANCH   5   6
BRANCH   1  12
ATOM     12  C   UNL     1       5.282   4.180  18.739  0.00  0.00    +0.000 C 
BRANCH  12  18
ATOM     13  C   UNL     1       6.603   4.038  12.832  0.00  0.00    +0.000 A 
ATOM     14  C   UNL     1       7.575   4.971  13.168  0.00  0.00    +0.000 A 
ATOM     15  N   UNL     1       7.761   5.506  14.394  0.00  0.00    +0.000 NA
ATOM     16  C   UNL     1       6.903   5.024  15.318  0.00  0.00    +0.000 A 
ATOM     17  S   UNL     1       6.949   5.509  16.945  0.00  0.00    +0.000 S 
ATOM     18  C   UNL     1       5.689   4.381  17.302  0.00  0.00    +0.000 A 
ATOM     19  N   UNL     1       5.184   3.739  16.265  0.00  0.00    +0.000 NA
ATOM     20  C   UNL     1       5.894   4.086  15.125  0.00  0.00    +0.000 A 
ATOM     21  C   UNL     1       5.729   3.587  13.823  0.00  0.00    +0.000 A 
ENDBRANCH  12  18
ENDBRANCH   1  12
TORSDOF 3
ENDMDL
MODEL 2
REMARK VINA RESULT:      -7.3      2.530      3.124
REMARK  Name = 
REMARK  3 active torsions:
REMARK  status: ('A' for Active; 'I' for Inactive)
REMARK    1  A    between atoms: C_6  and  C_7
REMARK    2  A    between atoms: C_7  and  N_8
REMARK    3  A    between atoms: C_12  and  C_13
REMARK                            x       y       z     vdW  Elec       q    Type
REMARK                         _______ _______ _______ _____ _____    ______ ____
ROOT
ATOM      1  N   UNL     1       3.168   3.653  20.303  0.00  0.00    +0.000 NA
ATOM      2  C   UNL     1       2.741   2.789  21.398  0.00  0.00    +0.000 C 
ATOM      3  C   UNL     1       1.296   2.435  21.107  0.00  0.00    +0.000 C 
ATOM      4  C   UNL     1       0.770   3.655  20.378  0.00  0.00    +0.000 C 
ATOM      5  C   UNL     1       1.981   4.188  19.605  0.00  0.00    +0.000 C 
ENDROOT
BRANCH   5   6
ATOM      6  C   UNL     1       2.029   5.691  19.651  0.00  0.00    +0.000 A 
ATOM      7  N   UNL     1       2.337   6.540  18.690  0.00  0.00    +0.000 NA
ATOM      8  C   UNL     1       2.215   7.789  19.252  0.00  0.00    +0.000 A 
ATOM      9  C   UNL     1       1.831   7.705  20.570  0.00  0.00    +0.000 A 
ATOM     10  N   UNL     1       1.710   6.367  20.806  0.00  0.00    +0.000 N 
ATOM     11  H   UNL     1       1.462   5.906  21.673  0.00  0.00    +0.000 HD
ENDBRANCH   5   6
BRANCH   1  12
ATOM     12  C   UNL     1       4.218   3.150  19.404  0.00  0.00    +0.000 C 
BRANCH  12  18
ATOM     13  C   UNL     1       8.260   7.507  18.249  0.00  0.00    +0.000 A 
ATOM     14  C   UNL     1       7.597   7.608  17.032  0.00  0.00    +0.000 A 
ATOM     15  N   UNL     1       6.585   6.815  16.621  0.00  0.00    +0.000 NA
ATOM     16  C   UNL     1       6.233   5.887  17.535  0.00  0.00    +0.000 A 
ATOM     17  S   UNL     1       4.965   4.788  17.277  0.00  0.00    +0.000 S 
ATOM     18  C   UNL     1       5.193   4.171  18.876  0.00  0.00    +0.000 A 
ATOM     19  N   UNL     1       6.212   4.677  19.545  0.00  0.00    +0.000 NA
ATOM     20  C   UNL     1       6.799   5.680  18.789  0.00  0.00    +0.000 A 
ATOM     21  C   UNL     1       7.867   6.517  19.151  0.00  0.00    +0.000 A 
ENDBRANCH  12  18
ENDBRANCH   1  12
TORSDOF 3
ENDMDL
MODEL 3
REMARK VINA RESULT:      -7.3      1.572      1.836
REMARK  Name = 
REMARK  3 active torsions:
REMARK  status: ('A' for Active; 'I' for Inactive)
REMARK    1  A    between atoms: C_6  and  C_7
REMARK    2  A    between atoms: C_7  and  N_8
REMARK    3  A    between atoms: C_12  and  C_13
REMARK                            x       y       z     vdW  Elec       q    Type
REMARK                         _______ _______ _______ _____ _____    ______ ____
ROOT
ATOM      1  N   UNL     1       3.173   3.633  20.357  0.00  0.00    +0.000 NA
ATOM      2  C   UNL     1       2.615   3.061  21.577  0.00  0.00    +0.000 C 
ATOM      3  C   UNL     1       1.169   2.737  21.260  0.00  0.00    +0.000 C 
ATOM      4  C   UNL     1       0.782   3.793  20.243  0.00  0.00    +0.000 C 
ATOM      5  C   UNL     1       2.075   4.068  19.469  0.00  0.00    +0.000 C 
ENDROOT
BRANCH   5   6
ATOM      6  C   UNL     1       2.232   5.538  19.189  0.00  0.00    +0.000 A 
ATOM      7  N   UNL     1       2.497   6.140  18.047  0.00  0.00    +0.000 NA
ATOM      8  C   UNL     1       2.522   7.483  18.338  0.00  0.00    +0.000 A 
ATOM      9  C   UNL     1       2.271   7.707  19.671  0.00  0.00    +0.000 A 
ATOM     10  N   UNL     1       2.083   6.462  20.197  0.00  0.00    +0.000 N 
ATOM     11  H   UNL     1       1.894   6.214  21.161  0.00  0.00    +0.000 HD
ENDBRANCH   5   6
BRANCH   1  12
ATOM     12  C   UNL     1       4.237   2.881  19.674  0.00  0.00    +0.000 C 
BRANCH  12  18
ATOM     13  C   UNL     1       6.352   4.622  14.275  0.00  0.00    +0.000 A 
ATOM     14  C   UNL     1       7.243   5.380  15.023  0.00  0.00    +0.000 A 
ATOM     15  N   UNL     1       7.245   5.489  16.368  0.00  0.00    +0.000 NA
ATOM     16  C   UNL     1       6.284   4.751  16.961  0.00  0.00    +0.000 A 
ATOM     17  S   UNL     1       6.095   4.687  18.648  0.00  0.00    +0.000 S 
ATOM     18  C   UNL     1       4.829   3.526  18.447  0.00  0.00    +0.000 A 
ATOM     19  N   UNL     1       4.489   3.260  17.200  0.00  0.00    +0.000 NA
ATOM     20  C   UNL     1       5.336   3.943  16.341  0.00  0.00    +0.000 A 
ATOM     21  C   UNL     1       5.365   3.891  14.938  0.00  0.00    +0.000 A 
ENDBRANCH  12  18
ENDBRANCH   1  12
TORSDOF 3
ENDMDL
MODEL 4
REMARK VINA RESULT:      -7.2      2.151      6.280
REMARK  Name = 
REMARK  3 active torsions:
REMARK  status: ('A' for Active; 'I' for Inactive)
REMARK    1  A    between atoms: C_6  and  C_7
REMARK    2  A    between atoms: C_7  and  N_8
REMARK    3  A    between atoms: C_12  and  C_13
REMARK                            x       y       z     vdW  Elec       q    Type
REMARK                         _______ _______ _______ _____ _____    ______ ____
ROOT
ATOM      1  N   UNL     1       2.786   4.256  18.782  0.00  0.00    +0.000 NA
ATOM      2  C   UNL     1       1.566   3.583  18.350  0.00  0.00    +0.000 C 
ATOM      3  C   UNL     1       1.837   2.099  18.494  0.00  0.00    +0.000 C 
ATOM      4  C   UNL     1       3.327   1.983  18.239  0.00  0.00    +0.000 C 
ATOM      5  C   UNL     1       3.908   3.296  18.773  0.00  0.00    +0.000 C 
ENDROOT
BRANCH   5   6
ATOM      6  C   UNL     1       4.985   3.818  17.860  0.00  0.00    +0.000 A 
ATOM      7  N   UNL     1       4.898   4.166  16.592  0.00  0.00    +0.000 NA
ATOM      8  C   UNL     1       6.161   4.581  16.240  0.00  0.00    +0.000 A 
ATOM      9  C   UNL     1       7.029   4.487  17.302  0.00  0.00    +0.000 A 
ATOM     10  N   UNL     1       6.266   4.006  18.326  0.00  0.00    +0.000 N 
ATOM     11  H   UNL     1       6.556   3.783  19.270  0.00  0.00    +0.000 HD
ENDBRANCH   5   6
BRANCH   1  12
ATOM     12  C   UNL     1       2.716   5.087  19.994  0.00  0.00    +0.000 C 
BRANCH  12  18
ATOM     13  C   UNL     1       0.470  10.708  19.881  0.00  0.00    +0.000 A 
ATOM     14  C   UNL     1       0.930  10.717  18.571  0.00  0.00    +0.000 A 
ATOM     15  N   UNL     1       1.628   9.726  17.976  0.00  0.00    +0.000 NA
ATOM     16  C   UNL     1       1.833   8.664  18.783  0.00  0.00    +0.000 A 
ATOM     17  S   UNL     1       2.654   7.271  18.265  0.00  0.00    +0.000 S 
ATOM     18  C   UNL     1       2.334   6.531  19.795  0.00  0.00    +0.000 A 
ATOM     19  N   UNL     1       1.734   7.297  20.687  0.00  0.00    +0.000 NA
ATOM     20  C   UNL     1       1.422   8.515  20.104  0.00  0.00    +0.000 A 
ATOM     21  C   UNL     1       0.725   9.591  20.679  0.00  0.00    +0.000 A 
ENDBRANCH  12  18
ENDBRANCH   1  12
TORSDOF 3
ENDMDL
MODEL 5
REMARK VINA RESULT:      -7.2      2.870      6.676
REMARK  Name = 
REMARK  3 active torsions:
REMARK  status: ('A' for Active; 'I' for Inactive)
REMARK    1  A    between atoms: C_6  and  C_7
REMARK    2  A    between atoms: C_7  and  N_8
REMARK    3  A    between atoms: C_12  and  C_13
REMARK                            x       y       z     vdW  Elec       q    Type
REMARK                         _______ _______ _______ _____ _____    ______ ____
ROOT
ATOM      1  N   UNL     1       3.834   5.683  18.104  0.00  0.00    +0.000 NA
ATOM      2  C   UNL     1       5.275   5.503  18.238  0.00  0.00    +0.000 C 
ATOM      3  C   UNL     1       5.651   4.419  17.249  0.00  0.00    +0.000 C 
ATOM      4  C   UNL     1       4.416   3.541  17.197  0.00  0.00    +0.000 C 
ATOM      5  C   UNL     1       3.251   4.508  17.425  0.00  0.00    +0.000 C 
ENDROOT
BRANCH   5   6
ATOM      6  C   UNL     1       2.210   3.896  18.322  0.00  0.00    +0.000 A 
ATOM      7  N   UNL     1       1.385   2.899  18.072  0.00  0.00    +0.000 NA
ATOM      8  C   UNL     1       0.656   2.730  19.226  0.00  0.00    +0.000 A 
ATOM      9  C   UNL     1       1.037   3.632  20.191  0.00  0.00    +0.000 A 
ATOM     10  N   UNL     1       2.030   4.362  19.604  0.00  0.00    +0.000 N 
ATOM     11  H   UNL     1       2.549   5.138  19.995  0.00  0.00    +0.000 HD
ENDBRANCH   5   6
BRANCH   1  12
ATOM     12  C   UNL     1       3.350   6.975  17.593  0.00  0.00    +0.000 C 
BRANCH  12  18
ATOM     13  C   UNL     1      -0.157   9.441  21.868  0.00  0.00    +0.000 A 
ATOM     14  C   UNL     1      -0.403  10.416  20.909  0.00  0.00    +0.000 A 
ATOM     15  N   UNL     1       0.172  10.481  19.689  0.00  0.00    +0.000 NA
ATOM     16  C   UNL     1       1.028   9.465  19.452  0.00  0.00    +0.000 A 
ATOM     17  S   UNL     1       1.856   9.296  17.979  0.00  0.00    +0.000 S 
ATOM     18  C   UNL     1       2.529   7.807  18.545  0.00  0.00    +0.000 A 
ATOM     19  N   UNL     1       2.240   7.485  19.792  0.00  0.00    +0.000 NA
ATOM     20  C   UNL     1       1.359   8.421  20.311  0.00  0.00    +0.000 A 
ATOM     21  C   UNL     1       0.751   8.422  21.577  0.00  0.00    +0.000 A 
ENDBRANCH  12  18
ENDBRANCH   1  12
TORSDOF 3
ENDMDL
MODEL 6
REMARK VINA RESULT:      -7.2      1.471      2.673
REMARK  Name = 
REMARK  3 active torsions:
REMARK  status: ('A' for Active; 'I' for Inactive)
REMARK    1  A    between atoms: C_6  and  C_7
REMARK    2  A    between atoms: C_7  and  N_8
REMARK    3  A    between atoms: C_12  and  C_13
REMARK                            x       y       z     vdW  Elec       q    Type
REMARK                         _______ _______ _______ _____ _____    ______ ____
ROOT
ATOM      1  N   UNL     1       3.690   5.032  18.323  0.00  0.00    +0.000 NA
ATOM      2  C   UNL     1       3.215   6.163  17.534  0.00  0.00    +0.000 C 
ATOM      3  C   UNL     1       2.960   7.282  18.524  0.00  0.00    +0.000 C 
ATOM      4  C   UNL     1       2.551   6.552  19.788  0.00  0.00    +0.000 C 
ATOM      5  C   UNL     1       3.340   5.240  19.743  0.00  0.00    +0.000 C 
ENDROOT
BRANCH   5   6
ATOM      6  C   UNL     1       2.493   4.086  20.208  0.00  0.00    +0.000 A 
ATOM      7  N   UNL     1       1.907   3.148  19.491  0.00  0.00    +0.000 NA
ATOM      8  C   UNL     1       1.271   2.337  20.400  0.00  0.00    +0.000 A 
ATOM      9  C   UNL     1       1.468   2.782  21.686  0.00  0.00    +0.000 A 
ATOM     10  N   UNL     1       2.251   3.891  21.548  0.00  0.00    +0.000 N 
ATOM     11  H   UNL     1       2.593   4.509  22.273  0.00  0.00    +0.000 HD
ENDBRANCH   5   6
BRANCH   1  12
ATOM     12  C   UNL     1       5.071   4.577  18.104  0.00  0.00    +0.000 C 
BRANCH  12  18
ATOM     13  C   UNL     1       6.822   3.997  12.338  0.00  0.00    +0.000 A 
ATOM     14  C   UNL     1       7.800   4.920  12.687  0.00  0.00    +0.000 A 
ATOM     15  N   UNL     1       7.913   5.530  13.886  0.00  0.00    +0.000 NA
ATOM     16  C   UNL     1       6.972   5.138  14.770  0.00  0.00    +0.000 A 
ATOM     17  S   UNL     1       6.914   5.730  16.361  0.00  0.00    +0.000 S 
ATOM     18  C   UNL     1       5.591   4.667  16.692  0.00  0.00    +0.000 A 
ATOM     19  N   UNL     1       5.142   3.973  15.663  0.00  0.00    +0.000 NA
ATOM     20  C   UNL     1       5.947   4.221  14.562  0.00  0.00    +0.000 A 
ATOM     21  C   UNL     1       5.862   3.641  13.286  0.00  0.00    +0.000 A 
ENDBRANCH  12  18
ENDBRANCH   1  12
TORSDOF 3
ENDMDL
MODEL 7
REMARK VINA RESULT:      -7.2      2.129      6.350
REMARK  Name = 
REMARK  3 active torsions:
REMARK  status: ('A' for Active; 'I' for Inactive)
REMARK    1  A    between atoms: C_6  and  C_7
REMARK    2  A    between atoms: C_7  and  N_8
REMARK    3  A    between atoms: C_12  and  C_13
REMARK                            x       y       z     vdW  Elec       q    Type
REMARK                         _______ _______ _______ _____ _____    ______ ____
ROOT
ATOM      1  N   UNL     1       5.113   5.538  17.142  0.00  0.00    +0.000 NA
ATOM      2  C   UNL     1       6.568   5.570  17.233  0.00  0.00    +0.000 C 
ATOM      3  C   UNL     1       7.074   4.704  16.098  0.00  0.00    +0.000 C 
ATOM      4  C   UNL     1       5.988   3.658  15.936  0.00  0.00    +0.000 C 
ATOM      5  C   UNL     1       4.696   4.390  16.311  0.00  0.00    +0.000 C 
ENDROOT
BRANCH   5   6
ATOM      6  C   UNL     1       3.792   3.505  17.125  0.00  0.00    +0.000 A 
ATOM      7  N   UNL     1       2.490   3.327  17.017  0.00  0.00    +0.000 NA
ATOM      8  C   UNL     1       2.165   2.411  17.989  0.00  0.00    +0.000 A 
ATOM      9  C   UNL     1       3.277   2.023  18.699  0.00  0.00    +0.000 A 
ATOM     10  N   UNL     1       4.304   2.722  18.134  0.00  0.00    +0.000 N 
ATOM     11  H   UNL     1       5.281   2.719  18.399  0.00  0.00    +0.000 HD
ENDBRANCH   5   6
BRANCH   1  12
ATOM     12  C   UNL     1       4.419   6.795  16.822  0.00  0.00    +0.000 C 
BRANCH  12  18
ATOM     13  C   UNL     1       0.439   9.564  20.448  0.00  0.00    +0.000 A 
ATOM     14  C   UNL     1       0.677   8.492  21.299  0.00  0.00    +0.000 A 
ATOM     15  N   UNL     1       1.463   7.430  21.023  0.00  0.00    +0.000 NA
ATOM     16  C   UNL     1       2.045   7.502  19.807  0.00  0.00    +0.000 A 
ATOM     17  S   UNL     1       3.107   6.308  19.232  0.00  0.00    +0.000 S 
ATOM     18  C   UNL     1       3.377   7.254  17.810  0.00  0.00    +0.000 A 
ATOM     19  N   UNL     1       2.654   8.354  17.708  0.00  0.00    +0.000 NA
ATOM     20  C   UNL     1       1.904   8.514  18.863  0.00  0.00    +0.000 A 
ATOM     21  C   UNL     1       1.052   9.580  19.194  0.00  0.00    +0.000 A 
ENDBRANCH  12  18
ENDBRANCH   1  12
TORSDOF 3
ENDMDL
MODEL 8
REMARK VINA RESULT:      -7.1      2.265      2.907
REMARK  Name = 
REMARK  3 active torsions:
REMARK  status: ('A' for Active; 'I' for Inactive)
REMARK    1  A    between atoms: C_6  and  C_7
REMARK    2  A    between atoms: C_7  and  N_8
REMARK    3  A    between atoms: C_12  and  C_13
REMARK                            x       y       z     vdW  Elec       q    Type
REMARK                         _______ _______ _______ _____ _____    ______ ____
ROOT
ATOM      1  N   UNL     1       3.084   3.177  18.733  0.00  0.00    +0.000 NA
ATOM      2  C   UNL     1       2.571   1.953  19.339  0.00  0.00    +0.000 C 
ATOM      3  C   UNL     1       1.130   1.837  18.885  0.00  0.00    +0.000 C 
ATOM      4  C   UNL     1       0.687   3.279  18.734  0.00  0.00    +0.000 C 
ATOM      5  C   UNL     1       1.953   4.024  18.300  0.00  0.00    +0.000 C 
ENDROOT
BRANCH   5   6
ATOM      6  C   UNL     1       2.056   5.358  18.987  0.00  0.00    +0.000 A 
ATOM      7  N   UNL     1       2.427   6.520  18.487  0.00  0.00    +0.000 NA
ATOM      8  C   UNL     1       2.334   7.412  19.529  0.00  0.00    +0.000 A 
ATOM      9  C   UNL     1       1.901   6.792  20.677  0.00  0.00    +0.000 A 
ATOM     10  N   UNL     1       1.723   5.489  20.315  0.00  0.00    +0.000 N 
ATOM     11  H   UNL     1       1.429   4.714  20.897  0.00  0.00    +0.000 HD
ENDBRANCH   5   6
BRANCH   1  12
ATOM     12  C   UNL     1       4.156   3.049  17.735  0.00  0.00    +0.000 C 
BRANCH  12  18
ATOM     13  C   UNL     1       8.298   7.374  18.624  0.00  0.00    +0.000 A 
ATOM     14  C   UNL     1       7.762   7.933  17.471  0.00  0.00    +0.000 A 
ATOM     15  N   UNL     1       6.795   7.381  16.707  0.00  0.00    +0.000 NA
ATOM     16  C   UNL     1       6.352   6.199  17.184  0.00  0.00    +0.000 A 
ATOM     17  S   UNL     1       5.115   5.315  16.427  0.00  0.00    +0.000 S 
ATOM     18  C   UNL     1       5.180   4.155  17.707  0.00  0.00    +0.000 A 
ATOM     19  N   UNL     1       6.127   4.346  18.606  0.00  0.00    +0.000 NA
ATOM     20  C   UNL     1       6.789   5.532  18.325  0.00  0.00    +0.000 A 
ATOM     21  C   UNL     1       7.816   6.141  19.064  0.00  0.00    +0.000 A 
ENDBRANCH  12  18
ENDBRANCH   1  12
TORSDOF 3
ENDMDL
MODEL 9
REMARK VINA RESULT:      -7.1      3.183      7.198
REMARK  Name = 
REMARK  3 active torsions:
REMARK  status: ('A' for Active; 'I' for Inactive)
REMARK    1  A    between atoms: C_6  and  C_7
REMARK    2  A    between atoms: C_7  and  N_8
REMARK    3  A    between atoms: C_12  and  C_13
REMARK                            x       y       z     vdW  Elec       q    Type
REMARK                         _______ _______ _______ _____ _____    ______ ____
ROOT
ATOM      1  N   UNL     1       3.332   6.560  18.121  0.00  0.00    +0.000 NA
ATOM      2  C   UNL     1       4.709   6.539  17.641  0.00  0.00    +0.000 C 
ATOM      3  C   UNL     1       4.797   5.370  16.681  0.00  0.00    +0.000 C 
ATOM      4  C   UNL     1       3.793   4.378  17.236  0.00  0.00    +0.000 C 
ATOM      5  C   UNL     1       2.699   5.251  17.858  0.00  0.00    +0.000 C 
ENDROOT
BRANCH   5   6
ATOM      6  C   UNL     1       2.224   4.671  19.162  0.00  0.00    +0.000 A 
ATOM      7  N   UNL     1       1.263   3.794  19.377  0.00  0.00    +0.000 NA
ATOM      8  C   UNL     1       1.246   3.597  20.738  0.00  0.00    +0.000 A 
ATOM      9  C   UNL     1       2.204   4.360  21.362  0.00  0.00    +0.000 A 
ATOM     10  N   UNL     1       2.821   5.032  20.347  0.00  0.00    +0.000 N 
ATOM     11  H   UNL     1       3.570   5.710  20.412  0.00  0.00    +0.000 HD
ENDBRANCH   5   6
BRANCH   1  12
ATOM     12  C   UNL     1       2.498   7.715  17.759  0.00  0.00    +0.000 C 
BRANCH  12  18
ATOM     13  C   UNL     1      -0.166   9.838  22.764  0.00  0.00    +0.000 A 
ATOM     14  C   UNL     1      -0.577  10.877  21.938  0.00  0.00    +0.000 A 
ATOM     15  N   UNL     1      -0.232  11.034  20.643  0.00  0.00    +0.000 NA
ATOM     16  C   UNL     1       0.563  10.045  20.182  0.00  0.00    +0.000 A 
ATOM     17  S   UNL     1       1.110   9.989  18.575  0.00  0.00    +0.000 S 
ATOM     18  C   UNL     1       1.867   8.470  18.901  0.00  0.00    +0.000 A 
ATOM     19  N   UNL     1       1.807   8.057  20.154  0.00  0.00    +0.000 NA
ATOM     20  C   UNL     1       1.039   8.946  20.890  0.00  0.00    +0.000 A 
ATOM     21  C   UNL     1       0.670   8.851  22.241  0.00  0.00    +0.000 A 
ENDBRANCH  12  18
ENDBRANCH   1  12
TORSDOF 3
ENDMDL
