MODEL 1
REMARK VINA RESULT:      -9.1      0.000      0.000
REMARK  Name = 
REMARK  2 active torsions:
REMARK  status: ('A' for Active; 'I' for Inactive)
REMARK    1  A    between atoms: C_6  and  N_7
REMARK    2  A    between atoms: C_9  and  C_10
REMARK                            x       y       z     vdW  Elec       q    Type
REMARK                         _______ _______ _______ _____ _____    ______ ____
ROOT
ATOM      1  N   UNL     1       5.689   4.400  16.033  0.00  0.00    +0.000 N 
ATOM      2  C   UNL     1       4.410   3.980  16.351  0.00  0.00    +0.000 A 
ATOM      3  C   UNL     1       4.187   4.107  17.707  0.00  0.00    +0.000 A 
ATOM      4  C   UNL     1       5.388   4.639  18.268  0.00  0.00    +0.000 A 
ATOM      5  C   UNL     1       5.776   5.009  19.567  0.00  0.00    +0.000 A 
ATOM      6  N   UNL     1       7.015   5.488  19.823  0.00  0.00    +0.000 NA
ATOM      7  C   UNL     1       7.877   5.627  18.799  0.00  0.00    +0.000 A 
ATOM      8  C   UNL     1       7.593   5.310  17.483  0.00  0.00    +0.000 A 
ATOM      9  C   UNL     1       6.311   4.800  17.220  0.00  0.00    +0.000 A 
ENDROOT
BRANCH   1  15
ATOM     10  N   UNL     1       8.914   6.045  13.010  0.00  0.00    +0.000 N 
ATOM     11  C   UNL     1       7.824   5.234  13.242  0.00  0.00    +0.000 A 
ATOM     12  N   UNL     1       7.391   4.482  12.232  0.00  0.00    +0.000 NA
ATOM     13  C   UNL     1       6.343   3.685  12.489  0.00  0.00    +0.000 A 
ATOM     14  C   UNL     1       5.732   3.606  13.717  0.00  0.00    +0.000 A 
ATOM     15  C   UNL     1       6.258   4.410  14.711  0.00  0.00    +0.000 A 
ATOM     16  N   UNL     1       7.312   5.222  14.474  0.00  0.00    +0.000 NA
ATOM     17  H   UNL     1       9.440   5.685  12.225  0.00  0.00    +0.000 HD
ATOM     18  H   UNL     1       9.420   6.201  13.869  0.00  0.00    +0.000 HD
ENDBRANCH   1  15
BRANCH   3  19
ATOM     19  C   UNL     1       2.926   3.711  18.331  0.00  0.00    +0.000 A 
ATOM     20  C   UNL     1       2.316   4.518  19.293  0.00  0.00    +0.000 A 
ATOM     21  C   UNL     1       1.125   4.092  19.861  0.00  0.00    +0.000 A 
ATOM     22  N   UNL     1       0.518   2.927  19.552  0.00  0.00    +0.000 NA
ATOM     23  C   UNL     1       1.125   2.157  18.629  0.00  0.00    +0.000 A 
ATOM     24  C   UNL     1       2.308   2.502  17.995  0.00  0.00    +0.000 A 
ENDBRANCH   3  19
TORSDOF 2
ENDMDL
MODEL 2
REMARK VINA RESULT:      -9.0      0.019      1.001
REMARK  Name = 
REMARK  2 active torsions:
REMARK  status: ('A' for Active; 'I' for Inactive)
REMARK    1  A    between atoms: C_6  and  N_7
REMARK    2  A    between atoms: C_9  and  C_10
REMARK                            x       y       z     vdW  Elec       q    Type
REMARK                         _______ _______ _______ _____ _____    ______ ____
ROOT
ATOM      1  N   UNL     1       5.697   4.393  16.038  0.00  0.00    +0.000 N 
ATOM      2  C   UNL     1       4.423   3.961  16.360  0.00  0.00    +0.000 A 
ATOM      3  C   UNL     1       4.203   4.087  17.717  0.00  0.00    +0.000 A 
ATOM      4  C   UNL     1       5.401   4.630  18.273  0.00  0.00    +0.000 A 
ATOM      5  C   UNL     1       5.790   5.005  19.571  0.00  0.00    +0.000 A 
ATOM      6  N   UNL     1       7.024   5.496  19.822  0.00  0.00    +0.000 NA
ATOM      7  C   UNL     1       7.882   5.642  18.796  0.00  0.00    +0.000 A 
ATOM      8  C   UNL     1       7.596   5.321  17.480  0.00  0.00    +0.000 A 
ATOM      9  C   UNL     1       6.319   4.800  17.222  0.00  0.00    +0.000 A 
ENDROOT
BRANCH   1  15
ATOM     10  N   UNL     1       8.913   6.046  13.009  0.00  0.00    +0.000 N 
ATOM     11  C   UNL     1       7.823   5.234  13.243  0.00  0.00    +0.000 A 
ATOM     12  N   UNL     1       7.387   4.486  12.231  0.00  0.00    +0.000 NA
ATOM     13  C   UNL     1       6.339   3.689  12.489  0.00  0.00    +0.000 A 
ATOM     14  C   UNL     1       5.732   3.605  13.719  0.00  0.00    +0.000 A 
ATOM     15  C   UNL     1       6.262   4.406  14.714  0.00  0.00    +0.000 A 
ATOM     16  N   UNL     1       7.315   5.219  14.476  0.00  0.00    +0.000 NA
ATOM     17  H   UNL     1       9.436   5.689  12.222  0.00  0.00    +0.000 HD
ATOM     18  H   UNL     1       9.421   6.199  13.868  0.00  0.00    +0.000 HD
ENDBRANCH   1  15
BRANCH   3  19
ATOM     19  C   UNL     1       2.948   3.680  18.345  0.00  0.00    +0.000 A 
ATOM     20  C   UNL     1       2.334   2.473  18.006  0.00  0.00    +0.000 A 
ATOM     21  C   UNL     1       1.139   2.137  18.625  0.00  0.00    +0.000 A 
ATOM     22  N   UNL     1       0.515   2.919  19.531  0.00  0.00    +0.000 NA
ATOM     23  C   UNL     1       1.116   4.084  19.838  0.00  0.00    +0.000 A 
ATOM     24  C   UNL     1       2.318   4.501  19.286  0.00  0.00    +0.000 A 
ENDBRANCH   3  19
TORSDOF 2
ENDMDL
MODEL 3
REMARK VINA RESULT:      -8.6      3.047      4.953
REMARK  Name = 
REMARK  2 active torsions:
REMARK  status: ('A' for Active; 'I' for Inactive)
REMARK    1  A    between atoms: C_6  and  N_7
REMARK    2  A    between atoms: C_9  and  C_10
REMARK                            x       y       z     vdW  Elec       q    Type
REMARK                         _______ _______ _______ _____ _____    ______ ____
ROOT
ATOM      1  N   UNL     1       4.198   5.315  18.572  0.00  0.00    +0.000 N 
ATOM      2  C   UNL     1       3.730   6.609  18.713  0.00  0.00    +0.000 A 
ATOM      3  C   UNL     1       2.559   6.618  19.443  0.00  0.00    +0.000 A 
ATOM      4  C   UNL     1       2.280   5.259  19.780  0.00  0.00    +0.000 A 
ATOM      5  C   UNL     1       1.264   4.627  20.518  0.00  0.00    +0.000 A 
ATOM      6  N   UNL     1       1.239   3.284  20.674  0.00  0.00    +0.000 NA
ATOM      7  C   UNL     1       2.223   2.551  20.123  0.00  0.00    +0.000 A 
ATOM      8  C   UNL     1       3.278   3.072  19.393  0.00  0.00    +0.000 A 
ATOM      9  C   UNL     1       3.296   4.466  19.221  0.00  0.00    +0.000 A 
ENDROOT
BRANCH   1  15
ATOM     10  N   UNL     1       6.273   3.645  14.679  0.00  0.00    +0.000 N 
ATOM     11  C   UNL     1       6.394   4.101  15.975  0.00  0.00    +0.000 A 
ATOM     12  N   UNL     1       7.622   4.194  16.481  0.00  0.00    +0.000 NA
ATOM     13  C   UNL     1       7.715   4.661  17.736  0.00  0.00    +0.000 A 
ATOM     14  C   UNL     1       6.630   5.050  18.485  0.00  0.00    +0.000 A 
ATOM     15  C   UNL     1       5.396   4.935  17.872  0.00  0.00    +0.000 A 
ATOM     16  N   UNL     1       5.279   4.464  16.610  0.00  0.00    +0.000 NA
ATOM     17  H   UNL     1       7.145   3.790  14.189  0.00  0.00    +0.000 HD
ATOM     18  H   UNL     1       5.439   4.023  14.255  0.00  0.00    +0.000 HD
ENDBRANCH   1  15
BRANCH   3  19
ATOM     19  C   UNL     1       1.825   7.851  19.726  0.00  0.00    +0.000 A 
ATOM     20  C   UNL     1       1.622   8.809  18.731  0.00  0.00    +0.000 A 
ATOM     21  C   UNL     1       0.927   9.965  19.054  0.00  0.00    +0.000 A 
ATOM     22  N   UNL     1       0.443  10.234  20.284  0.00  0.00    +0.000 NA
ATOM     23  C   UNL     1       0.657   9.303  21.233  0.00  0.00    +0.000 A 
ATOM     24  C   UNL     1       1.326   8.111  21.006  0.00  0.00    +0.000 A 
ENDBRANCH   3  19
TORSDOF 2
ENDMDL
MODEL 4
REMARK VINA RESULT:      -8.6      3.054      4.961
REMARK  Name = 
REMARK  2 active torsions:
REMARK  status: ('A' for Active; 'I' for Inactive)
REMARK    1  A    between atoms: C_6  and  N_7
REMARK    2  A    between atoms: C_9  and  C_10
REMARK                            x       y       z     vdW  Elec       q    Type
REMARK                         _______ _______ _______ _____ _____    ______ ____
ROOT
ATOM      1  N   UNL     1       4.158   5.330  18.606  0.00  0.00    +0.000 N 
ATOM      2  C   UNL     1       3.702   6.627  18.763  0.00  0.00    +0.000 A 
ATOM      3  C   UNL     1       2.530   6.638  19.490  0.00  0.00    +0.000 A 
ATOM      4  C   UNL     1       2.237   5.278  19.810  0.00  0.00    +0.000 A 
ATOM      5  C   UNL     1       1.214   4.646  20.538  0.00  0.00    +0.000 A 
ATOM      6  N   UNL     1       1.175   3.302  20.677  0.00  0.00    +0.000 NA
ATOM      7  C   UNL     1       2.153   2.567  20.118  0.00  0.00    +0.000 A 
ATOM      8  C   UNL     1       3.214   3.086  19.398  0.00  0.00    +0.000 A 
ATOM      9  C   UNL     1       3.247   4.482  19.243  0.00  0.00    +0.000 A 
ENDROOT
BRANCH   1  15
ATOM     10  N   UNL     1       6.223   3.674  14.703  0.00  0.00    +0.000 N 
ATOM     11  C   UNL     1       6.347   4.120  16.001  0.00  0.00    +0.000 A 
ATOM     12  N   UNL     1       7.575   4.201  16.509  0.00  0.00    +0.000 NA
ATOM     13  C   UNL     1       7.671   4.658  17.766  0.00  0.00    +0.000 A 
ATOM     14  C   UNL     1       6.589   5.049  18.517  0.00  0.00    +0.000 A 
ATOM     15  C   UNL     1       5.354   4.946  17.904  0.00  0.00    +0.000 A 
ATOM     16  N   UNL     1       5.234   4.485  16.639  0.00  0.00    +0.000 NA
ATOM     17  H   UNL     1       7.096   3.816  14.213  0.00  0.00    +0.000 HD
ATOM     18  H   UNL     1       5.392   4.060  14.281  0.00  0.00    +0.000 HD
ENDBRANCH   1  15
BRANCH   3  19
ATOM     19  C   UNL     1       1.807   7.874  19.787  0.00  0.00    +0.000 A 
ATOM     20  C   UNL     1       1.310   8.126  21.066  0.00  0.00    +0.000 A 
ATOM     21  C   UNL     1       0.624   9.310  21.293  0.00  0.00    +0.000 A 
ATOM     22  N   UNL     1       0.389  10.238  20.341  0.00  0.00    +0.000 NA
ATOM     23  C   UNL     1       0.868   9.974  19.110  0.00  0.00    +0.000 A 
ATOM     24  C   UNL     1       1.578   8.827  18.789  0.00  0.00    +0.000 A 
ENDBRANCH   3  19
TORSDOF 2
ENDMDL
MODEL 5
REMARK VINA RESULT:      -8.5      3.559      7.170
REMARK  Name = 
REMARK  2 active torsions:
REMARK  status: ('A' for Active; 'I' for Inactive)
REMARK    1  A    between atoms: C_6  and  N_7
REMARK    2  A    between atoms: C_9  and  C_10
REMARK                            x       y       z     vdW  Elec       q    Type
REMARK                         _______ _______ _______ _____ _____    ______ ____
ROOT
ATOM      1  N   UNL     1       2.556   6.622  19.367  0.00  0.00    +0.000 N 
ATOM      2  C   UNL     1       3.694   6.582  18.581  0.00  0.00    +0.000 A 
ATOM      3  C   UNL     1       4.112   5.278  18.411  0.00  0.00    +0.000 A 
ATOM      4  C   UNL     1       3.186   4.458  19.124  0.00  0.00    +0.000 A 
ATOM      5  C   UNL     1       3.056   3.071  19.310  0.00  0.00    +0.000 A 
ATOM      6  N   UNL     1       2.061   2.552  20.064  0.00  0.00    +0.000 NA
ATOM      7  C   UNL     1       1.173   3.391  20.627  0.00  0.00    +0.000 A 
ATOM      8  C   UNL     1       1.198   4.768  20.494  0.00  0.00    +0.000 A 
ATOM      9  C   UNL     1       2.239   5.307  19.720  0.00  0.00    +0.000 A 
ENDROOT
BRANCH   1  15
ATOM     10  N   UNL     1       0.653  10.768  18.170  0.00  0.00    +0.000 N 
ATOM     11  C   UNL     1       0.940   9.844  19.152  0.00  0.00    +0.000 A 
ATOM     12  N   UNL     1       0.507  10.104  20.384  0.00  0.00    +0.000 NA
ATOM     13  C   UNL     1       0.779   9.179  21.318  0.00  0.00    +0.000 A 
ATOM     14  C   UNL     1       1.449   8.009  21.056  0.00  0.00    +0.000 A 
ATOM     15  C   UNL     1       1.847   7.816  19.745  0.00  0.00    +0.000 A 
ATOM     16  N   UNL     1       1.586   8.735  18.789  0.00  0.00    +0.000 NA
ATOM     17  H   UNL     1      -0.144  11.323  18.451  0.00  0.00    +0.000 HD
ATOM     18  H   UNL     1       0.602  10.314  17.270  0.00  0.00    +0.000 HD
ENDBRANCH   1  15
BRANCH   3  19
ATOM     19  C   UNL     1       5.310   4.938  17.644  0.00  0.00    +0.000 A 
ATOM     20  C   UNL     1       6.570   4.931  18.245  0.00  0.00    +0.000 A 
ATOM     21  C   UNL     1       7.674   4.609  17.472  0.00  0.00    +0.000 A 
ATOM     22  N   UNL     1       7.613   4.315  16.156  0.00  0.00    +0.000 NA
ATOM     23  C   UNL     1       6.390   4.335  15.591  0.00  0.00    +0.000 A 
ATOM     24  C   UNL     1       5.226   4.630  16.282  0.00  0.00    +0.000 A 
ENDBRANCH   3  19
TORSDOF 2
ENDMDL
MODEL 6
REMARK VINA RESULT:      -8.5      3.150      4.878
REMARK  Name = 
REMARK  2 active torsions:
REMARK  status: ('A' for Active; 'I' for Inactive)
REMARK    1  A    between atoms: C_6  and  N_7
REMARK    2  A    between atoms: C_9  and  C_10
REMARK                            x       y       z     vdW  Elec       q    Type
REMARK                         _______ _______ _______ _____ _____    ______ ____
ROOT
ATOM      1  N   UNL     1       3.955   5.570  18.236  0.00  0.00    +0.000 N 
ATOM      2  C   UNL     1       3.520   6.844  18.556  0.00  0.00    +0.000 A 
ATOM      3  C   UNL     1       2.422   6.780  19.390  0.00  0.00    +0.000 A 
ATOM      4  C   UNL     1       2.157   5.393  19.606  0.00  0.00    +0.000 A 
ATOM      5  C   UNL     1       1.206   4.690  20.365  0.00  0.00    +0.000 A 
ATOM      6  N   UNL     1       1.176   3.338  20.380  0.00  0.00    +0.000 NA
ATOM      7  C   UNL     1       2.095   2.665  19.665  0.00  0.00    +0.000 A 
ATOM      8  C   UNL     1       3.084   3.257  18.899  0.00  0.00    +0.000 A 
ATOM      9  C   UNL     1       3.106   4.660  18.874  0.00  0.00    +0.000 A 
ENDROOT
BRANCH   1  15
ATOM     10  N   UNL     1       8.431   4.155  17.784  0.00  0.00    +0.000 N 
ATOM     11  C   UNL     1       7.267   4.590  17.185  0.00  0.00    +0.000 A 
ATOM     12  N   UNL     1       7.250   4.660  15.856  0.00  0.00    +0.000 NA
ATOM     13  C   UNL     1       6.099   5.064  15.296  0.00  0.00    +0.000 A 
ATOM     14  C   UNL     1       4.973   5.380  16.017  0.00  0.00    +0.000 A 
ATOM     15  C   UNL     1       5.078   5.262  17.391  0.00  0.00    +0.000 A 
ATOM     16  N   UNL     1       6.228   4.860  17.976  0.00  0.00    +0.000 NA
ATOM     17  H   UNL     1       8.971   3.617  17.120  0.00  0.00    +0.000 HD
ATOM     18  H   UNL     1       8.223   3.718  18.670  0.00  0.00    +0.000 HD
ENDBRANCH   1  15
BRANCH   3  19
ATOM     19  C   UNL     1       1.734   7.978  19.868  0.00  0.00    +0.000 A 
ATOM     20  C   UNL     1       1.339   8.095  21.202  0.00  0.00    +0.000 A 
ATOM     21  C   UNL     1       0.682   9.248  21.603  0.00  0.00    +0.000 A 
ATOM     22  N   UNL     1       0.382  10.270  20.774  0.00  0.00    +0.000 NA
ATOM     23  C   UNL     1       0.762  10.136  19.489  0.00  0.00    +0.000 A 
ATOM     24  C   UNL     1       1.436   9.030  18.996  0.00  0.00    +0.000 A 
ENDBRANCH   3  19
TORSDOF 2
ENDMDL
MODEL 7
REMARK VINA RESULT:      -8.5      3.152      4.902
REMARK  Name = 
REMARK  2 active torsions:
REMARK  status: ('A' for Active; 'I' for Inactive)
REMARK    1  A    between atoms: C_6  and  N_7
REMARK    2  A    between atoms: C_9  and  C_10
REMARK                            x       y       z     vdW  Elec       q    Type
REMARK                         _______ _______ _______ _____ _____    ______ ____
ROOT
ATOM      1  N   UNL     1       3.941   5.562  18.233  0.00  0.00    +0.000 N 
ATOM      2  C   UNL     1       3.506   6.836  18.553  0.00  0.00    +0.000 A 
ATOM      3  C   UNL     1       2.408   6.773  19.386  0.00  0.00    +0.000 A 
ATOM      4  C   UNL     1       2.143   5.386  19.604  0.00  0.00    +0.000 A 
ATOM      5  C   UNL     1       1.192   4.684  20.363  0.00  0.00    +0.000 A 
ATOM      6  N   UNL     1       1.163   3.332  20.380  0.00  0.00    +0.000 NA
ATOM      7  C   UNL     1       2.081   2.658  19.665  0.00  0.00    +0.000 A 
ATOM      8  C   UNL     1       3.071   3.249  18.899  0.00  0.00    +0.000 A 
ATOM      9  C   UNL     1       3.092   4.653  18.872  0.00  0.00    +0.000 A 
ENDROOT
BRANCH   1  15
ATOM     10  N   UNL     1       8.420   4.154  17.784  0.00  0.00    +0.000 N 
ATOM     11  C   UNL     1       7.255   4.584  17.184  0.00  0.00    +0.000 A 
ATOM     12  N   UNL     1       7.237   4.649  15.855  0.00  0.00    +0.000 NA
ATOM     13  C   UNL     1       6.085   5.049  15.294  0.00  0.00    +0.000 A 
ATOM     14  C   UNL     1       4.958   5.366  16.015  0.00  0.00    +0.000 A 
ATOM     15  C   UNL     1       5.064   5.253  17.389  0.00  0.00    +0.000 A 
ATOM     16  N   UNL     1       6.215   4.856  17.975  0.00  0.00    +0.000 NA
ATOM     17  H   UNL     1       8.960   3.615  17.122  0.00  0.00    +0.000 HD
ATOM     18  H   UNL     1       8.213   3.720  18.671  0.00  0.00    +0.000 HD
ENDBRANCH   1  15
BRANCH   3  19
ATOM     19  C   UNL     1       1.720   7.971  19.863  0.00  0.00    +0.000 A 
ATOM     20  C   UNL     1       1.426   9.024  18.995  0.00  0.00    +0.000 A 
ATOM     21  C   UNL     1       0.781  10.142  19.500  0.00  0.00    +0.000 A 
ATOM     22  N   UNL     1       0.429  10.289  20.795  0.00  0.00    +0.000 NA
ATOM     23  C   UNL     1       0.729   9.267  21.620  0.00  0.00    +0.000 A 
ATOM     24  C   UNL     1       1.359   8.103  21.208  0.00  0.00    +0.000 A 
ENDBRANCH   3  19
TORSDOF 2
ENDMDL
MODEL 8
REMARK VINA RESULT:      -8.5      3.538      7.211
REMARK  Name = 
REMARK  2 active torsions:
REMARK  status: ('A' for Active; 'I' for Inactive)
REMARK    1  A    between atoms: C_6  and  N_7
REMARK    2  A    between atoms: C_9  and  C_10
REMARK                            x       y       z     vdW  Elec       q    Type
REMARK                         _______ _______ _______ _____ _____    ______ ____
ROOT
ATOM      1  N   UNL     1       2.547   6.587  19.395  0.00  0.00    +0.000 N 
ATOM      2  C   UNL     1       3.677   6.556  18.598  0.00  0.00    +0.000 A 
ATOM      3  C   UNL     1       4.106   5.256  18.427  0.00  0.00    +0.000 A 
ATOM      4  C   UNL     1       3.195   4.428  19.151  0.00  0.00    +0.000 A 
ATOM      5  C   UNL     1       3.081   3.041  19.343  0.00  0.00    +0.000 A 
ATOM      6  N   UNL     1       2.099   2.514  20.109  0.00  0.00    +0.000 NA
ATOM      7  C   UNL     1       1.208   3.346  20.678  0.00  0.00    +0.000 A 
ATOM      8  C   UNL     1       1.218   4.723  20.541  0.00  0.00    +0.000 A 
ATOM      9  C   UNL     1       2.246   5.270  19.755  0.00  0.00    +0.000 A 
ENDROOT
BRANCH   1  15
ATOM     10  N   UNL     1       0.650  10.742  18.219  0.00  0.00    +0.000 N 
ATOM     11  C   UNL     1       0.926   9.808  19.195  0.00  0.00    +0.000 A 
ATOM     12  N   UNL     1       0.476  10.053  20.424  0.00  0.00    +0.000 NA
ATOM     13  C   UNL     1       0.738   9.118  21.350  0.00  0.00    +0.000 A 
ATOM     14  C   UNL     1       1.414   7.952  21.084  0.00  0.00    +0.000 A 
ATOM     15  C   UNL     1       1.830   7.775  19.777  0.00  0.00    +0.000 A 
ATOM     16  N   UNL     1       1.579   8.704  18.828  0.00  0.00    +0.000 NA
ATOM     17  H   UNL     1      -0.152  11.291  18.496  0.00  0.00    +0.000 HD
ATOM     18  H   UNL     1       0.612  10.297  17.314  0.00  0.00    +0.000 HD
ENDBRANCH   1  15
BRANCH   3  19
ATOM     19  C   UNL     1       5.299   4.924  17.649  0.00  0.00    +0.000 A 
ATOM     20  C   UNL     1       5.199   4.529  16.314  0.00  0.00    +0.000 A 
ATOM     21  C   UNL     1       6.360   4.217  15.624  0.00  0.00    +0.000 A 
ATOM     22  N   UNL     1       7.594   4.255  16.170  0.00  0.00    +0.000 NA
ATOM     23  C   UNL     1       7.671   4.629  17.461  0.00  0.00    +0.000 A 
ATOM     24  C   UNL     1       6.570   4.974  18.230  0.00  0.00    +0.000 A 
ENDBRANCH   3  19
TORSDOF 2
ENDMDL
MODEL 9
REMARK VINA RESULT:      -8.4      3.454      7.369
REMARK  Name = 
REMARK  2 active torsions:
REMARK  status: ('A' for Active; 'I' for Inactive)
REMARK    1  A    between atoms: C_6  and  N_7
REMARK    2  A    between atoms: C_9  and  C_10
REMARK                            x       y       z     vdW  Elec       q    Type
REMARK                         _______ _______ _______ _____ _____    ______ ____
ROOT
ATOM      1  N   UNL     1       2.558   6.640  19.387  0.00  0.00    +0.000 N 
ATOM      2  C   UNL     1       3.695   6.597  18.600  0.00  0.00    +0.000 A 
ATOM      3  C   UNL     1       4.111   5.292  18.431  0.00  0.00    +0.000 A 
ATOM      4  C   UNL     1       3.184   4.474  19.146  0.00  0.00    +0.000 A 
ATOM      5  C   UNL     1       3.051   3.088  19.334  0.00  0.00    +0.000 A 
ATOM      6  N   UNL     1       2.056   2.571  20.090  0.00  0.00    +0.000 NA
ATOM      7  C   UNL     1       1.170   3.413  20.652  0.00  0.00    +0.000 A 
ATOM      8  C   UNL     1       1.198   4.790  20.518  0.00  0.00    +0.000 A 
ATOM      9  C   UNL     1       2.239   5.326  19.742  0.00  0.00    +0.000 A 
ENDROOT
BRANCH   1  15
ATOM     10  N   UNL     1       0.498   9.260  22.725  0.00  0.00    +0.000 N 
ATOM     11  C   UNL     1       0.833   9.094  21.398  0.00  0.00    +0.000 A 
ATOM     12  N   UNL     1       0.510  10.074  20.557  0.00  0.00    +0.000 NA
ATOM     13  C   UNL     1       0.866   9.899  19.275  0.00  0.00    +0.000 A 
ATOM     14  C   UNL     1       1.542   8.795  18.817  0.00  0.00    +0.000 A 
ATOM     15  C   UNL     1       1.851   7.836  19.764  0.00  0.00    +0.000 A 
ATOM     16  N   UNL     1       1.500   7.989  21.061  0.00  0.00    +0.000 NA
ATOM     17  H   UNL     1       0.383  10.244  22.923  0.00  0.00    +0.000 HD
ATOM     18  H   UNL     1       1.139   8.745  23.311  0.00  0.00    +0.000 HD
ENDBRANCH   1  15
BRANCH   3  19
ATOM     19  C   UNL     1       5.306   4.948  17.663  0.00  0.00    +0.000 A 
ATOM     20  C   UNL     1       6.565   4.929  18.266  0.00  0.00    +0.000 A 
ATOM     21  C   UNL     1       7.669   4.605  17.491  0.00  0.00    +0.000 A 
ATOM     22  N   UNL     1       7.606   4.319  16.173  0.00  0.00    +0.000 NA
ATOM     23  C   UNL     1       6.385   4.352  15.607  0.00  0.00    +0.000 A 
ATOM     24  C   UNL     1       5.222   4.650  16.299  0.00  0.00    +0.000 A 
ENDBRANCH   3  19
TORSDOF 2
ENDMDL
