MODEL 1
REMARK VINA RESULT:      -5.9      0.000      0.000
REMARK  Name = 
REMARK  4 active torsions:
REMARK  status: ('A' for Active; 'I' for Inactive)
REMARK    1  A    between atoms: C_1  and  C_2
REMARK    2  A    between atoms: C_6  and  C_7
REMARK    3  A    between atoms: C_10  and  S_11
REMARK    4  A    between atoms: N_12  and  N_13
REMARK                            x       y       z     vdW  Elec       q    Type
REMARK                         _______ _______ _______ _____ _____    ______ ____
ROOT
ATOM      1  C   UNL     1       4.530   4.522  18.376  0.00  0.00    +0.000 A 
ATOM      2  N   UNL     1       3.665   5.512  18.509  0.00  0.00    +0.000 NA
ATOM      3  N   UNL     1       2.766   5.180  19.502  0.00  0.00    +0.000 NA
ATOM      4  C   UNL     1       3.122   4.008  19.968  0.00  0.00    +0.000 A 
ATOM      5  N   UNL     1       4.239   3.553  19.315  0.00  0.00    +0.000 N 
ENDROOT
BRANCH   1  11
ATOM      6  C   UNL     1       7.620   5.528  18.781  0.00  0.00    +0.000 C 
ATOM      7  C   UNL     1       6.920   4.959  17.608  0.00  0.00    +0.000 A 
ATOM      8  O   UNL     1       7.680   4.798  16.486  0.00  0.00    +0.000 OA
ATOM      9  C   UNL     1       6.877   4.258  15.535  0.00  0.00    +0.000 A 
ATOM     10  C   UNL     1       5.609   4.064  16.030  0.00  0.00    +0.000 A 
ATOM     11  C   UNL     1       5.634   4.509  17.377  0.00  0.00    +0.000 A 
ENDBRANCH   1  11
BRANCH   5  12
ATOM     12  N   UNL     1       5.008   2.370  19.633  0.00  0.00    +0.000 N 
ATOM     13  H   UNL     1       4.659   1.572  19.102  0.00  0.00    +0.000 HD
ATOM     14  H   UNL     1       4.873   2.116  20.610  0.00  0.00    +0.000 HD
ENDBRANCH   5  12
BRANCH   4  15
ATOM     15  S   UNL     1       2.350   3.148  21.251  0.00  0.00    +0.000 S 
ATOM     16  H   UNL     1       2.503   1.922  20.732  0.00  0.00    +0.000 HD
ENDBRANCH   4  15
TORSDOF 3
ENDMDL
MODEL 2
REMARK VINA RESULT:      -5.9      1.151      1.161
REMARK  Name = 
REMARK  4 active torsions:
REMARK  status: ('A' for Active; 'I' for Inactive)
REMARK    1  A    between atoms: C_1  and  C_2
REMARK    2  A    between atoms: C_6  and  C_7
REMARK    3  A    between atoms: C_10  and  S_11
REMARK    4  A    between atoms: N_12  and  N_13
REMARK                            x       y       z     vdW  Elec       q    Type
REMARK                         _______ _______ _______ _____ _____    ______ ____
ROOT
ATOM      1  C   UNL     1       4.515   5.252  17.589  0.00  0.00    +0.000 A 
ATOM      2  N   UNL     1       3.581   6.187  17.633  0.00  0.00    +0.000 NA
ATOM      3  N   UNL     1       2.733   5.913  18.687  0.00  0.00    +0.000 NA
ATOM      4  C   UNL     1       3.187   4.833  19.276  0.00  0.00    +0.000 A 
ATOM      5  N   UNL     1       4.320   4.385  18.644  0.00  0.00    +0.000 N 
ENDROOT
BRANCH   1  11
ATOM      6  C   UNL     1       7.387   6.823  17.607  0.00  0.00    +0.000 C 
ATOM      7  C   UNL     1       6.783   5.897  16.625  0.00  0.00    +0.000 A 
ATOM      8  O   UNL     1       7.546   5.616  15.529  0.00  0.00    +0.000 OA
ATOM      9  C   UNL     1       6.838   4.751  14.760  0.00  0.00    +0.000 A 
ATOM     10  C   UNL     1       5.629   4.465  15.349  0.00  0.00    +0.000 A 
ATOM     11  C   UNL     1       5.591   5.199  16.563  0.00  0.00    +0.000 A 
ENDBRANCH   1  11
BRANCH   5  12
ATOM     12  N   UNL     1       5.183   3.306  19.074  0.00  0.00    +0.000 N 
ATOM     13  H   UNL     1       5.988   3.234  18.452  0.00  0.00    +0.000 HD
ATOM     14  H   UNL     1       4.700   2.414  18.985  0.00  0.00    +0.000 HD
ENDBRANCH   5  12
BRANCH   4  15
ATOM     15  S   UNL     1       2.513   4.080  20.675  0.00  0.00    +0.000 S 
ATOM     16  H   UNL     1       1.785   3.162  20.024  0.00  0.00    +0.000 HD
ENDBRANCH   4  15
TORSDOF 3
ENDMDL
MODEL 3
REMARK VINA RESULT:      -5.8      1.341      1.395
REMARK  Name = 
REMARK  4 active torsions:
REMARK  status: ('A' for Active; 'I' for Inactive)
REMARK    1  A    between atoms: C_1  and  C_2
REMARK    2  A    between atoms: C_6  and  C_7
REMARK    3  A    between atoms: C_10  and  S_11
REMARK    4  A    between atoms: N_12  and  N_13
REMARK                            x       y       z     vdW  Elec       q    Type
REMARK                         _______ _______ _______ _____ _____    ______ ____
ROOT
ATOM      1  C   UNL     1       4.262   4.482  17.144  0.00  0.00    +0.000 A 
ATOM      2  N   UNL     1       3.579   5.545  17.533  0.00  0.00    +0.000 NA
ATOM      3  N   UNL     1       2.545   5.129  18.347  0.00  0.00    +0.000 NA
ATOM      4  C   UNL     1       2.639   3.826  18.456  0.00  0.00    +0.000 A 
ATOM      5  N   UNL     1       3.715   3.364  17.739  0.00  0.00    +0.000 N 
ENDROOT
BRANCH   1  11
ATOM      6  C   UNL     1       7.418   4.828  17.942  0.00  0.00    +0.000 C 
ATOM      7  C   UNL     1       6.748   4.693  16.630  0.00  0.00    +0.000 A 
ATOM      8  O   UNL     1       7.572   4.693  15.542  0.00  0.00    +0.000 OA
ATOM      9  C   UNL     1       6.785   4.549  14.446  0.00  0.00    +0.000 A 
ATOM     10  C   UNL     1       5.464   4.451  14.813  0.00  0.00    +0.000 A 
ATOM     11  C   UNL     1       5.435   4.536  16.230  0.00  0.00    +0.000 A 
ENDBRANCH   1  11
BRANCH   5  12
ATOM     12  N   UNL     1       4.227   2.011  17.720  0.00  0.00    +0.000 N 
ATOM     13  H   UNL     1       5.163   1.997  17.314  0.00  0.00    +0.000 HD
ATOM     14  H   UNL     1       3.662   1.431  17.101  0.00  0.00    +0.000 HD
ENDBRANCH   5  12
BRANCH   4  15
ATOM     15  S   UNL     1       1.608   2.807  19.393  0.00  0.00    +0.000 S 
ATOM     16  H   UNL     1       2.068   3.182  20.595  0.00  0.00    +0.000 HD
ENDBRANCH   4  15
TORSDOF 3
ENDMDL
MODEL 4
REMARK VINA RESULT:      -5.6      3.302      4.689
REMARK  Name = 
REMARK  4 active torsions:
REMARK  status: ('A' for Active; 'I' for Inactive)
REMARK    1  A    between atoms: C_1  and  C_2
REMARK    2  A    between atoms: C_6  and  C_7
REMARK    3  A    between atoms: C_10  and  S_11
REMARK    4  A    between atoms: N_12  and  N_13
REMARK                            x       y       z     vdW  Elec       q    Type
REMARK                         _______ _______ _______ _____ _____    ______ ____
ROOT
ATOM      1  C   UNL     1       3.653   4.813  18.239  0.00  0.00    +0.000 A 
ATOM      2  N   UNL     1       3.562   5.909  17.504  0.00  0.00    +0.000 NA
ATOM      3  N   UNL     1       4.822   6.458  17.377  0.00  0.00    +0.000 NA
ATOM      4  C   UNL     1       5.653   5.669  18.014  0.00  0.00    +0.000 A 
ATOM      5  N   UNL     1       4.979   4.604  18.557  0.00  0.00    +0.000 N 
ENDROOT
BRANCH   1  11
ATOM      6  C   UNL     1       1.601   5.221  20.757  0.00  0.00    +0.000 C 
ATOM      7  C   UNL     1       1.662   4.187  19.701  0.00  0.00    +0.000 A 
ATOM      8  O   UNL     1       0.691   3.230  19.752  0.00  0.00    +0.000 OA
ATOM      9  C   UNL     1       0.903   2.390  18.708  0.00  0.00    +0.000 A 
ATOM     10  C   UNL     1       1.997   2.795  17.980  0.00  0.00    +0.000 A 
ATOM     11  C   UNL     1       2.488   3.966  18.615  0.00  0.00    +0.000 A 
ENDBRANCH   1  11
BRANCH   5  12
ATOM     12  N   UNL     1       5.560   3.454  19.215  0.00  0.00    +0.000 N 
ATOM     13  H   UNL     1       5.589   3.605  20.223  0.00  0.00    +0.000 HD
ATOM     14  H   UNL     1       6.534   3.345  18.935  0.00  0.00    +0.000 HD
ENDBRANCH   5  12
BRANCH   4  15
ATOM     15  S   UNL     1       7.362   5.878  18.135  0.00  0.00    +0.000 S 
ATOM     16  H   UNL     1       7.332   7.116  18.648  0.00  0.00    +0.000 HD
ENDBRANCH   4  15
TORSDOF 3
ENDMDL
MODEL 5
REMARK VINA RESULT:      -5.6      1.383      2.016
REMARK  Name = 
REMARK  4 active torsions:
REMARK  status: ('A' for Active; 'I' for Inactive)
REMARK    1  A    between atoms: C_1  and  C_2
REMARK    2  A    between atoms: C_6  and  C_7
REMARK    3  A    between atoms: C_10  and  S_11
REMARK    4  A    between atoms: N_12  and  N_13
REMARK                            x       y       z     vdW  Elec       q    Type
REMARK                         _______ _______ _______ _____ _____    ______ ____
ROOT
ATOM      1  C   UNL     1       4.474   4.018  17.282  0.00  0.00    +0.000 A 
ATOM      2  N   UNL     1       3.957   2.824  17.510  0.00  0.00    +0.000 NA
ATOM      3  N   UNL     1       3.030   2.932  18.527  0.00  0.00    +0.000 NA
ATOM      4  C   UNL     1       2.985   4.195  18.875  0.00  0.00    +0.000 A 
ATOM      5  N   UNL     1       3.855   4.932  18.111  0.00  0.00    +0.000 N 
ENDROOT
BRANCH   1  11
ATOM      6  C   UNL     1       7.636   4.682  17.811  0.00  0.00    +0.000 C 
ATOM      7  C   UNL     1       6.854   4.571  16.561  0.00  0.00    +0.000 A 
ATOM      8  O   UNL     1       7.556   4.758  15.405  0.00  0.00    +0.000 OA
ATOM      9  C   UNL     1       6.682   4.607  14.378  0.00  0.00    +0.000 A 
ATOM     10  C   UNL     1       5.425   4.320  14.856  0.00  0.00    +0.000 A 
ATOM     11  C   UNL     1       5.533   4.288  16.271  0.00  0.00    +0.000 A 
ENDBRANCH   1  11
BRANCH   5  12
ATOM     12  N   UNL     1       3.995   6.372  18.101  0.00  0.00    +0.000 N 
ATOM     13  H   UNL     1       4.868   6.641  18.555  0.00  0.00    +0.000 HD
ATOM     14  H   UNL     1       3.261   6.799  18.664  0.00  0.00    +0.000 HD
ENDBRANCH   5  12
BRANCH   4  15
ATOM     15  S   UNL     1       1.960   4.880  20.082  0.00  0.00    +0.000 S 
ATOM     16  H   UNL     1       1.180   3.804  20.255  0.00  0.00    +0.000 HD
ENDBRANCH   4  15
TORSDOF 3
ENDMDL
MODEL 6
REMARK VINA RESULT:      -5.6      1.890      1.957
REMARK  Name = 
REMARK  4 active torsions:
REMARK  status: ('A' for Active; 'I' for Inactive)
REMARK    1  A    between atoms: C_1  and  C_2
REMARK    2  A    between atoms: C_6  and  C_7
REMARK    3  A    between atoms: C_10  and  S_11
REMARK    4  A    between atoms: N_12  and  N_13
REMARK                            x       y       z     vdW  Elec       q    Type
REMARK                         _______ _______ _______ _____ _____    ______ ____
ROOT
ATOM      1  C   UNL     1       4.226   3.835  17.148  0.00  0.00    +0.000 A 
ATOM      2  N   UNL     1       2.949   3.582  16.924  0.00  0.00    +0.000 NA
ATOM      3  N   UNL     1       2.387   3.093  18.086  0.00  0.00    +0.000 NA
ATOM      4  C   UNL     1       3.329   3.087  18.997  0.00  0.00    +0.000 A 
ATOM      5  N   UNL     1       4.504   3.565  18.472  0.00  0.00    +0.000 N 
ENDROOT
BRANCH   1  11
ATOM      6  C   UNL     1       5.131   6.937  16.615  0.00  0.00    +0.000 C 
ATOM      7  C   UNL     1       5.502   5.676  15.934  0.00  0.00    +0.000 A 
ATOM      8  O   UNL     1       6.392   5.798  14.907  0.00  0.00    +0.000 OA
ATOM      9  C   UNL     1       6.617   4.551  14.423  0.00  0.00    +0.000 A 
ATOM     10  C   UNL     1       5.886   3.624  15.128  0.00  0.00    +0.000 A 
ATOM     11  C   UNL     1       5.167   4.348  16.115  0.00  0.00    +0.000 A 
ENDBRANCH   1  11
BRANCH   5  12
ATOM     12  N   UNL     1       5.728   3.836  19.193  0.00  0.00    +0.000 N 
ATOM     13  H   UNL     1       5.575   3.727  20.196  0.00  0.00    +0.000 HD
ATOM     14  H   UNL     1       5.997   4.812  19.072  0.00  0.00    +0.000 HD
ENDBRANCH   5  12
BRANCH   4  15
ATOM     15  S   UNL     1       3.147   2.600  20.643  0.00  0.00    +0.000 S 
ATOM     16  H   UNL     1       3.601   1.348  20.487  0.00  0.00    +0.000 HD
ENDBRANCH   4  15
TORSDOF 3
ENDMDL
MODEL 7
REMARK VINA RESULT:      -5.6      1.302      2.083
REMARK  Name = 
REMARK  4 active torsions:
REMARK  status: ('A' for Active; 'I' for Inactive)
REMARK    1  A    between atoms: C_1  and  C_2
REMARK    2  A    between atoms: C_6  and  C_7
REMARK    3  A    between atoms: C_10  and  S_11
REMARK    4  A    between atoms: N_12  and  N_13
REMARK                            x       y       z     vdW  Elec       q    Type
REMARK                         _______ _______ _______ _____ _____    ______ ____
ROOT
ATOM      1  C   UNL     1       4.145   4.498  18.091  0.00  0.00    +0.000 A 
ATOM      2  N   UNL     1       3.203   5.379  17.803  0.00  0.00    +0.000 NA
ATOM      3  N   UNL     1       1.972   4.779  17.978  0.00  0.00    +0.000 NA
ATOM      4  C   UNL     1       2.194   3.557  18.395  0.00  0.00    +0.000 A 
ATOM      5  N   UNL     1       3.543   3.328  18.508  0.00  0.00    +0.000 N 
ENDROOT
BRANCH   1  11
ATOM      6  C   UNL     1       6.128   3.911  15.552  0.00  0.00    +0.000 C 
ATOM      7  C   UNL     1       6.390   4.495  16.886  0.00  0.00    +0.000 A 
ATOM      8  O   UNL     1       7.677   4.883  17.120  0.00  0.00    +0.000 OA
ATOM      9  C   UNL     1       7.717   5.399  18.374  0.00  0.00    +0.000 A 
ATOM     10  C   UNL     1       6.470   5.354  18.951  0.00  0.00    +0.000 A 
ATOM     11  C   UNL     1       5.604   4.776  17.987  0.00  0.00    +0.000 A 
ENDBRANCH   1  11
BRANCH   5  12
ATOM     12  N   UNL     1       4.180   2.154  19.062  0.00  0.00    +0.000 N 
ATOM     13  H   UNL     1       3.495   1.407  19.179  0.00  0.00    +0.000 HD
ATOM     14  H   UNL     1       4.521   2.350  20.002  0.00  0.00    +0.000 HD
ENDBRANCH   5  12
BRANCH   4  15
ATOM     15  S   UNL     1       0.991   2.388  18.801  0.00  0.00    +0.000 S 
ATOM     16  H   UNL     1      -0.030   3.248  18.920  0.00  0.00    +0.000 HD
ENDBRANCH   4  15
TORSDOF 3
ENDMDL
MODEL 8
REMARK VINA RESULT:      -5.6      3.285      4.907
REMARK  Name = 
REMARK  4 active torsions:
REMARK  status: ('A' for Active; 'I' for Inactive)
REMARK    1  A    between atoms: C_1  and  C_2
REMARK    2  A    between atoms: C_6  and  C_7
REMARK    3  A    between atoms: C_10  and  S_11
REMARK    4  A    between atoms: N_12  and  N_13
REMARK                            x       y       z     vdW  Elec       q    Type
REMARK                         _______ _______ _______ _____ _____    ______ ____
ROOT
ATOM      1  C   UNL     1       4.251   4.184  18.784  0.00  0.00    +0.000 A 
ATOM      2  N   UNL     1       5.317   3.638  19.342  0.00  0.00    +0.000 NA
ATOM      3  N   UNL     1       6.427   4.379  18.987  0.00  0.00    +0.000 NA
ATOM      4  C   UNL     1       6.005   5.374  18.245  0.00  0.00    +0.000 A 
ATOM      5  N   UNL     1       4.642   5.318  18.100  0.00  0.00    +0.000 N 
ENDROOT
BRANCH   1  11
ATOM      6  C   UNL     1       1.823   5.305  20.673  0.00  0.00    +0.000 C 
ATOM      7  C   UNL     1       1.891   4.156  19.743  0.00  0.00    +0.000 A 
ATOM      8  O   UNL     1       0.744   3.426  19.619  0.00  0.00    +0.000 OA
ATOM      9  C   UNL     1       0.996   2.437  18.724  0.00  0.00    +0.000 A 
ATOM     10  C   UNL     1       2.289   2.522  18.266  0.00  0.00    +0.000 A 
ATOM     11  C   UNL     1       2.872   3.641  18.917  0.00  0.00    +0.000 A 
ENDBRANCH   1  11
BRANCH   5  12
ATOM     12  N   UNL     1       3.795   6.306  17.469  0.00  0.00    +0.000 N 
ATOM     13  H   UNL     1       4.301   7.186  17.369  0.00  0.00    +0.000 HD
ATOM     14  H   UNL     1       3.002   6.525  18.071  0.00  0.00    +0.000 HD
ENDBRANCH   5  12
BRANCH   4  15
ATOM     15  S   UNL     1       6.986   6.622  17.567  0.00  0.00    +0.000 S 
ATOM     16  H   UNL     1       8.169   6.036  17.801  0.00  0.00    +0.000 HD
ENDBRANCH   4  15
TORSDOF 3
ENDMDL
MODEL 9
REMARK VINA RESULT:      -5.5      1.158      1.962
REMARK  Name = 
REMARK  4 active torsions:
REMARK  status: ('A' for Active; 'I' for Inactive)
REMARK    1  A    between atoms: C_1  and  C_2
REMARK    2  A    between atoms: C_6  and  C_7
REMARK    3  A    between atoms: C_10  and  S_11
REMARK    4  A    between atoms: N_12  and  N_13
REMARK                            x       y       z     vdW  Elec       q    Type
REMARK                         _______ _______ _______ _____ _____    ______ ____
ROOT
ATOM      1  C   UNL     1       5.045   4.531  18.049  0.00  0.00    +0.000 A 
ATOM      2  N   UNL     1       5.181   3.494  18.856  0.00  0.00    +0.000 NA
ATOM      3  N   UNL     1       4.214   3.571  19.838  0.00  0.00    +0.000 NA
ATOM      4  C   UNL     1       3.495   4.638  19.588  0.00  0.00    +0.000 A 
ATOM      5  N   UNL     1       3.956   5.271  18.462  0.00  0.00    +0.000 N 
ENDROOT
BRANCH   1  11
ATOM      6  C   UNL     1       7.416   6.777  17.811  0.00  0.00    +0.000 C 
ATOM      7  C   UNL     1       6.914   5.775  16.845  0.00  0.00    +0.000 A 
ATOM      8  O   UNL     1       7.547   5.750  15.636  0.00  0.00    +0.000 OA
ATOM      9  C   UNL     1       6.963   4.771  14.900  0.00  0.00    +0.000 A 
ATOM     10  C   UNL     1       5.964   4.160  15.621  0.00  0.00    +0.000 A 
ATOM     11  C   UNL     1       5.933   4.803  16.886  0.00  0.00    +0.000 A 
ENDBRANCH   1  11
BRANCH   5  12
ATOM     12  N   UNL     1       3.348   6.400  17.791  0.00  0.00    +0.000 N 
ATOM     13  H   UNL     1       3.182   7.154  18.457  0.00  0.00    +0.000 HD
ATOM     14  H   UNL     1       2.424   6.146  17.445  0.00  0.00    +0.000 HD
ENDBRANCH   5  12
BRANCH   4  15
ATOM     15  S   UNL     1       2.128   5.177  20.495  0.00  0.00    +0.000 S 
ATOM     16  H   UNL     1       1.902   6.293  19.788  0.00  0.00    +0.000 HD
ENDBRANCH   4  15
TORSDOF 3
ENDMDL
