MODEL 1
REMARK VINA RESULT:      -7.2      0.000      0.000
REMARK  Name = 
REMARK  4 active torsions:
REMARK  status: ('A' for Active; 'I' for Inactive)
REMARK    1  A    between atoms: C_1  and  N_2
REMARK    2  A    between atoms: C_4  and  N_5
REMARK    3  A    between atoms: C_8  and  N_9
REMARK    4  A    between atoms: C_10  and  C_12
REMARK                            x       y       z     vdW  Elec       q    Type
REMARK                         _______ _______ _______ _____ _____    ______ ____
ROOT
ATOM      1  N   UNL     1       1.136  10.041  19.730  0.00  0.00    +0.000 N 
ATOM      2  C   UNL     1       1.426  10.324  18.344  0.00  0.00    +0.000 C 
ATOM      3  C   UNL     1       1.635   8.965  17.712  0.00  0.00    +0.000 C 
ATOM      4  C   UNL     1       2.201   8.126  18.850  0.00  0.00    +0.000 C 
ATOM      5  C   UNL     1       1.537   8.743  20.081  0.00  0.00    +0.000 C 
ATOM      6  O   UNL     1       1.419   8.159  21.149  0.00  0.00    +0.000 OA
ENDROOT
BRANCH   1  10
ATOM      7  C   UNL     1      -1.785  12.158  23.059  0.00  0.00    +0.000 C 
ATOM      8  N   UNL     1      -0.726  11.894  22.116  0.00  0.00    +0.000 N 
ATOM      9  C   UNL     1      -0.525  10.736  21.429  0.00  0.00    +0.000 A 
ATOM     10  C   UNL     1       0.568  10.941  20.621  0.00  0.00    +0.000 A 
ATOM     11  C   UNL     1       0.963  12.267  20.920  0.00  0.00    +0.000 A 
ATOM     12  N   UNL     1       0.175  12.852  21.829  0.00  0.00    +0.000 NA
ENDBRANCH   1  10
BRANCH   4  13
ATOM     13  N   UNL     1       1.894   6.712  18.742  0.00  0.00    +0.000 N 
ATOM     14  C   UNL     1       2.802   5.752  19.132  0.00  0.00    +0.000 C 
ATOM     15  O   UNL     1       3.896   6.059  19.586  0.00  0.00    +0.000 OA
ATOM     16  H   UNL     1       0.982   6.455  18.374  0.00  0.00    +0.000 HD
BRANCH  14  17
ATOM     17  C   UNL     1       2.419   4.327  18.936  0.00  0.00    +0.000 A 
ATOM     18  C   UNL     1       1.429   3.754  19.743  0.00  0.00    +0.000 A 
ATOM     19  F   UNL     1       0.857   4.451  20.738  0.00  0.00    +0.000 F 
ATOM     20  C   UNL     1       0.986   2.446  19.543  0.00  0.00    +0.000 A 
ATOM     21  C   UNL     1       1.528   1.682  18.516  0.00  0.00    +0.000 A 
ATOM     22  C   UNL     1       2.523   2.229  17.708  0.00  0.00    +0.000 A 
ATOM     23  C   UNL     1       2.974   3.542  17.912  0.00  0.00    +0.000 A 
ATOM     24 CL   UNL     1       4.257   4.067  16.876  0.00  0.00    +0.000 Cl
ENDBRANCH  14  17
ENDBRANCH   4  13
TORSDOF 3
ENDMDL
MODEL 2
REMARK VINA RESULT:      -7.0      1.693      2.113
REMARK  Name = 
REMARK  4 active torsions:
REMARK  status: ('A' for Active; 'I' for Inactive)
REMARK    1  A    between atoms: C_1  and  N_2
REMARK    2  A    between atoms: C_4  and  N_5
REMARK    3  A    between atoms: C_8  and  N_9
REMARK    4  A    between atoms: C_10  and  C_12
REMARK                            x       y       z     vdW  Elec       q    Type
REMARK                         _______ _______ _______ _____ _____    ______ ____
ROOT
ATOM      1  N   UNL     1       0.813   9.950  20.198  0.00  0.00    +0.000 N 
ATOM      2  C   UNL     1       1.029  10.497  18.879  0.00  0.00    +0.000 C 
ATOM      3  C   UNL     1       1.378   9.299  18.022  0.00  0.00    +0.000 C 
ATOM      4  C   UNL     1       2.070   8.354  18.995  0.00  0.00    +0.000 C 
ATOM      5  C   UNL     1       1.373   8.669  20.318  0.00  0.00    +0.000 C 
ATOM      6  O   UNL     1       1.353   7.903  21.271  0.00  0.00    +0.000 OA
ENDROOT
BRANCH   1  10
ATOM      7  C   UNL     1      -1.151  13.413  23.069  0.00  0.00    +0.000 C 
ATOM      8  N   UNL     1      -0.722  12.150  22.521  0.00  0.00    +0.000 N 
ATOM      9  C   UNL     1      -0.084  11.959  21.334  0.00  0.00    +0.000 A 
ATOM     10  C   UNL     1       0.168  10.611  21.233  0.00  0.00    +0.000 A 
ATOM     11  C   UNL     1      -0.386  10.076  22.422  0.00  0.00    +0.000 A 
ATOM     12  N   UNL     1      -0.927  11.012  23.210  0.00  0.00    +0.000 NA
ENDBRANCH   1  10
BRANCH   4  13
ATOM     13  N   UNL     1       1.929   6.953  18.648  0.00  0.00    +0.000 N 
ATOM     14  C   UNL     1       2.915   6.038  18.950  0.00  0.00    +0.000 C 
ATOM     15  O   UNL     1       3.940   6.377  19.524  0.00  0.00    +0.000 OA
ATOM     16  H   UNL     1       1.073   6.667  18.181  0.00  0.00    +0.000 HD
BRANCH  14  17
ATOM     17  C   UNL     1       2.704   4.633  18.510  0.00  0.00    +0.000 A 
ATOM     18  C   UNL     1       3.406   4.135  17.406  0.00  0.00    +0.000 A 
ATOM     19  F   UNL     1       4.224   4.924  16.692  0.00  0.00    +0.000 F 
ATOM     20  C   UNL     1       3.296   2.803  17.007  0.00  0.00    +0.000 A 
ATOM     21  C   UNL     1       2.477   1.933  17.718  0.00  0.00    +0.000 A 
ATOM     22  C   UNL     1       1.761   2.410  18.815  0.00  0.00    +0.000 A 
ATOM     23  C   UNL     1       1.865   3.752  19.213  0.00  0.00    +0.000 A 
ATOM     24 CL   UNL     1       0.872   4.219  20.549  0.00  0.00    +0.000 Cl
ENDBRANCH  14  17
ENDBRANCH   4  13
TORSDOF 3
ENDMDL
MODEL 3
REMARK VINA RESULT:      -6.9      1.593      1.742
REMARK  Name = 
REMARK  4 active torsions:
REMARK  status: ('A' for Active; 'I' for Inactive)
REMARK    1  A    between atoms: C_1  and  N_2
REMARK    2  A    between atoms: C_4  and  N_5
REMARK    3  A    between atoms: C_8  and  N_9
REMARK    4  A    between atoms: C_10  and  C_12
REMARK                            x       y       z     vdW  Elec       q    Type
REMARK                         _______ _______ _______ _____ _____    ______ ____
ROOT
ATOM      1  N   UNL     1       0.508   9.980  19.811  0.00  0.00    +0.000 N 
ATOM      2  C   UNL     1       0.656  10.212  18.394  0.00  0.00    +0.000 C 
ATOM      3  C   UNL     1       1.266   8.934  17.859  0.00  0.00    +0.000 C 
ATOM      4  C   UNL     1       2.099   8.421  19.027  0.00  0.00    +0.000 C 
ATOM      5  C   UNL     1       1.307   8.909  20.240  0.00  0.00    +0.000 C 
ATOM      6  O   UNL     1       1.408   8.417  21.356  0.00  0.00    +0.000 OA
ENDROOT
BRANCH   1  10
ATOM      7  C   UNL     1      -2.838  13.107  21.578  0.00  0.00    +0.000 C 
ATOM      8  N   UNL     1      -1.791  12.123  21.460  0.00  0.00    +0.000 N 
ATOM      9  C   UNL     1      -1.299  11.599  20.303  0.00  0.00    +0.000 A 
ATOM     10  C   UNL     1      -0.291  10.734  20.659  0.00  0.00    +0.000 A 
ATOM     11  C   UNL     1      -0.274  10.801  22.073  0.00  0.00    +0.000 A 
ATOM     12  N   UNL     1      -1.185  11.648  22.564  0.00  0.00    +0.000 NA
ENDBRANCH   1  10
BRANCH   4  13
ATOM     13  N   UNL     1       2.250   6.978  19.046  0.00  0.00    +0.000 N 
ATOM     14  C   UNL     1       3.128   6.340  18.196  0.00  0.00    +0.000 C 
ATOM     15  O   UNL     1       3.812   6.970  17.401  0.00  0.00    +0.000 OA
ATOM     16  H   UNL     1       1.691   6.454  19.713  0.00  0.00    +0.000 HD
BRANCH  14  17
ATOM     17  C   UNL     1       3.178   4.854  18.252  0.00  0.00    +0.000 A 
ATOM     18  C   UNL     1       2.112   4.101  17.746  0.00  0.00    +0.000 A 
ATOM     19  F   UNL     1       1.010   4.697  17.264  0.00  0.00    +0.000 F 
ATOM     20  C   UNL     1       2.152   2.707  17.708  0.00  0.00    +0.000 A 
ATOM     21  C   UNL     1       3.275   2.035  18.176  0.00  0.00    +0.000 A 
ATOM     22  C   UNL     1       4.344   2.764  18.694  0.00  0.00    +0.000 A 
ATOM     23  C   UNL     1       4.302   4.166  18.739  0.00  0.00    +0.000 A 
ATOM     24 CL   UNL     1       5.670   4.936  19.466  0.00  0.00    +0.000 Cl
ENDBRANCH  14  17
ENDBRANCH   4  13
TORSDOF 3
ENDMDL
MODEL 4
REMARK VINA RESULT:      -6.9      0.826      1.057
REMARK  Name = 
REMARK  4 active torsions:
REMARK  status: ('A' for Active; 'I' for Inactive)
REMARK    1  A    between atoms: C_1  and  N_2
REMARK    2  A    between atoms: C_4  and  N_5
REMARK    3  A    between atoms: C_8  and  N_9
REMARK    4  A    between atoms: C_10  and  C_12
REMARK                            x       y       z     vdW  Elec       q    Type
REMARK                         _______ _______ _______ _____ _____    ______ ____
ROOT
ATOM      1  N   UNL     1       1.196  10.223  19.354  0.00  0.00    +0.000 N 
ATOM      2  C   UNL     1       1.852  10.348  18.074  0.00  0.00    +0.000 C 
ATOM      3  C   UNL     1       2.128   8.923  17.645  0.00  0.00    +0.000 C 
ATOM      4  C   UNL     1       2.324   8.185  18.963  0.00  0.00    +0.000 C 
ATOM      5  C   UNL     1       1.406   8.953  19.914  0.00  0.00    +0.000 C 
ATOM      6  O   UNL     1       0.976   8.489  20.961  0.00  0.00    +0.000 OA
ENDROOT
BRANCH   1  10
ATOM      7  C   UNL     1      -0.068  14.111  22.071  0.00  0.00    +0.000 C 
ATOM      8  N   UNL     1      -0.098  12.976  21.182  0.00  0.00    +0.000 N 
ATOM      9  C   UNL     1       0.969  12.228  20.787  0.00  0.00    +0.000 A 
ATOM     10  C   UNL     1       0.477  11.232  19.978  0.00  0.00    +0.000 A 
ATOM     11  C   UNL     1      -0.915  11.490  19.938  0.00  0.00    +0.000 A 
ATOM     12  N   UNL     1      -1.269  12.550  20.673  0.00  0.00    +0.000 NA
ENDBRANCH   1  10
BRANCH   4  13
ATOM     13  N   UNL     1       1.962   6.782  18.906  0.00  0.00    +0.000 N 
ATOM     14  C   UNL     1       2.907   5.793  19.074  0.00  0.00    +0.000 C 
ATOM     15  O   UNL     1       4.082   6.066  19.283  0.00  0.00    +0.000 OA
ATOM     16  H   UNL     1       0.986   6.552  18.743  0.00  0.00    +0.000 HD
BRANCH  14  17
ATOM     17  C   UNL     1       2.453   4.381  18.948  0.00  0.00    +0.000 A 
ATOM     18  C   UNL     1       1.486   3.879  19.826  0.00  0.00    +0.000 A 
ATOM     19  F   UNL     1       1.002   4.631  20.828  0.00  0.00    +0.000 F 
ATOM     20  C   UNL     1       0.976   2.587  19.695  0.00  0.00    +0.000 A 
ATOM     21  C   UNL     1       1.426   1.768  18.666  0.00  0.00    +0.000 A 
ATOM     22  C   UNL     1       2.396   2.244  17.786  0.00  0.00    +0.000 A 
ATOM     23  C   UNL     1       2.915   3.541  17.922  0.00  0.00    +0.000 A 
ATOM     24 CL   UNL     1       4.158   3.975  16.800  0.00  0.00    +0.000 Cl
ENDBRANCH  14  17
ENDBRANCH   4  13
TORSDOF 3
ENDMDL
MODEL 5
REMARK VINA RESULT:      -6.8      1.841      2.096
REMARK  Name = 
REMARK  4 active torsions:
REMARK  status: ('A' for Active; 'I' for Inactive)
REMARK    1  A    between atoms: C_1  and  N_2
REMARK    2  A    between atoms: C_4  and  N_5
REMARK    3  A    between atoms: C_8  and  N_9
REMARK    4  A    between atoms: C_10  and  C_12
REMARK                            x       y       z     vdW  Elec       q    Type
REMARK                         _______ _______ _______ _____ _____    ______ ____
ROOT
ATOM      1  N   UNL     1       1.013   9.827  19.390  0.00  0.00    +0.000 N 
ATOM      2  C   UNL     1       1.616  10.045  18.096  0.00  0.00    +0.000 C 
ATOM      3  C   UNL     1       2.101   8.678  17.666  0.00  0.00    +0.000 C 
ATOM      4  C   UNL     1       2.436   7.988  18.981  0.00  0.00    +0.000 C 
ATOM      5  C   UNL     1       1.430   8.609  19.949  0.00  0.00    +0.000 C 
ATOM      6  O   UNL     1       1.099   8.090  21.007  0.00  0.00    +0.000 OA
ENDROOT
BRANCH   1  10
ATOM      7  C   UNL     1      -2.840  12.639  20.546  0.00  0.00    +0.000 C 
ATOM      8  N   UNL     1      -1.563  11.971  20.558  0.00  0.00    +0.000 N 
ATOM      9  C   UNL     1      -1.119  11.059  19.650  0.00  0.00    +0.000 A 
ATOM     10  C   UNL     1       0.158  10.716  20.026  0.00  0.00    +0.000 A 
ATOM     11  C   UNL     1       0.378  11.477  21.200  0.00  0.00    +0.000 A 
ATOM     12  N   UNL     1      -0.668  12.244  21.526  0.00  0.00    +0.000 NA
ENDBRANCH   1  10
BRANCH   4  13
ATOM     13  N   UNL     1       2.297   6.544  18.936  0.00  0.00    +0.000 N 
ATOM     14  C   UNL     1       3.402   5.721  18.894  0.00  0.00    +0.000 C 
ATOM     15  O   UNL     1       4.536   6.179  18.900  0.00  0.00    +0.000 OA
ATOM     16  H   UNL     1       1.356   6.161  18.942  0.00  0.00    +0.000 HD
BRANCH  14  17
ATOM     17  C   UNL     1       3.161   4.255  18.797  0.00  0.00    +0.000 A 
ATOM     18  C   UNL     1       3.497   3.570  17.624  0.00  0.00    +0.000 A 
ATOM     19  F   UNL     1       3.979   4.222  16.554  0.00  0.00    +0.000 F 
ATOM     20  C   UNL     1       3.360   2.186  17.519  0.00  0.00    +0.000 A 
ATOM     21  C   UNL     1       2.883   1.454  18.600  0.00  0.00    +0.000 A 
ATOM     22  C   UNL     1       2.532   2.117  19.775  0.00  0.00    +0.000 A 
ATOM     23  C   UNL     1       2.663   3.511  19.879  0.00  0.00    +0.000 A 
ATOM     24 CL   UNL     1       2.130   4.206  21.371  0.00  0.00    +0.000 Cl
ENDBRANCH  14  17
ENDBRANCH   4  13
TORSDOF 3
ENDMDL
MODEL 6
REMARK VINA RESULT:      -6.7      2.999      3.816
REMARK  Name = 
REMARK  4 active torsions:
REMARK  status: ('A' for Active; 'I' for Inactive)
REMARK    1  A    between atoms: C_1  and  N_2
REMARK    2  A    between atoms: C_4  and  N_5
REMARK    3  A    between atoms: C_8  and  N_9
REMARK    4  A    between atoms: C_10  and  C_12
REMARK                            x       y       z     vdW  Elec       q    Type
REMARK                         _______ _______ _______ _____ _____    ______ ____
ROOT
ATOM      1  N   UNL     1       0.994   9.786  19.521  0.00  0.00    +0.000 N 
ATOM      2  C   UNL     1       0.822   8.899  20.646  0.00  0.00    +0.000 C 
ATOM      3  C   UNL     1       1.834   7.797  20.423  0.00  0.00    +0.000 C 
ATOM      4  C   UNL     1       1.939   7.711  18.906  0.00  0.00    +0.000 C 
ATOM      5  C   UNL     1       1.681   9.154  18.472  0.00  0.00    +0.000 C 
ATOM      6  O   UNL     1       2.029   9.607  17.391  0.00  0.00    +0.000 OA
ENDROOT
BRANCH   1  10
ATOM      7  C   UNL     1       0.535  14.656  19.924  0.00  0.00    +0.000 C 
ATOM      8  N   UNL     1       0.303  13.266  19.622  0.00  0.00    +0.000 N 
ATOM      9  C   UNL     1       1.156  12.232  19.865  0.00  0.00    +0.000 A 
ATOM     10  C   UNL     1       0.516  11.087  19.455  0.00  0.00    +0.000 A 
ATOM     11  C   UNL     1      -0.725  11.555  18.958  0.00  0.00    +0.000 A 
ATOM     12  N   UNL     1      -0.858  12.882  19.061  0.00  0.00    +0.000 NA
ENDBRANCH   1  10
BRANCH   4  13
ATOM     13  N   UNL     1       3.229   7.245  18.436  0.00  0.00    +0.000 N 
ATOM     14  C   UNL     1       3.384   5.981  17.908  0.00  0.00    +0.000 C 
ATOM     15  O   UNL     1       2.438   5.211  17.815  0.00  0.00    +0.000 OA
ATOM     16  H   UNL     1       4.015   7.886  18.502  0.00  0.00    +0.000 HD
BRANCH  14  17
ATOM     17  C   UNL     1       4.756   5.572  17.499  0.00  0.00    +0.000 A 
ATOM     18  C   UNL     1       5.343   6.142  16.363  0.00  0.00    +0.000 A 
ATOM     19  F   UNL     1       4.666   7.010  15.594  0.00  0.00    +0.000 F 
ATOM     20  C   UNL     1       6.654   5.845  15.989  0.00  0.00    +0.000 A 
ATOM     21  C   UNL     1       7.410   4.967  16.756  0.00  0.00    +0.000 A 
ATOM     22  C   UNL     1       6.842   4.380  17.885  0.00  0.00    +0.000 A 
ATOM     23  C   UNL     1       5.521   4.672  18.259  0.00  0.00    +0.000 A 
ATOM     24 CL   UNL     1       4.926   3.823  19.644  0.00  0.00    +0.000 Cl
ENDBRANCH  14  17
ENDBRANCH   4  13
TORSDOF 3
ENDMDL
MODEL 7
REMARK VINA RESULT:      -6.6      3.770      8.213
REMARK  Name = 
REMARK  4 active torsions:
REMARK  status: ('A' for Active; 'I' for Inactive)
REMARK    1  A    between atoms: C_1  and  N_2
REMARK    2  A    between atoms: C_4  and  N_5
REMARK    3  A    between atoms: C_8  and  N_9
REMARK    4  A    between atoms: C_10  and  C_12
REMARK                            x       y       z     vdW  Elec       q    Type
REMARK                         _______ _______ _______ _____ _____    ______ ____
ROOT
ATOM      1  N   UNL     1       4.440   5.205  16.940  0.00  0.00    +0.000 N 
ATOM      2  C   UNL     1       3.398   4.310  17.384  0.00  0.00    +0.000 C 
ATOM      3  C   UNL     1       2.402   5.203  18.090  0.00  0.00    +0.000 C 
ATOM      4  C   UNL     1       3.265   6.322  18.657  0.00  0.00    +0.000 C 
ATOM      5  C   UNL     1       4.391   6.427  17.629  0.00  0.00    +0.000 C 
ATOM      6  O   UNL     1       5.091   7.422  17.492  0.00  0.00    +0.000 OA
ENDROOT
BRANCH   1  10
ATOM      7  C   UNL     1       6.666   3.844  12.783  0.00  0.00    +0.000 C 
ATOM      8  N   UNL     1       6.402   4.299  14.125  0.00  0.00    +0.000 N 
ATOM      9  C   UNL     1       5.177   4.506  14.683  0.00  0.00    +0.000 A 
ATOM     10  C   UNL     1       5.395   4.897  15.983  0.00  0.00    +0.000 A 
ATOM     11  C   UNL     1       6.807   4.910  16.097  0.00  0.00    +0.000 A 
ATOM     12  N   UNL     1       7.423   4.544  14.967  0.00  0.00    +0.000 NA
ENDBRANCH   1  10
BRANCH   4  13
ATOM     13  N   UNL     1       2.565   7.585  18.799  0.00  0.00    +0.000 N 
ATOM     14  C   UNL     1       1.748   7.832  19.881  0.00  0.00    +0.000 C 
ATOM     15  O   UNL     1       1.589   6.997  20.760  0.00  0.00    +0.000 OA
ATOM     16  H   UNL     1       2.704   8.284  18.075  0.00  0.00    +0.000 HD
BRANCH  14  17
ATOM     17  C   UNL     1       1.031   9.136  19.915  0.00  0.00    +0.000 A 
ATOM     18  C   UNL     1       0.596   9.724  18.721  0.00  0.00    +0.000 A 
ATOM     19  F   UNL     1       0.870   9.162  17.532  0.00  0.00    +0.000 F 
ATOM     20  C   UNL     1      -0.146  10.905  18.713  0.00  0.00    +0.000 A 
ATOM     21  C   UNL     1      -0.475  11.522  19.914  0.00  0.00    +0.000 A 
ATOM     22  C   UNL     1      -0.044  10.960  21.114  0.00  0.00    +0.000 A 
ATOM     23  C   UNL     1       0.709   9.776  21.123  0.00  0.00    +0.000 A 
ATOM     24 CL   UNL     1       1.231   9.228  22.679  0.00  0.00    +0.000 Cl
ENDBRANCH  14  17
ENDBRANCH   4  13
TORSDOF 3
ENDMDL
MODEL 8
REMARK VINA RESULT:      -6.6      2.931      3.683
REMARK  Name = 
REMARK  4 active torsions:
REMARK  status: ('A' for Active; 'I' for Inactive)
REMARK    1  A    between atoms: C_1  and  N_2
REMARK    2  A    between atoms: C_4  and  N_5
REMARK    3  A    between atoms: C_8  and  N_9
REMARK    4  A    between atoms: C_10  and  C_12
REMARK                            x       y       z     vdW  Elec       q    Type
REMARK                         _______ _______ _______ _____ _____    ______ ____
ROOT
ATOM      1  N   UNL     1       0.891   9.776  19.318  0.00  0.00    +0.000 N 
ATOM      2  C   UNL     1       0.699   9.000  20.519  0.00  0.00    +0.000 C 
ATOM      3  C   UNL     1       1.774   7.937  20.464  0.00  0.00    +0.000 C 
ATOM      4  C   UNL     1       1.968   7.703  18.972  0.00  0.00    +0.000 C 
ATOM      5  C   UNL     1       1.665   9.079  18.377  0.00  0.00    +0.000 C 
ATOM      6  O   UNL     1       2.051   9.438  17.273  0.00  0.00    +0.000 OA
ENDROOT
BRANCH   1  10
ATOM      7  C   UNL     1       0.217  14.633  19.100  0.00  0.00    +0.000 C 
ATOM      8  N   UNL     1       0.045  13.206  18.982  0.00  0.00    +0.000 N 
ATOM      9  C   UNL     1       0.946  12.251  19.343  0.00  0.00    +0.000 A 
ATOM     10  C   UNL     1       0.354  11.035  19.093  0.00  0.00    +0.000 A 
ATOM     11  C   UNL     1      -0.911  11.382  18.557  0.00  0.00    +0.000 A 
ATOM     12  N   UNL     1      -1.102  12.704  18.490  0.00  0.00    +0.000 NA
ENDBRANCH   1  10
BRANCH   4  13
ATOM     13  N   UNL     1       3.304   7.263  18.619  0.00  0.00    +0.000 N 
ATOM     14  C   UNL     1       3.516   6.054  17.991  0.00  0.00    +0.000 C 
ATOM     15  O   UNL     1       2.584   5.314  17.708  0.00  0.00    +0.000 OA
ATOM     16  H   UNL     1       4.079   7.880  18.844  0.00  0.00    +0.000 HD
BRANCH  14  17
ATOM     17  C   UNL     1       4.925   5.662  17.714  0.00  0.00    +0.000 A 
ATOM     18  C   UNL     1       5.646   4.932  18.667  0.00  0.00    +0.000 A 
ATOM     19  F   UNL     1       5.109   4.629  19.859  0.00  0.00    +0.000 F 
ATOM     20  C   UNL     1       6.941   4.479  18.417  0.00  0.00    +0.000 A 
ATOM     21  C   UNL     1       7.543   4.747  17.193  0.00  0.00    +0.000 A 
ATOM     22  C   UNL     1       6.848   5.481  16.234  0.00  0.00    +0.000 A 
ATOM     23  C   UNL     1       5.547   5.944  16.487  0.00  0.00    +0.000 A 
ATOM     24 CL   UNL     1       4.830   6.896  15.233  0.00  0.00    +0.000 Cl
ENDBRANCH  14  17
ENDBRANCH   4  13
TORSDOF 3
ENDMDL
MODEL 9
REMARK VINA RESULT:      -6.5      3.313      7.965
REMARK  Name = 
REMARK  4 active torsions:
REMARK  status: ('A' for Active; 'I' for Inactive)
REMARK    1  A    between atoms: C_1  and  N_2
REMARK    2  A    between atoms: C_4  and  N_5
REMARK    3  A    between atoms: C_8  and  N_9
REMARK    4  A    between atoms: C_10  and  C_12
REMARK                            x       y       z     vdW  Elec       q    Type
REMARK                         _______ _______ _______ _____ _____    ______ ____
ROOT
ATOM      1  N   UNL     1       3.081   6.777  18.732  0.00  0.00    +0.000 N 
ATOM      2  C   UNL     1       3.206   7.564  17.528  0.00  0.00    +0.000 C 
ATOM      3  C   UNL     1       2.539   8.881  17.862  0.00  0.00    +0.000 C 
ATOM      4  C   UNL     1       1.462   8.491  18.866  0.00  0.00    +0.000 C 
ATOM      5  C   UNL     1       2.091   7.296  19.581  0.00  0.00    +0.000 C 
ATOM      6  O   UNL     1       1.742   6.910  20.688  0.00  0.00    +0.000 OA
ENDROOT
BRANCH   1  10
ATOM      7  C   UNL     1       4.376   2.172  19.833  0.00  0.00    +0.000 C 
ATOM      8  N   UNL     1       4.404   3.573  19.493  0.00  0.00    +0.000 N 
ATOM      9  C   UNL     1       3.326   4.370  19.258  0.00  0.00    +0.000 A 
ATOM     10  C   UNL     1       3.813   5.632  19.010  0.00  0.00    +0.000 A 
ATOM     11  C   UNL     1       5.218   5.473  19.104  0.00  0.00    +0.000 A 
ATOM     12  N   UNL     1       5.581   4.221  19.400  0.00  0.00    +0.000 NA
ENDBRANCH   1  10
BRANCH   4  13
ATOM     13  N   UNL     1       1.128   9.547  19.803  0.00  0.00    +0.000 N 
ATOM     14  C   UNL     1      -0.086  10.196  19.745  0.00  0.00    +0.000 C 
ATOM     15  O   UNL     1      -0.924   9.901  18.904  0.00  0.00    +0.000 OA
ATOM     16  H   UNL     1       1.819   9.787  20.508  0.00  0.00    +0.000 HD
BRANCH  14  17
ATOM     17  C   UNL     1      -0.320  11.301  20.714  0.00  0.00    +0.000 A 
ATOM     18  C   UNL     1      -0.279  12.631  20.279  0.00  0.00    +0.000 A 
ATOM     19  F   UNL     1       0.031  12.935  19.009  0.00  0.00    +0.000 F 
ATOM     20  C   UNL     1      -0.567  13.692  21.137  0.00  0.00    +0.000 A 
ATOM     21  C   UNL     1      -0.912  13.438  22.459  0.00  0.00    +0.000 A 
ATOM     22  C   UNL     1      -0.949  12.122  22.917  0.00  0.00    +0.000 A 
ATOM     23  C   UNL     1      -0.652  11.054  22.057  0.00  0.00    +0.000 A 
ATOM     24 CL   UNL     1      -0.674   9.480  22.775  0.00  0.00    +0.000 Cl
ENDBRANCH  14  17
ENDBRANCH   4  13
TORSDOF 3
ENDMDL
