MODEL 1
REMARK VINA RESULT:      -7.9      0.000      0.000
REMARK  Name = 
REMARK  10 active torsions:
REMARK  status: ('A' for Active; 'I' for Inactive)
REMARK    1  A    between atoms: C_1  and  N_2
REMARK    2  A    between atoms: C_4  and  C_5
REMARK    3  A    between atoms: C_5  and  N_6
REMARK    4  A    between atoms: N_6  and  C_7
REMARK    5  A    between atoms: C_9  and  O_10
REMARK    6  A    between atoms: O_10  and  C_11
REMARK    7  A    between atoms: C_11  and  C_12
REMARK    8  A    between atoms: C_14  and  C_15
REMARK    9  A    between atoms: N_18  and  C_19
REMARK   10  A    between atoms: N_22  and  C_23
REMARK                            x       y       z     vdW  Elec       q    Type
REMARK                         _______ _______ _______ _____ _____    ______ ____
ROOT
ATOM      1  C   UNL     1       6.228   4.631  18.061  0.00  0.00    +0.000 A 
ATOM      2  C   UNL     1       6.814   5.729  18.546  0.00  0.00    +0.000 A 
ATOM      3  C   UNL     1       7.455   6.618  17.580  0.00  0.00    +0.000 A 
ATOM      4  N   UNL     1       7.562   6.443  16.307  0.00  0.00    +0.000 NA
ATOM      5  N   UNL     1       7.004   5.286  15.806  0.00  0.00    +0.000 N 
ATOM      6  C   UNL     1       7.096   5.079  14.375  0.00  0.00    +0.000 C 
ATOM      7  C   UNL     1       6.318   4.354  16.575  0.00  0.00    +0.000 A 
ATOM      8  O   UNL     1       5.780   3.341  16.127  0.00  0.00    +0.000 OA
ENDROOT
BRANCH   1   9
ATOM      9  N   UNL     1       5.544   3.692  18.847  0.00  0.00    +0.000 N 
ATOM     10  H   UNL     1       5.950   2.773  18.620  0.00  0.00    +0.000 HD
BRANCH   9  11
ATOM     11  C   UNL     1       4.097   3.529  18.656  0.00  0.00    +0.000 C 
BRANCH  11  15
ATOM     12  C   UNL     1       1.778   7.692  20.259  0.00  0.00    +0.000 C 
ATOM     13  N   UNL     1       2.248   6.339  20.098  0.00  0.00    +0.000 N 
ATOM     14  C   UNL     1       3.105   5.870  19.142  0.00  0.00    +0.000 A 
ATOM     15  C   UNL     1       3.266   4.520  19.394  0.00  0.00    +0.000 A 
ATOM     16  C   UNL     1       2.447   4.285  20.520  0.00  0.00    +0.000 A 
ATOM     17  N   UNL     1       1.841   5.389  20.960  0.00  0.00    +0.000 NA
ENDBRANCH  11  15
ENDBRANCH   9  11
ENDBRANCH   1   9
BRANCH   3  18
ATOM     18  O   UNL     1       7.918   7.706  18.236  0.00  0.00    +0.000 OA
BRANCH  18  19
ATOM     19  C   UNL     1       8.214   8.861  17.442  0.00  0.00    +0.000 C 
BRANCH  19  20
ATOM     20  C   UNL     1       8.383  10.023  18.367  0.00  0.00    +0.000 C 
ATOM     21  C   UNL     1       9.310   9.978  19.540  0.00  0.00    +0.000 C 
ATOM     22  C   UNL     1       9.675  10.822  18.335  0.00  0.00    +0.000 C 
BRANCH  22  23
ATOM     23  C   UNL     1       9.573  12.335  18.421  0.00  0.00    +0.000 A 
ATOM     24  C   UNL     1      10.100  13.204  17.445  0.00  0.00    +0.000 A 
ATOM     25  C   UNL     1       9.793  14.465  17.904  0.00  0.00    +0.000 A 
ATOM     26  N   UNL     1       9.147  14.285  19.092  0.00  0.00    +0.000 N 
ATOM     27  C   UNL     1       8.697  15.311  20.001  0.00  0.00    +0.000 C 
ATOM     28  N   UNL     1       8.971  12.993  19.416  0.00  0.00    +0.000 NA
ENDBRANCH  22  23
ENDBRANCH  19  20
ENDBRANCH  18  19
ENDBRANCH   3  18
TORSDOF 7
ENDMDL
MODEL 2
REMARK VINA RESULT:      -7.8      4.481      6.941
REMARK  Name = 
REMARK  10 active torsions:
REMARK  status: ('A' for Active; 'I' for Inactive)
REMARK    1  A    between atoms: C_1  and  N_2
REMARK    2  A    between atoms: C_4  and  C_5
REMARK    3  A    between atoms: C_5  and  N_6
REMARK    4  A    between atoms: N_6  and  C_7
REMARK    5  A    between atoms: C_9  and  O_10
REMARK    6  A    between atoms: O_10  and  C_11
REMARK    7  A    between atoms: C_11  and  C_12
REMARK    8  A    between atoms: C_14  and  C_15
REMARK    9  A    between atoms: N_18  and  C_19
REMARK   10  A    between atoms: N_22  and  C_23
REMARK                            x       y       z     vdW  Elec       q    Type
REMARK                         _______ _______ _______ _____ _____    ______ ____
ROOT
ATOM      1  C   UNL     1       2.614   5.215  20.200  0.00  0.00    +0.000 A 
ATOM      2  C   UNL     1       3.938   5.110  20.050  0.00  0.00    +0.000 A 
ATOM      3  C   UNL     1       4.438   3.885  19.432  0.00  0.00    +0.000 A 
ATOM      4  N   UNL     1       3.750   2.863  19.052  0.00  0.00    +0.000 NA
ATOM      5  N   UNL     1       2.387   2.943  19.251  0.00  0.00    +0.000 N 
ATOM      6  C   UNL     1       1.593   1.814  18.813  0.00  0.00    +0.000 C 
ATOM      7  C   UNL     1       1.740   4.052  19.784  0.00  0.00    +0.000 A 
ATOM      8  O   UNL     1       0.520   4.145  19.924  0.00  0.00    +0.000 OA
ENDROOT
BRANCH   1   9
ATOM      9  N   UNL     1       1.971   6.336  20.747  0.00  0.00    +0.000 N 
ATOM     10  H   UNL     1       0.983   6.072  20.872  0.00  0.00    +0.000 HD
BRANCH   9  11
ATOM     11  C   UNL     1       1.939   7.581  19.970  0.00  0.00    +0.000 C 
BRANCH  11  15
ATOM     12  C   UNL     1      -0.846  10.421  23.045  0.00  0.00    +0.000 C 
ATOM     13  N   UNL     1      -0.100   9.910  21.923  0.00  0.00    +0.000 N 
ATOM     14  C   UNL     1       0.562   8.717  21.845  0.00  0.00    +0.000 A 
ATOM     15  C   UNL     1       1.118   8.664  20.580  0.00  0.00    +0.000 A 
ATOM     16  C   UNL     1       0.735   9.887  19.989  0.00  0.00    +0.000 A 
ATOM     17  N   UNL     1      -0.017  10.639  20.795  0.00  0.00    +0.000 NA
ENDBRANCH  11  15
ENDBRANCH   9  11
ENDBRANCH   1   9
BRANCH   3  18
ATOM     18  O   UNL     1       5.778   3.991  19.288  0.00  0.00    +0.000 OA
BRANCH  18  19
ATOM     19  C   UNL     1       6.315   5.317  19.196  0.00  0.00    +0.000 C 
BRANCH  19  20
ATOM     20  C   UNL     1       6.239   5.743  17.766  0.00  0.00    +0.000 C 
ATOM     21  C   UNL     1       7.134   6.802  17.202  0.00  0.00    +0.000 C 
ATOM     22  C   UNL     1       7.354   5.354  16.808  0.00  0.00    +0.000 C 
BRANCH  22  23
ATOM     23  C   UNL     1       6.961   4.887  15.418  0.00  0.00    +0.000 A 
ATOM     24  C   UNL     1       5.873   4.028  15.167  0.00  0.00    +0.000 A 
ATOM     25  C   UNL     1       5.872   3.862  13.801  0.00  0.00    +0.000 A 
ATOM     26  N   UNL     1       6.931   4.583  13.334  0.00  0.00    +0.000 N 
ATOM     27  C   UNL     1       7.399   4.659  11.971  0.00  0.00    +0.000 C 
ATOM     28  N   UNL     1       7.595   5.245  14.297  0.00  0.00    +0.000 NA
ENDBRANCH  22  23
ENDBRANCH  19  20
ENDBRANCH  18  19
ENDBRANCH   3  18
TORSDOF 7
ENDMDL
MODEL 3
REMARK VINA RESULT:      -7.8      5.091      7.669
REMARK  Name = 
REMARK  10 active torsions:
REMARK  status: ('A' for Active; 'I' for Inactive)
REMARK    1  A    between atoms: C_1  and  N_2
REMARK    2  A    between atoms: C_4  and  C_5
REMARK    3  A    between atoms: C_5  and  N_6
REMARK    4  A    between atoms: N_6  and  C_7
REMARK    5  A    between atoms: C_9  and  O_10
REMARK    6  A    between atoms: O_10  and  C_11
REMARK    7  A    between atoms: C_11  and  C_12
REMARK    8  A    between atoms: C_14  and  C_15
REMARK    9  A    between atoms: N_18  and  C_19
REMARK   10  A    between atoms: N_22  and  C_23
REMARK                            x       y       z     vdW  Elec       q    Type
REMARK                         _______ _______ _______ _____ _____    ______ ____
ROOT
ATOM      1  C   UNL     1       3.918   4.086  19.488  0.00  0.00    +0.000 A 
ATOM      2  C   UNL     1       3.360   5.148  20.076  0.00  0.00    +0.000 A 
ATOM      3  C   UNL     1       1.908   5.130  20.234  0.00  0.00    +0.000 A 
ATOM      4  N   UNL     1       1.088   4.222  19.827  0.00  0.00    +0.000 NA
ATOM      5  N   UNL     1       1.652   3.147  19.173  0.00  0.00    +0.000 N 
ATOM      6  C   UNL     1       0.751   2.105  18.725  0.00  0.00    +0.000 C 
ATOM      7  C   UNL     1       3.018   2.981  18.976  0.00  0.00    +0.000 A 
ATOM      8  O   UNL     1       3.530   2.003  18.431  0.00  0.00    +0.000 OA
ENDROOT
BRANCH   1   9
ATOM      9  N   UNL     1       5.297   3.932  19.287  0.00  0.00    +0.000 N 
ATOM     10  H   UNL     1       5.708   3.752  20.214  0.00  0.00    +0.000 HD
BRANCH   9  11
ATOM     11  C   UNL     1       6.063   5.061  18.742  0.00  0.00    +0.000 C 
BRANCH  11  15
ATOM     12  C   UNL     1       6.583   4.385  13.788  0.00  0.00    +0.000 C 
ATOM     13  N   UNL     1       6.228   4.889  15.091  0.00  0.00    +0.000 N 
ATOM     14  C   UNL     1       6.556   4.350  16.303  0.00  0.00    +0.000 A 
ATOM     15  C   UNL     1       6.004   5.182  17.259  0.00  0.00    +0.000 A 
ATOM     16  C   UNL     1       5.356   6.184  16.505  0.00  0.00    +0.000 A 
ATOM     17  N   UNL     1       5.504   6.019  15.189  0.00  0.00    +0.000 NA
ENDBRANCH  11  15
ENDBRANCH   9  11
ENDBRANCH   1   9
BRANCH   3  18
ATOM     18  O   UNL     1       1.535   6.236  20.916  0.00  0.00    +0.000 OA
BRANCH  18  19
ATOM     19  C   UNL     1       1.884   7.500  20.338  0.00  0.00    +0.000 C 
BRANCH  19  20
ATOM     20  C   UNL     1       0.830   8.487  20.723  0.00  0.00    +0.000 C 
ATOM     21  C   UNL     1       1.097   9.603  21.683  0.00  0.00    +0.000 C 
ATOM     22  C   UNL     1       0.920   9.915  20.210  0.00  0.00    +0.000 C 
BRANCH  22  23
ATOM     23  C   UNL     1      -0.361  10.577  19.732  0.00  0.00    +0.000 A 
ATOM     24  C   UNL     1      -0.888  10.401  18.438  0.00  0.00    +0.000 A 
ATOM     25  C   UNL     1      -2.034  11.163  18.425  0.00  0.00    +0.000 A 
ATOM     26  N   UNL     1      -2.111  11.746  19.656  0.00  0.00    +0.000 N 
ATOM     27  C   UNL     1      -3.093  12.703  20.105  0.00  0.00    +0.000 C 
ATOM     28  N   UNL     1      -1.118  11.380  20.485  0.00  0.00    +0.000 NA
ENDBRANCH  22  23
ENDBRANCH  19  20
ENDBRANCH  18  19
ENDBRANCH   3  18
TORSDOF 7
ENDMDL
MODEL 4
REMARK VINA RESULT:      -7.7      5.099      7.709
REMARK  Name = 
REMARK  10 active torsions:
REMARK  status: ('A' for Active; 'I' for Inactive)
REMARK    1  A    between atoms: C_1  and  N_2
REMARK    2  A    between atoms: C_4  and  C_5
REMARK    3  A    between atoms: C_5  and  N_6
REMARK    4  A    between atoms: N_6  and  C_7
REMARK    5  A    between atoms: C_9  and  O_10
REMARK    6  A    between atoms: O_10  and  C_11
REMARK    7  A    between atoms: C_11  and  C_12
REMARK    8  A    between atoms: C_14  and  C_15
REMARK    9  A    between atoms: N_18  and  C_19
REMARK   10  A    between atoms: N_22  and  C_23
REMARK                            x       y       z     vdW  Elec       q    Type
REMARK                         _______ _______ _______ _____ _____    ______ ____
ROOT
ATOM      1  C   UNL     1       4.136   4.221  18.943  0.00  0.00    +0.000 A 
ATOM      2  C   UNL     1       3.932   5.536  19.065  0.00  0.00    +0.000 A 
ATOM      3  C   UNL     1       2.667   5.957  19.661  0.00  0.00    +0.000 A 
ATOM      4  N   UNL     1       1.695   5.203  20.048  0.00  0.00    +0.000 NA
ATOM      5  N   UNL     1       1.877   3.846  19.878  0.00  0.00    +0.000 N 
ATOM      6  C   UNL     1       0.806   2.980  20.324  0.00  0.00    +0.000 C 
ATOM      7  C   UNL     1       3.036   3.272  19.369  0.00  0.00    +0.000 A 
ATOM      8  O   UNL     1       3.220   2.060  19.255  0.00  0.00    +0.000 OA
ENDROOT
BRANCH   1   9
ATOM      9  N   UNL     1       5.306   3.651  18.420  0.00  0.00    +0.000 N 
ATOM     10  H   UNL     1       5.716   3.084  19.176  0.00  0.00    +0.000 HD
BRANCH   9  11
ATOM     11  C   UNL     1       6.388   4.539  17.978  0.00  0.00    +0.000 C 
BRANCH  11  15
ATOM     12  C   UNL     1       6.221   3.657  13.031  0.00  0.00    +0.000 C 
ATOM     13  N   UNL     1       6.524   4.185  14.338  0.00  0.00    +0.000 N 
ATOM     14  C   UNL     1       6.003   3.778  15.534  0.00  0.00    +0.000 A 
ATOM     15  C   UNL     1       6.595   4.566  16.503  0.00  0.00    +0.000 A 
ATOM     16  C   UNL     1       7.447   5.422  15.771  0.00  0.00    +0.000 A 
ATOM     17  N   UNL     1       7.419   5.182  14.459  0.00  0.00    +0.000 NA
ENDBRANCH  11  15
ENDBRANCH   9  11
ENDBRANCH   1   9
BRANCH   3  18
ATOM     18  O   UNL     1       2.672   7.304  19.778  0.00  0.00    +0.000 OA
BRANCH  18  19
ATOM     19  C   UNL     1       2.086   8.047  18.702  0.00  0.00    +0.000 C 
BRANCH  19  20
ATOM     20  C   UNL     1       1.491   9.292  19.275  0.00  0.00    +0.000 C 
ATOM     21  C   UNL     1       0.466  10.097  18.541  0.00  0.00    +0.000 C 
ATOM     22  C   UNL     1       0.047   9.283  19.750  0.00  0.00    +0.000 C 
BRANCH  22  23
ATOM     23  C   UNL     1      -0.273   9.990  21.055  0.00  0.00    +0.000 A 
ATOM     24  C   UNL     1      -0.345   9.330  22.297  0.00  0.00    +0.000 A 
ATOM     25  C   UNL     1      -0.654  10.322  23.199  0.00  0.00    +0.000 A 
ATOM     26  N   UNL     1      -0.768  11.469  22.470  0.00  0.00    +0.000 N 
ATOM     27  C   UNL     1      -1.161  12.770  22.953  0.00  0.00    +0.000 C 
ATOM     28  N   UNL     1      -0.508  11.301  21.162  0.00  0.00    +0.000 NA
ENDBRANCH  22  23
ENDBRANCH  19  20
ENDBRANCH  18  19
ENDBRANCH   3  18
TORSDOF 7
ENDMDL
MODEL 5
REMARK VINA RESULT:      -7.7      5.145      7.879
REMARK  Name = 
REMARK  10 active torsions:
REMARK  status: ('A' for Active; 'I' for Inactive)
REMARK    1  A    between atoms: C_1  and  N_2
REMARK    2  A    between atoms: C_4  and  C_5
REMARK    3  A    between atoms: C_5  and  N_6
REMARK    4  A    between atoms: N_6  and  C_7
REMARK    5  A    between atoms: C_9  and  O_10
REMARK    6  A    between atoms: O_10  and  C_11
REMARK    7  A    between atoms: C_11  and  C_12
REMARK    8  A    between atoms: C_14  and  C_15
REMARK    9  A    between atoms: N_18  and  C_19
REMARK   10  A    between atoms: N_22  and  C_23
REMARK                            x       y       z     vdW  Elec       q    Type
REMARK                         _______ _______ _______ _____ _____    ______ ____
ROOT
ATOM      1  C   UNL     1       3.963   4.388  19.061  0.00  0.00    +0.000 A 
ATOM      2  C   UNL     1       3.458   5.625  19.064  0.00  0.00    +0.000 A 
ATOM      3  C   UNL     1       2.352   5.886  19.982  0.00  0.00    +0.000 A 
ATOM      4  N   UNL     1       1.770   5.043  20.765  0.00  0.00    +0.000 NA
ATOM      5  N   UNL     1       2.253   3.752  20.730  0.00  0.00    +0.000 N 
ATOM      6  C   UNL     1       1.626   2.793  21.617  0.00  0.00    +0.000 C 
ATOM      7  C   UNL     1       3.327   3.340  19.949  0.00  0.00    +0.000 A 
ATOM      8  O   UNL     1       3.788   2.199  19.946  0.00  0.00    +0.000 OA
ENDROOT
BRANCH   1   9
ATOM      9  N   UNL     1       5.042   3.981  18.263  0.00  0.00    +0.000 N 
ATOM     10  H   UNL     1       5.720   4.756  18.272  0.00  0.00    +0.000 HD
BRANCH   9  11
ATOM     11  C   UNL     1       4.803   3.697  16.843  0.00  0.00    +0.000 C 
BRANCH  11  15
ATOM     12  C   UNL     1       7.571   4.978  12.846  0.00  0.00    +0.000 C 
ATOM     13  N   UNL     1       7.029   4.847  14.175  0.00  0.00    +0.000 N 
ATOM     14  C   UNL     1       5.948   4.103  14.557  0.00  0.00    +0.000 A 
ATOM     15  C   UNL     1       5.816   4.283  15.921  0.00  0.00    +0.000 A 
ATOM     16  C   UNL     1       6.867   5.166  16.251  0.00  0.00    +0.000 A 
ATOM     17  N   UNL     1       7.615   5.498  15.197  0.00  0.00    +0.000 NA
ENDBRANCH  11  15
ENDBRANCH   9  11
ENDBRANCH   1   9
BRANCH   3  18
ATOM     18  O   UNL     1       2.030   7.197  19.907  0.00  0.00    +0.000 OA
BRANCH  18  19
ATOM     19  C   UNL     1       1.720   7.857  21.140  0.00  0.00    +0.000 C 
BRANCH  19  20
ATOM     20  C   UNL     1       0.457   8.631  20.942  0.00  0.00    +0.000 C 
ATOM     21  C   UNL     1      -0.276   9.264  22.081  0.00  0.00    +0.000 C 
ATOM     22  C   UNL     1       0.472  10.142  21.098  0.00  0.00    +0.000 C 
BRANCH  22  23
ATOM     23  C   UNL     1      -0.304  10.966  20.086  0.00  0.00    +0.000 A 
ATOM     24  C   UNL     1      -0.332  12.374  20.089  0.00  0.00    +0.000 A 
ATOM     25  C   UNL     1      -1.137  12.707  19.024  0.00  0.00    +0.000 A 
ATOM     26  N   UNL     1      -1.547  11.525  18.480  0.00  0.00    +0.000 N 
ATOM     27  C   UNL     1      -2.475  11.346  17.390  0.00  0.00    +0.000 C 
ATOM     28  N   UNL     1      -1.028  10.446  19.090  0.00  0.00    +0.000 NA
ENDBRANCH  22  23
ENDBRANCH  19  20
ENDBRANCH  18  19
ENDBRANCH   3  18
TORSDOF 7
ENDMDL
MODEL 6
REMARK VINA RESULT:      -7.6      5.057      7.160
REMARK  Name = 
REMARK  10 active torsions:
REMARK  status: ('A' for Active; 'I' for Inactive)
REMARK    1  A    between atoms: C_1  and  N_2
REMARK    2  A    between atoms: C_4  and  C_5
REMARK    3  A    between atoms: C_5  and  N_6
REMARK    4  A    between atoms: N_6  and  C_7
REMARK    5  A    between atoms: C_9  and  O_10
REMARK    6  A    between atoms: O_10  and  C_11
REMARK    7  A    between atoms: C_11  and  C_12
REMARK    8  A    between atoms: C_14  and  C_15
REMARK    9  A    between atoms: N_18  and  C_19
REMARK   10  A    between atoms: N_22  and  C_23
REMARK                            x       y       z     vdW  Elec       q    Type
REMARK                         _______ _______ _______ _____ _____    ______ ____
ROOT
ATOM      1  C   UNL     1       4.527   4.085  19.011  0.00  0.00    +0.000 A 
ATOM      2  C   UNL     1       4.078   5.332  19.176  0.00  0.00    +0.000 A 
ATOM      3  C   UNL     1       2.633   5.503  19.304  0.00  0.00    +0.000 A 
ATOM      4  N   UNL     1       1.728   4.588  19.231  0.00  0.00    +0.000 NA
ATOM      5  N   UNL     1       2.181   3.304  19.009  0.00  0.00    +0.000 N 
ATOM      6  C   UNL     1       1.182   2.258  18.942  0.00  0.00    +0.000 C 
ATOM      7  C   UNL     1       3.523   2.957  18.908  0.00  0.00    +0.000 A 
ATOM      8  O   UNL     1       3.935   1.807  18.753  0.00  0.00    +0.000 OA
ENDROOT
BRANCH   1   9
ATOM      9  N   UNL     1       5.884   3.745  18.902  0.00  0.00    +0.000 N 
ATOM     10  H   UNL     1       6.257   3.724  19.862  0.00  0.00    +0.000 HD
BRANCH   9  11
ATOM     11  C   UNL     1       6.780   4.643  18.163  0.00  0.00    +0.000 C 
BRANCH  11  15
ATOM     12  C   UNL     1       6.218   3.825  13.234  0.00  0.00    +0.000 C 
ATOM     13  N   UNL     1       6.222   4.405  14.554  0.00  0.00    +0.000 N 
ATOM     14  C   UNL     1       6.655   3.822  15.711  0.00  0.00    +0.000 A 
ATOM     15  C   UNL     1       6.471   4.759  16.711  0.00  0.00    +0.000 A 
ATOM     16  C   UNL     1       5.907   5.865  16.039  0.00  0.00    +0.000 A 
ATOM     17  N   UNL     1       5.769   5.660  14.728  0.00  0.00    +0.000 NA
ENDBRANCH  11  15
ENDBRANCH   9  11
ENDBRANCH   1   9
BRANCH   3  18
ATOM     18  O   UNL     1       2.373   6.808  19.545  0.00  0.00    +0.000 OA
BRANCH  18  19
ATOM     19  C   UNL     1       2.068   7.625  18.408  0.00  0.00    +0.000 C 
BRANCH  19  20
ATOM     20  C   UNL     1       1.987   9.043  18.872  0.00  0.00    +0.000 C 
ATOM     21  C   UNL     1       1.875  10.188  17.916  0.00  0.00    +0.000 C 
ATOM     22  C   UNL     1       0.672   9.796  18.751  0.00  0.00    +0.000 C 
BRANCH  22  23
ATOM     23  C   UNL     1       0.250  10.673  19.917  0.00  0.00    +0.000 A 
ATOM     24  C   UNL     1       0.584  12.038  20.022  0.00  0.00    +0.000 A 
ATOM     25  C   UNL     1       0.014  12.443  21.206  0.00  0.00    +0.000 A 
ATOM     26  N   UNL     1      -0.585  11.336  21.733  0.00  0.00    +0.000 N 
ATOM     27  C   UNL     1      -1.248  11.231  23.010  0.00  0.00    +0.000 C 
ATOM     28  N   UNL     1      -0.484  10.248  20.950  0.00  0.00    +0.000 NA
ENDBRANCH  22  23
ENDBRANCH  19  20
ENDBRANCH  18  19
ENDBRANCH   3  18
TORSDOF 7
ENDMDL
MODEL 7
REMARK VINA RESULT:      -7.6      4.781      7.275
REMARK  Name = 
REMARK  10 active torsions:
REMARK  status: ('A' for Active; 'I' for Inactive)
REMARK    1  A    between atoms: C_1  and  N_2
REMARK    2  A    between atoms: C_4  and  C_5
REMARK    3  A    between atoms: C_5  and  N_6
REMARK    4  A    between atoms: N_6  and  C_7
REMARK    5  A    between atoms: C_9  and  O_10
REMARK    6  A    between atoms: O_10  and  C_11
REMARK    7  A    between atoms: C_11  and  C_12
REMARK    8  A    between atoms: C_14  and  C_15
REMARK    9  A    between atoms: N_18  and  C_19
REMARK   10  A    between atoms: N_22  and  C_23
REMARK                            x       y       z     vdW  Elec       q    Type
REMARK                         _______ _______ _______ _____ _____    ______ ____
ROOT
ATOM      1  C   UNL     1       3.993   4.274  19.507  0.00  0.00    +0.000 A 
ATOM      2  C   UNL     1       3.377   5.313  20.076  0.00  0.00    +0.000 A 
ATOM      3  C   UNL     1       1.924   5.236  20.198  0.00  0.00    +0.000 A 
ATOM      4  N   UNL     1       1.153   4.292  19.775  0.00  0.00    +0.000 NA
ATOM      5  N   UNL     1       1.777   3.239  19.140  0.00  0.00    +0.000 N 
ATOM      6  C   UNL     1       0.932   2.159  18.675  0.00  0.00    +0.000 C 
ATOM      7  C   UNL     1       3.154   3.130  18.979  0.00  0.00    +0.000 A 
ATOM      8  O   UNL     1       3.719   2.172  18.451  0.00  0.00    +0.000 OA
ENDROOT
BRANCH   1   9
ATOM      9  N   UNL     1       5.383   4.177  19.341  0.00  0.00    +0.000 N 
ATOM     10  H   UNL     1       5.786   4.131  20.287  0.00  0.00    +0.000 HD
BRANCH   9  11
ATOM     11  C   UNL     1       6.093   5.275  18.674  0.00  0.00    +0.000 C 
BRANCH  11  15
ATOM     12  C   UNL     1       6.235   3.992  13.815  0.00  0.00    +0.000 C 
ATOM     13  N   UNL     1       6.059   4.696  15.061  0.00  0.00    +0.000 N 
ATOM     14  C   UNL     1       6.309   4.224  16.319  0.00  0.00    +0.000 A 
ATOM     15  C   UNL     1       6.000   5.254  17.188  0.00  0.00    +0.000 A 
ATOM     16  C   UNL     1       5.562   6.294  16.340  0.00  0.00    +0.000 A 
ATOM     17  N   UNL     1       5.612   5.965  15.048  0.00  0.00    +0.000 NA
ENDBRANCH  11  15
ENDBRANCH   9  11
ENDBRANCH   1   9
BRANCH   3  18
ATOM     18  O   UNL     1       1.488   6.328  20.865  0.00  0.00    +0.000 OA
BRANCH  18  19
ATOM     19  C   UNL     1       1.882   7.603  20.344  0.00  0.00    +0.000 C 
BRANCH  19  20
ATOM     20  C   UNL     1       0.790   8.578  20.644  0.00  0.00    +0.000 C 
ATOM     21  C   UNL     1      -0.205   8.348  21.736  0.00  0.00    +0.000 C 
ATOM     22  C   UNL     1       0.860   9.413  21.911  0.00  0.00    +0.000 C 
BRANCH  22  23
ATOM     23  C   UNL     1       0.477  10.880  21.814  0.00  0.00    +0.000 A 
ATOM     24  C   UNL     1      -0.691  11.417  22.390  0.00  0.00    +0.000 A 
ATOM     25  C   UNL     1      -0.650  12.754  22.070  0.00  0.00    +0.000 A 
ATOM     26  N   UNL     1       0.483  12.929  21.331  0.00  0.00    +0.000 N 
ATOM     27  C   UNL     1       0.924  14.145  20.691  0.00  0.00    +0.000 C 
ATOM     28  N   UNL     1       1.207  11.807  21.186  0.00  0.00    +0.000 NA
ENDBRANCH  22  23
ENDBRANCH  19  20
ENDBRANCH  18  19
ENDBRANCH   3  18
TORSDOF 7
ENDMDL
MODEL 8
REMARK VINA RESULT:      -7.6      1.210      1.425
REMARK  Name = 
REMARK  10 active torsions:
REMARK  status: ('A' for Active; 'I' for Inactive)
REMARK    1  A    between atoms: C_1  and  N_2
REMARK    2  A    between atoms: C_4  and  C_5
REMARK    3  A    between atoms: C_5  and  N_6
REMARK    4  A    between atoms: N_6  and  C_7
REMARK    5  A    between atoms: C_9  and  O_10
REMARK    6  A    between atoms: O_10  and  C_11
REMARK    7  A    between atoms: C_11  and  C_12
REMARK    8  A    between atoms: C_14  and  C_15
REMARK    9  A    between atoms: N_18  and  C_19
REMARK   10  A    between atoms: N_22  and  C_23
REMARK                            x       y       z     vdW  Elec       q    Type
REMARK                         _______ _______ _______ _____ _____    ______ ____
ROOT
ATOM      1  C   UNL     1       5.597   4.980  18.287  0.00  0.00    +0.000 A 
ATOM      2  C   UNL     1       6.405   5.970  18.677  0.00  0.00    +0.000 A 
ATOM      3  C   UNL     1       7.332   6.499  17.680  0.00  0.00    +0.000 A 
ATOM      4  N   UNL     1       7.496   6.088  16.469  0.00  0.00    +0.000 NA
ATOM      5  N   UNL     1       6.701   5.032  16.075  0.00  0.00    +0.000 N 
ATOM      6  C   UNL     1       6.855   4.568  14.712  0.00  0.00    +0.000 C 
ATOM      7  C   UNL     1       5.736   4.439  16.881  0.00  0.00    +0.000 A 
ATOM      8  O   UNL     1       4.994   3.524  16.520  0.00  0.00    +0.000 OA
ENDROOT
BRANCH   1   9
ATOM      9  N   UNL     1       4.631   4.382  19.111  0.00  0.00    +0.000 N 
ATOM     10  H   UNL     1       4.785   3.366  19.049  0.00  0.00    +0.000 HD
BRANCH   9  11
ATOM     11  C   UNL     1       3.212   4.575  18.790  0.00  0.00    +0.000 C 
BRANCH  11  15
ATOM     12  C   UNL     1       1.868   9.357  18.009  0.00  0.00    +0.000 C 
ATOM     13  N   UNL     1       2.144   8.070  18.598  0.00  0.00    +0.000 N 
ATOM     14  C   UNL     1       2.626   6.959  17.967  0.00  0.00    +0.000 A 
ATOM     15  C   UNL     1       2.735   5.979  18.936  0.00  0.00    +0.000 A 
ATOM     16  C   UNL     1       2.278   6.612  20.112  0.00  0.00    +0.000 A 
ATOM     17  N   UNL     1       1.935   7.886  19.915  0.00  0.00    +0.000 NA
ENDBRANCH  11  15
ENDBRANCH   9  11
ENDBRANCH   1   9
BRANCH   3  18
ATOM     18  O   UNL     1       8.003   7.539  18.224  0.00  0.00    +0.000 OA
BRANCH  18  19
ATOM     19  C   UNL     1       8.023   8.759  17.472  0.00  0.00    +0.000 C 
BRANCH  19  20
ATOM     20  C   UNL     1       8.289   9.880  18.423  0.00  0.00    +0.000 C 
ATOM     21  C   UNL     1       9.492   9.902  19.312  0.00  0.00    +0.000 C 
ATOM     22  C   UNL     1       9.418  10.855  18.135  0.00  0.00    +0.000 C 
BRANCH  22  23
ATOM     23  C   UNL     1       9.159  12.331  18.379  0.00  0.00    +0.000 A 
ATOM     24  C   UNL     1       9.844  13.089  19.349  0.00  0.00    +0.000 A 
ATOM     25  C   UNL     1       9.312  14.353  19.238  0.00  0.00    +0.000 A 
ATOM     26  N   UNL     1       8.360  14.276  18.263  0.00  0.00    +0.000 N 
ATOM     27  C   UNL     1       7.465  15.325  17.838  0.00  0.00    +0.000 C 
ATOM     28  N   UNL     1       8.268  13.060  17.699  0.00  0.00    +0.000 NA
ENDBRANCH  22  23
ENDBRANCH  19  20
ENDBRANCH  18  19
ENDBRANCH   3  18
TORSDOF 7
ENDMDL
MODEL 9
REMARK VINA RESULT:      -7.5      5.221      8.364
REMARK  Name = 
REMARK  10 active torsions:
REMARK  status: ('A' for Active; 'I' for Inactive)
REMARK    1  A    between atoms: C_1  and  N_2
REMARK    2  A    between atoms: C_4  and  C_5
REMARK    3  A    between atoms: C_5  and  N_6
REMARK    4  A    between atoms: N_6  and  C_7
REMARK    5  A    between atoms: C_9  and  O_10
REMARK    6  A    between atoms: O_10  and  C_11
REMARK    7  A    between atoms: C_11  and  C_12
REMARK    8  A    between atoms: C_14  and  C_15
REMARK    9  A    between atoms: N_18  and  C_19
REMARK   10  A    between atoms: N_22  and  C_23
REMARK                            x       y       z     vdW  Elec       q    Type
REMARK                         _______ _______ _______ _____ _____    ______ ____
ROOT
ATOM      1  C   UNL     1       3.472   4.966  18.772  0.00  0.00    +0.000 A 
ATOM      2  C   UNL     1       3.078   6.199  19.102  0.00  0.00    +0.000 A 
ATOM      3  C   UNL     1       2.102   6.315  20.182  0.00  0.00    +0.000 A 
ATOM      4  N   UNL     1       1.535   5.355  20.830  0.00  0.00    +0.000 NA
ATOM      5  N   UNL     1       1.898   4.077  20.459  0.00  0.00    +0.000 N 
ATOM      6  C   UNL     1       1.288   2.984  21.188  0.00  0.00    +0.000 C 
ATOM      7  C   UNL     1       2.845   3.786  19.484  0.00  0.00    +0.000 A 
ATOM      8  O   UNL     1       3.204   2.649  19.179  0.00  0.00    +0.000 OA
ENDROOT
BRANCH   1   9
ATOM      9  N   UNL     1       4.423   4.683  17.780  0.00  0.00    +0.000 N 
ATOM     10  H   UNL     1       5.274   4.376  18.272  0.00  0.00    +0.000 HD
BRANCH   9  11
ATOM     11  C   UNL     1       4.862   5.766  16.892  0.00  0.00    +0.000 C 
BRANCH  11  15
ATOM     12  C   UNL     1       6.535   3.697  12.625  0.00  0.00    +0.000 C 
ATOM     13  N   UNL     1       6.425   4.414  13.872  0.00  0.00    +0.000 N 
ATOM     14  C   UNL     1       5.308   4.562  14.644  0.00  0.00    +0.000 A 
ATOM     15  C   UNL     1       5.689   5.316  15.738  0.00  0.00    +0.000 A 
ATOM     16  C   UNL     1       7.058   5.576  15.510  0.00  0.00    +0.000 A 
ATOM     17  N   UNL     1       7.512   5.017  14.387  0.00  0.00    +0.000 NA
ENDBRANCH  11  15
ENDBRANCH   9  11
ENDBRANCH   1   9
BRANCH   3  18
ATOM     18  O   UNL     1       1.887   7.626  20.430  0.00  0.00    +0.000 OA
BRANCH  18  19
ATOM     19  C   UNL     1       1.744   8.484  19.291  0.00  0.00    +0.000 C 
BRANCH  19  20
ATOM     20  C   UNL     1       0.554   9.358  19.522  0.00  0.00    +0.000 C 
ATOM     21  C   UNL     1       0.684  10.818  19.823  0.00  0.00    +0.000 C 
ATOM     22  C   UNL     1       0.161  10.381  18.468  0.00  0.00    +0.000 C 
BRANCH  22  23
ATOM     23  C   UNL     1      -1.315  10.536  18.149  0.00  0.00    +0.000 A 
ATOM     24  C   UNL     1      -1.953   9.866  17.086  0.00  0.00    +0.000 A 
ATOM     25  C   UNL     1      -3.263  10.282  17.152  0.00  0.00    +0.000 A 
ATOM     26  N   UNL     1      -3.326  11.160  18.194  0.00  0.00    +0.000 N 
ATOM     27  C   UNL     1      -4.471  11.931  18.613  0.00  0.00    +0.000 C 
ATOM     28  N   UNL     1      -2.157  11.310  18.841  0.00  0.00    +0.000 NA
ENDBRANCH  22  23
ENDBRANCH  19  20
ENDBRANCH  18  19
ENDBRANCH   3  18
TORSDOF 7
ENDMDL
