MODEL 1
REMARK VINA RESULT:      -4.4      0.000      0.000
REMARK  Name = 
REMARK  18 active torsions:
REMARK  status: ('A' for Active; 'I' for Inactive)
REMARK    1  A    between atoms: O_1  and  C_2
REMARK    2  A    between atoms: C_2  and  C_3
REMARK    3  A    between atoms: C_3  and  O_4
REMARK    4  A    between atoms: O_4  and  C_5
REMARK    5  A    between atoms: C_5  and  C_6
REMARK    6  A    between atoms: C_6  and  O_7
REMARK    7  A    between atoms: O_7  and  C_8
REMARK    8  A    between atoms: C_8  and  C_9
REMARK    9  A    between atoms: C_9  and  O_10
REMARK   10  A    between atoms: O_10  and  C_11
REMARK   11  A    between atoms: C_11  and  C_12
REMARK   12  A    between atoms: C_12  and  O_13
REMARK   13  A    between atoms: O_13  and  C_14
REMARK   14  A    between atoms: C_14  and  C_15
REMARK   15  A    between atoms: C_15  and  O_16
REMARK   16  A    between atoms: O_16  and  C_17
REMARK   17  A    between atoms: C_17  and  C_18
REMARK   18  A    between atoms: C_18  and  O_19
REMARK                            x       y       z     vdW  Elec       q    Type
REMARK                         _______ _______ _______ _____ _____    ______ ____
ROOT
ATOM      1  O   UNL     1       4.572   3.046  18.808  0.00  0.00    +0.000 OA
ENDROOT
BRANCH   1   2
ATOM      2  C   UNL     1       3.719   2.350  19.712  0.00  0.00    +0.000 C 
BRANCH   2   3
ATOM      3  C   UNL     1       2.418   2.018  19.000  0.00  0.00    +0.000 C 
BRANCH   3   4
ATOM      4  O   UNL     1       1.323   2.371  19.839  0.00  0.00    +0.000 OA
BRANCH   4   5
ATOM      5  C   UNL     1       1.730   2.474  21.202  0.00  0.00    +0.000 C 
BRANCH   5   6
ATOM      6  C   UNL     1       1.935   3.942  21.545  0.00  0.00    +0.000 C 
BRANCH   6   7
ATOM      7  O   UNL     1       1.096   4.749  20.718  0.00  0.00    +0.000 OA
BRANCH   7   8
ATOM      8  C   UNL     1       1.621   6.078  20.602  0.00  0.00    +0.000 C 
BRANCH   8   9
ATOM      9  C   UNL     1       2.573   6.124  19.412  0.00  0.00    +0.000 C 
BRANCH   9  10
ATOM     10  O   UNL     1       3.888   5.746  19.817  0.00  0.00    +0.000 OA
ATOM     11  H   UNL     1       3.819   4.804  20.063  0.00  0.00    +0.000 HD
ENDBRANCH   9  10
ENDBRANCH   8   9
ENDBRANCH   7   8
ENDBRANCH   6   7
ENDBRANCH   5   6
ENDBRANCH   4   5
ENDBRANCH   3   4
ENDBRANCH   2   3
ENDBRANCH   1   2
BRANCH   1  12
ATOM     12  C   UNL     1       3.976   3.160  17.519  0.00  0.00    +0.000 C 
BRANCH  12  13
ATOM     13  C   UNL     1       4.886   3.986  16.623  0.00  0.00    +0.000 C 
BRANCH  13  14
ATOM     14  O   UNL     1       4.591   5.367  16.807  0.00  0.00    +0.000 OA
BRANCH  14  15
ATOM     15  C   UNL     1       5.443   6.187  16.011  0.00  0.00    +0.000 C 
BRANCH  15  16
ATOM     16  C   UNL     1       6.862   5.643  16.084  0.00  0.00    +0.000 C 
BRANCH  16  17
ATOM     17  O   UNL     1       7.719   6.633  16.651  0.00  0.00    +0.000 OA
BRANCH  17  18
ATOM     18  C   UNL     1       7.452   6.803  18.041  0.00  0.00    +0.000 C 
BRANCH  18  19
ATOM     19  C   UNL     1       7.764   5.508  18.776  0.00  0.00    +0.000 C 
BRANCH  19  20
ATOM     20  O   UNL     1       6.617   5.069  19.493  0.00  0.00    +0.000 OA
ATOM     21  H   UNL     1       6.003   5.820  19.526  0.00  0.00    +0.000 HD
ENDBRANCH  19  20
ENDBRANCH  18  19
ENDBRANCH  17  18
ENDBRANCH  16  17
ENDBRANCH  15  16
ENDBRANCH  14  15
ENDBRANCH  13  14
ENDBRANCH  12  13
ENDBRANCH   1  12
TORSDOF 18
ENDMDL
MODEL 2
REMARK VINA RESULT:      -4.3      1.461      2.943
REMARK  Name = 
REMARK  18 active torsions:
REMARK  status: ('A' for Active; 'I' for Inactive)
REMARK    1  A    between atoms: O_1  and  C_2
REMARK    2  A    between atoms: C_2  and  C_3
REMARK    3  A    between atoms: C_3  and  O_4
REMARK    4  A    between atoms: O_4  and  C_5
REMARK    5  A    between atoms: C_5  and  C_6
REMARK    6  A    between atoms: C_6  and  O_7
REMARK    7  A    between atoms: O_7  and  C_8
REMARK    8  A    between atoms: C_8  and  C_9
REMARK    9  A    between atoms: C_9  and  O_10
REMARK   10  A    between atoms: O_10  and  C_11
REMARK   11  A    between atoms: C_11  and  C_12
REMARK   12  A    between atoms: C_12  and  O_13
REMARK   13  A    between atoms: O_13  and  C_14
REMARK   14  A    between atoms: C_14  and  C_15
REMARK   15  A    between atoms: C_15  and  O_16
REMARK   16  A    between atoms: O_16  and  C_17
REMARK   17  A    between atoms: C_17  and  C_18
REMARK   18  A    between atoms: C_18  and  O_19
REMARK                            x       y       z     vdW  Elec       q    Type
REMARK                         _______ _______ _______ _____ _____    ______ ____
ROOT
ATOM      1  O   UNL     1       6.108   4.160  19.027  0.00  0.00    +0.000 OA
ENDROOT
BRANCH   1   2
ATOM      2  C   UNL     1       4.758   4.058  19.471  0.00  0.00    +0.000 C 
BRANCH   2   3
ATOM      3  C   UNL     1       4.174   2.748  18.968  0.00  0.00    +0.000 C 
BRANCH   3   4
ATOM      4  O   UNL     1       3.390   3.003  17.806  0.00  0.00    +0.000 OA
BRANCH   4   5
ATOM      5  C   UNL     1       2.139   2.321  17.869  0.00  0.00    +0.000 C 
BRANCH   5   6
ATOM      6  C   UNL     1       1.853   1.948  19.315  0.00  0.00    +0.000 C 
BRANCH   6   7
ATOM      7  O   UNL     1       0.770   2.738  19.808  0.00  0.00    +0.000 OA
BRANCH   7   8
ATOM      8  C   UNL     1       1.195   3.557  20.905  0.00  0.00    +0.000 C 
BRANCH   8   9
ATOM      9  C   UNL     1       1.395   4.981  20.401  0.00  0.00    +0.000 C 
BRANCH   9  10
ATOM     10  O   UNL     1       2.334   5.669  21.226  0.00  0.00    +0.000 OA
ATOM     11  H   UNL     1       2.355   5.168  22.064  0.00  0.00    +0.000 HD
ENDBRANCH   9  10
ENDBRANCH   8   9
ENDBRANCH   7   8
ENDBRANCH   6   7
ENDBRANCH   5   6
ENDBRANCH   4   5
ENDBRANCH   3   4
ENDBRANCH   2   3
ENDBRANCH   1   2
BRANCH   1  12
ATOM     12  C   UNL     1       6.606   5.485  19.190  0.00  0.00    +0.000 C 
BRANCH  12  13
ATOM     13  C   UNL     1       7.850   5.655  18.330  0.00  0.00    +0.000 C 
BRANCH  13  14
ATOM     14  O   UNL     1       7.483   6.271  17.099  0.00  0.00    +0.000 OA
BRANCH  14  15
ATOM     15  C   UNL     1       6.334   7.101  17.260  0.00  0.00    +0.000 C 
BRANCH  15  16
ATOM     16  C   UNL     1       5.246   6.627  16.309  0.00  0.00    +0.000 C 
BRANCH  16  17
ATOM     17  O   UNL     1       5.841   6.206  15.082  0.00  0.00    +0.000 OA
BRANCH  17  18
ATOM     18  C   UNL     1       5.345   4.929  14.686  0.00  0.00    +0.000 C 
BRANCH  18  19
ATOM     19  C   UNL     1       6.364   3.859  15.045  0.00  0.00    +0.000 C 
BRANCH  19  20
ATOM     20  O   UNL     1       5.947   3.165  16.215  0.00  0.00    +0.000 OA
ATOM     21  H   UNL     1       5.115   2.718  15.993  0.00  0.00    +0.000 HD
ENDBRANCH  19  20
ENDBRANCH  18  19
ENDBRANCH  17  18
ENDBRANCH  16  17
ENDBRANCH  15  16
ENDBRANCH  14  15
ENDBRANCH  13  14
ENDBRANCH  12  13
ENDBRANCH   1  12
TORSDOF 18
ENDMDL
MODEL 3
REMARK VINA RESULT:      -4.3      2.724      6.509
REMARK  Name = 
REMARK  18 active torsions:
REMARK  status: ('A' for Active; 'I' for Inactive)
REMARK    1  A    between atoms: O_1  and  C_2
REMARK    2  A    between atoms: C_2  and  C_3
REMARK    3  A    between atoms: C_3  and  O_4
REMARK    4  A    between atoms: O_4  and  C_5
REMARK    5  A    between atoms: C_5  and  C_6
REMARK    6  A    between atoms: C_6  and  O_7
REMARK    7  A    between atoms: O_7  and  C_8
REMARK    8  A    between atoms: C_8  and  C_9
REMARK    9  A    between atoms: C_9  and  O_10
REMARK   10  A    between atoms: O_10  and  C_11
REMARK   11  A    between atoms: C_11  and  C_12
REMARK   12  A    between atoms: C_12  and  O_13
REMARK   13  A    between atoms: O_13  and  C_14
REMARK   14  A    between atoms: C_14  and  C_15
REMARK   15  A    between atoms: C_15  and  O_16
REMARK   16  A    between atoms: O_16  and  C_17
REMARK   17  A    between atoms: C_17  and  C_18
REMARK   18  A    between atoms: C_18  and  O_19
REMARK                            x       y       z     vdW  Elec       q    Type
REMARK                         _______ _______ _______ _____ _____    ______ ____
ROOT
ATOM      1  O   UNL     1       5.665   5.710  18.524  0.00  0.00    +0.000 OA
ENDROOT
BRANCH   1   2
ATOM      2  C   UNL     1       6.838   5.900  17.738  0.00  0.00    +0.000 C 
BRANCH   2   3
ATOM      3  C   UNL     1       7.405   4.540  17.365  0.00  0.00    +0.000 C 
BRANCH   3   4
ATOM      4  O   UNL     1       7.757   4.544  15.984  0.00  0.00    +0.000 OA
BRANCH   4   5
ATOM      5  C   UNL     1       6.762   5.201  15.201  0.00  0.00    +0.000 C 
BRANCH   5   6
ATOM      6  C   UNL     1       5.793   4.161  14.662  0.00  0.00    +0.000 C 
BRANCH   6   7
ATOM      7  O   UNL     1       6.473   3.302  13.745  0.00  0.00    +0.000 OA
BRANCH   7   8
ATOM      8  C   UNL     1       6.201   3.686  12.391  0.00  0.00    +0.000 C 
BRANCH   8   9
ATOM      9  C   UNL     1       5.209   2.695  11.793  0.00  0.00    +0.000 C 
BRANCH   9  10
ATOM     10  O   UNL     1       4.116   3.391  11.196  0.00  0.00    +0.000 OA
ATOM     11  H   UNL     1       4.008   2.988  10.313  0.00  0.00    +0.000 HD
ENDBRANCH   9  10
ENDBRANCH   8   9
ENDBRANCH   7   8
ENDBRANCH   6   7
ENDBRANCH   5   6
ENDBRANCH   4   5
ENDBRANCH   3   4
ENDBRANCH   2   3
ENDBRANCH   1   2
BRANCH   1  12
ATOM     12  C   UNL     1       4.536   6.344  17.928  0.00  0.00    +0.000 C 
BRANCH  12  13
ATOM     13  C   UNL     1       3.613   5.278  17.359  0.00  0.00    +0.000 C 
BRANCH  13  14
ATOM     14  O   UNL     1       2.433   5.213  18.153  0.00  0.00    +0.000 OA
BRANCH  14  15
ATOM     15  C   UNL     1       1.617   4.105  17.776  0.00  0.00    +0.000 C 
BRANCH  15  16
ATOM     16  C   UNL     1       1.703   3.039  18.858  0.00  0.00    +0.000 C 
BRANCH  16  17
ATOM     17  O   UNL     1       2.160   1.816  18.282  0.00  0.00    +0.000 OA
BRANCH  17  18
ATOM     18  C   UNL     1       3.577   1.699  18.394  0.00  0.00    +0.000 C 
BRANCH  18  19
ATOM     19  C   UNL     1       4.023   2.242  19.742  0.00  0.00    +0.000 C 
BRANCH  19  20
ATOM     20  O   UNL     1       5.253   2.941  19.601  0.00  0.00    +0.000 OA
ATOM     21  H   UNL     1       5.165   3.767  20.104  0.00  0.00    +0.000 HD
ENDBRANCH  19  20
ENDBRANCH  18  19
ENDBRANCH  17  18
ENDBRANCH  16  17
ENDBRANCH  15  16
ENDBRANCH  14  15
ENDBRANCH  13  14
ENDBRANCH  12  13
ENDBRANCH   1  12
TORSDOF 18
ENDMDL
MODEL 4
REMARK VINA RESULT:      -4.3      2.644      4.287
REMARK  Name = 
REMARK  18 active torsions:
REMARK  status: ('A' for Active; 'I' for Inactive)
REMARK    1  A    between atoms: O_1  and  C_2
REMARK    2  A    between atoms: C_2  and  C_3
REMARK    3  A    between atoms: C_3  and  O_4
REMARK    4  A    between atoms: O_4  and  C_5
REMARK    5  A    between atoms: C_5  and  C_6
REMARK    6  A    between atoms: C_6  and  O_7
REMARK    7  A    between atoms: O_7  and  C_8
REMARK    8  A    between atoms: C_8  and  C_9
REMARK    9  A    between atoms: C_9  and  O_10
REMARK   10  A    between atoms: O_10  and  C_11
REMARK   11  A    between atoms: C_11  and  C_12
REMARK   12  A    between atoms: C_12  and  O_13
REMARK   13  A    between atoms: O_13  and  C_14
REMARK   14  A    between atoms: C_14  and  C_15
REMARK   15  A    between atoms: C_15  and  O_16
REMARK   16  A    between atoms: O_16  and  C_17
REMARK   17  A    between atoms: C_17  and  C_18
REMARK   18  A    between atoms: C_18  and  O_19
REMARK                            x       y       z     vdW  Elec       q    Type
REMARK                         _______ _______ _______ _____ _____    ______ ____
ROOT
ATOM      1  O   UNL     1       6.301   4.807  19.389  0.00  0.00    +0.000 OA
ENDROOT
BRANCH   1   2
ATOM      2  C   UNL     1       5.020   4.449  18.877  0.00  0.00    +0.000 C 
BRANCH   2   3
ATOM      3  C   UNL     1       4.224   5.719  18.619  0.00  0.00    +0.000 C 
BRANCH   3   4
ATOM      4  O   UNL     1       2.853   5.379  18.428  0.00  0.00    +0.000 OA
BRANCH   4   5
ATOM      5  C   UNL     1       2.713   4.022  18.010  0.00  0.00    +0.000 C 
BRANCH   5   6
ATOM      6  C   UNL     1       1.269   3.590  18.219  0.00  0.00    +0.000 C 
BRANCH   6   7
ATOM      7  O   UNL     1       0.923   3.724  19.598  0.00  0.00    +0.000 OA
BRANCH   7   8
ATOM      8  C   UNL     1       1.647   2.780  20.398  0.00  0.00    +0.000 C 
BRANCH   8   9
ATOM      9  C   UNL     1       2.120   3.477  21.668  0.00  0.00    +0.000 C 
BRANCH   9  10
ATOM     10  O   UNL     1       2.434   4.841  21.395  0.00  0.00    +0.000 OA
ATOM     11  H   UNL     1       3.313   4.821  20.970  0.00  0.00    +0.000 HD
ENDBRANCH   9  10
ENDBRANCH   8   9
ENDBRANCH   7   8
ENDBRANCH   6   7
ENDBRANCH   5   6
ENDBRANCH   4   5
ENDBRANCH   3   4
ENDBRANCH   2   3
ENDBRANCH   1   2
BRANCH   1  12
ATOM     12  C   UNL     1       7.001   5.655  18.482  0.00  0.00    +0.000 C 
BRANCH  12  13
ATOM     13  C   UNL     1       7.350   4.861  17.233  0.00  0.00    +0.000 C 
BRANCH  13  14
ATOM     14  O   UNL     1       7.258   5.717  16.098  0.00  0.00    +0.000 OA
BRANCH  14  15
ATOM     15  C   UNL     1       6.234   5.282  15.206  0.00  0.00    +0.000 C 
BRANCH  15  16
ATOM     16  C   UNL     1       6.881   4.628  13.994  0.00  0.00    +0.000 C 
BRANCH  16  17
ATOM     17  O   UNL     1       5.998   3.641  13.463  0.00  0.00    +0.000 OA
BRANCH  17  18
ATOM     18  C   UNL     1       6.453   3.182  12.191  0.00  0.00    +0.000 C 
BRANCH  18  19
ATOM     19  C   UNL     1       5.304   2.506  11.459  0.00  0.00    +0.000 C 
BRANCH  19  20
ATOM     20  O   UNL     1       4.113   3.268  11.615  0.00  0.00    +0.000 OA
ATOM     21  H   UNL     1       4.361   4.080  12.087  0.00  0.00    +0.000 HD
ENDBRANCH  19  20
ENDBRANCH  18  19
ENDBRANCH  17  18
ENDBRANCH  16  17
ENDBRANCH  15  16
ENDBRANCH  14  15
ENDBRANCH  13  14
ENDBRANCH  12  13
ENDBRANCH   1  12
TORSDOF 18
ENDMDL
MODEL 5
REMARK VINA RESULT:      -4.2      1.608      2.702
REMARK  Name = 
REMARK  18 active torsions:
REMARK  status: ('A' for Active; 'I' for Inactive)
REMARK    1  A    between atoms: O_1  and  C_2
REMARK    2  A    between atoms: C_2  and  C_3
REMARK    3  A    between atoms: C_3  and  O_4
REMARK    4  A    between atoms: O_4  and  C_5
REMARK    5  A    between atoms: C_5  and  C_6
REMARK    6  A    between atoms: C_6  and  O_7
REMARK    7  A    between atoms: O_7  and  C_8
REMARK    8  A    between atoms: C_8  and  C_9
REMARK    9  A    between atoms: C_9  and  O_10
REMARK   10  A    between atoms: O_10  and  C_11
REMARK   11  A    between atoms: C_11  and  C_12
REMARK   12  A    between atoms: C_12  and  O_13
REMARK   13  A    between atoms: O_13  and  C_14
REMARK   14  A    between atoms: C_14  and  C_15
REMARK   15  A    between atoms: C_15  and  O_16
REMARK   16  A    between atoms: O_16  and  C_17
REMARK   17  A    between atoms: C_17  and  C_18
REMARK   18  A    between atoms: C_18  and  O_19
REMARK                            x       y       z     vdW  Elec       q    Type
REMARK                         _______ _______ _______ _____ _____    ______ ____
ROOT
ATOM      1  O   UNL     1       3.784   5.084  17.353  0.00  0.00    +0.000 OA
ENDROOT
BRANCH   1   2
ATOM      2  C   UNL     1       3.788   3.692  17.659  0.00  0.00    +0.000 C 
BRANCH   2   3
ATOM      3  C   UNL     1       2.506   3.070  17.128  0.00  0.00    +0.000 C 
BRANCH   3   4
ATOM      4  O   UNL     1       1.558   2.983  18.187  0.00  0.00    +0.000 OA
BRANCH   4   5
ATOM      5  C   UNL     1       2.017   2.112  19.220  0.00  0.00    +0.000 C 
BRANCH   5   6
ATOM      6  C   UNL     1       1.578   2.670  20.565  0.00  0.00    +0.000 C 
BRANCH   6   7
ATOM      7  O   UNL     1       1.040   3.981  20.388  0.00  0.00    +0.000 OA
BRANCH   7   8
ATOM      8  C   UNL     1       1.888   4.965  20.993  0.00  0.00    +0.000 C 
BRANCH   8   9
ATOM      9  C   UNL     1       1.286   6.344  20.752  0.00  0.00    +0.000 C 
BRANCH   9  10
ATOM     10  O   UNL     1       2.316   7.327  20.682  0.00  0.00    +0.000 OA
ATOM     11  H   UNL     1       1.856   8.169  20.501  0.00  0.00    +0.000 HD
ENDBRANCH   9  10
ENDBRANCH   8   9
ENDBRANCH   7   8
ENDBRANCH   6   7
ENDBRANCH   5   6
ENDBRANCH   4   5
ENDBRANCH   3   4
ENDBRANCH   2   3
ENDBRANCH   1   2
BRANCH   1  12
ATOM     12  C   UNL     1       4.329   5.849  18.425  0.00  0.00    +0.000 C 
BRANCH  12  13
ATOM     13  C   UNL     1       5.169   4.938  19.307  0.00  0.00    +0.000 C 
BRANCH  13  14
ATOM     14  O   UNL     1       6.420   5.567  19.567  0.00  0.00    +0.000 OA
BRANCH  14  15
ATOM     15  C   UNL     1       7.137   5.809  18.358  0.00  0.00    +0.000 C 
BRANCH  15  16
ATOM     16  C   UNL     1       7.933   4.563  17.999  0.00  0.00    +0.000 C 
BRANCH  16  17
ATOM     17  O   UNL     1       7.865   4.349  16.590  0.00  0.00    +0.000 OA
BRANCH  17  18
ATOM     18  C   UNL     1       7.009   5.307  15.970  0.00  0.00    +0.000 C 
BRANCH  18  19
ATOM     19  C   UNL     1       6.644   4.828  14.573  0.00  0.00    +0.000 C 
BRANCH  19  20
ATOM     20  O   UNL     1       6.269   3.457  14.613  0.00  0.00    +0.000 OA
ATOM     21  H   UNL     1       7.057   2.944  14.368  0.00  0.00    +0.000 HD
ENDBRANCH  19  20
ENDBRANCH  18  19
ENDBRANCH  17  18
ENDBRANCH  16  17
ENDBRANCH  15  16
ENDBRANCH  14  15
ENDBRANCH  13  14
ENDBRANCH  12  13
ENDBRANCH   1  12
TORSDOF 18
ENDMDL
MODEL 6
REMARK VINA RESULT:      -4.1      1.307      3.034
REMARK  Name = 
REMARK  18 active torsions:
REMARK  status: ('A' for Active; 'I' for Inactive)
REMARK    1  A    between atoms: O_1  and  C_2
REMARK    2  A    between atoms: C_2  and  C_3
REMARK    3  A    between atoms: C_3  and  O_4
REMARK    4  A    between atoms: O_4  and  C_5
REMARK    5  A    between atoms: C_5  and  C_6
REMARK    6  A    between atoms: C_6  and  O_7
REMARK    7  A    between atoms: O_7  and  C_8
REMARK    8  A    between atoms: C_8  and  C_9
REMARK    9  A    between atoms: C_9  and  O_10
REMARK   10  A    between atoms: O_10  and  C_11
REMARK   11  A    between atoms: C_11  and  C_12
REMARK   12  A    between atoms: C_12  and  O_13
REMARK   13  A    between atoms: O_13  and  C_14
REMARK   14  A    between atoms: C_14  and  C_15
REMARK   15  A    between atoms: C_15  and  O_16
REMARK   16  A    between atoms: O_16  and  C_17
REMARK   17  A    between atoms: C_17  and  C_18
REMARK   18  A    between atoms: C_18  and  O_19
REMARK                            x       y       z     vdW  Elec       q    Type
REMARK                         _______ _______ _______ _____ _____    ______ ____
ROOT
ATOM      1  O   UNL     1       2.567   5.498  20.399  0.00  0.00    +0.000 OA
ENDROOT
BRANCH   1   2
ATOM      2  C   UNL     1       1.371   4.725  20.333  0.00  0.00    +0.000 C 
BRANCH   2   3
ATOM      3  C   UNL     1       1.487   3.559  21.302  0.00  0.00    +0.000 C 
BRANCH   3   4
ATOM      4  O   UNL     1       2.150   2.478  20.654  0.00  0.00    +0.000 OA
BRANCH   4   5
ATOM      5  C   UNL     1       3.475   2.313  21.153  0.00  0.00    +0.000 C 
BRANCH   5   6
ATOM      6  C   UNL     1       4.423   2.112  19.980  0.00  0.00    +0.000 C 
BRANCH   6   7
ATOM      7  O   UNL     1       4.186   3.121  18.996  0.00  0.00    +0.000 OA
BRANCH   7   8
ATOM      8  C   UNL     1       3.886   2.531  17.725  0.00  0.00    +0.000 C 
BRANCH   8   9
ATOM      9  C   UNL     1       2.460   2.906  17.338  0.00  0.00    +0.000 C 
BRANCH   9  10
ATOM     10  O   UNL     1       1.532   2.012  17.950  0.00  0.00    +0.000 OA
ATOM     11  H   UNL     1       0.698   2.131  17.456  0.00  0.00    +0.000 HD
ENDBRANCH   9  10
ENDBRANCH   8   9
ENDBRANCH   7   8
ENDBRANCH   6   7
ENDBRANCH   5   6
ENDBRANCH   4   5
ENDBRANCH   3   4
ENDBRANCH   2   3
ENDBRANCH   1   2
BRANCH   1  12
ATOM     12  C   UNL     1       2.447   6.700  19.643  0.00  0.00    +0.000 C 
BRANCH  12  13
ATOM     13  C   UNL     1       2.827   6.415  18.198  0.00  0.00    +0.000 C 
BRANCH  13  14
ATOM     14  O   UNL     1       4.246   6.400  18.085  0.00  0.00    +0.000 OA
BRANCH  14  15
ATOM     15  C   UNL     1       4.666   6.833  16.792  0.00  0.00    +0.000 C 
BRANCH  15  16
ATOM     16  C   UNL     1       5.689   5.846  16.250  0.00  0.00    +0.000 C 
BRANCH  16  17
ATOM     17  O   UNL     1       6.082   4.953  17.291  0.00  0.00    +0.000 OA
BRANCH  17  18
ATOM     18  C   UNL     1       7.457   5.131  17.623  0.00  0.00    +0.000 C 
BRANCH  18  19
ATOM     19  C   UNL     1       7.572   5.590  19.068  0.00  0.00    +0.000 C 
BRANCH  19  20
ATOM     20  O   UNL     1       6.398   5.232  19.786  0.00  0.00    +0.000 OA
ATOM     21  H   UNL     1       6.685   4.687  20.537  0.00  0.00    +0.000 HD
ENDBRANCH  19  20
ENDBRANCH  18  19
ENDBRANCH  17  18
ENDBRANCH  16  17
ENDBRANCH  15  16
ENDBRANCH  14  15
ENDBRANCH  13  14
ENDBRANCH  12  13
ENDBRANCH   1  12
TORSDOF 18
ENDMDL
MODEL 7
REMARK VINA RESULT:      -4.1      1.718      6.011
REMARK  Name = 
REMARK  18 active torsions:
REMARK  status: ('A' for Active; 'I' for Inactive)
REMARK    1  A    between atoms: O_1  and  C_2
REMARK    2  A    between atoms: C_2  and  C_3
REMARK    3  A    between atoms: C_3  and  O_4
REMARK    4  A    between atoms: O_4  and  C_5
REMARK    5  A    between atoms: C_5  and  C_6
REMARK    6  A    between atoms: C_6  and  O_7
REMARK    7  A    between atoms: O_7  and  C_8
REMARK    8  A    between atoms: C_8  and  C_9
REMARK    9  A    between atoms: C_9  and  O_10
REMARK   10  A    between atoms: O_10  and  C_11
REMARK   11  A    between atoms: C_11  and  C_12
REMARK   12  A    between atoms: C_12  and  O_13
REMARK   13  A    between atoms: O_13  and  C_14
REMARK   14  A    between atoms: C_14  and  C_15
REMARK   15  A    between atoms: C_15  and  O_16
REMARK   16  A    between atoms: O_16  and  C_17
REMARK   17  A    between atoms: C_17  and  C_18
REMARK   18  A    between atoms: C_18  and  O_19
REMARK                            x       y       z     vdW  Elec       q    Type
REMARK                         _______ _______ _______ _____ _____    ______ ____
ROOT
ATOM      1  O   UNL     1       5.672   3.608  19.349  0.00  0.00    +0.000 OA
ENDROOT
BRANCH   1   2
ATOM      2  C   UNL     1       5.618   5.028  19.453  0.00  0.00    +0.000 C 
BRANCH   2   3
ATOM      3  C   UNL     1       4.252   5.502  18.982  0.00  0.00    +0.000 C 
BRANCH   3   4
ATOM      4  O   UNL     1       4.266   5.630  17.564  0.00  0.00    +0.000 OA
BRANCH   4   5
ATOM      5  C   UNL     1       4.704   6.929  17.168  0.00  0.00    +0.000 C 
BRANCH   5   6
ATOM      6  C   UNL     1       6.120   6.826  16.621  0.00  0.00    +0.000 C 
BRANCH   6   7
ATOM      7  O   UNL     1       6.100   6.142  15.366  0.00  0.00    +0.000 OA
BRANCH   7   8
ATOM      8  C   UNL     1       6.930   4.975  15.410  0.00  0.00    +0.000 C 
BRANCH   8   9
ATOM      9  C   UNL     1       6.065   3.750  15.135  0.00  0.00    +0.000 C 
BRANCH   9  10
ATOM     10  O   UNL     1       5.422   3.321  16.334  0.00  0.00    +0.000 OA
ATOM     11  H   UNL     1       5.586   2.361  16.384  0.00  0.00    +0.000 HD
ENDBRANCH   9  10
ENDBRANCH   8   9
ENDBRANCH   7   8
ENDBRANCH   6   7
ENDBRANCH   5   6
ENDBRANCH   4   5
ENDBRANCH   3   4
ENDBRANCH   2   3
ENDBRANCH   1   2
BRANCH   1  12
ATOM     12  C   UNL     1       4.375   3.032  19.474  0.00  0.00    +0.000 C 
BRANCH  12  13
ATOM     13  C   UNL     1       4.220   2.462  20.876  0.00  0.00    +0.000 C 
BRANCH  13  14
ATOM     14  O   UNL     1       2.834   2.370  21.190  0.00  0.00    +0.000 OA
BRANCH  14  15
ATOM     15  C   UNL     1       2.286   3.652  21.488  0.00  0.00    +0.000 C 
BRANCH  15  16
ATOM     16  C   UNL     1       1.234   3.994  20.444  0.00  0.00    +0.000 C 
BRANCH  16  17
ATOM     17  O   UNL     1       0.563   2.801  20.042  0.00  0.00    +0.000 OA
BRANCH  17  18
ATOM     18  C   UNL     1       0.827   2.504  18.673  0.00  0.00    +0.000 C 
BRANCH  18  19
ATOM     19  C   UNL     1       1.279   3.770  17.961  0.00  0.00    +0.000 C 
BRANCH  19  20
ATOM     20  O   UNL     1       2.204   3.444  16.931  0.00  0.00    +0.000 OA
ATOM     21  H   UNL     1       3.092   3.538  17.312  0.00  0.00    +0.000 HD
ENDBRANCH  19  20
ENDBRANCH  18  19
ENDBRANCH  17  18
ENDBRANCH  16  17
ENDBRANCH  15  16
ENDBRANCH  14  15
ENDBRANCH  13  14
ENDBRANCH  12  13
ENDBRANCH   1  12
TORSDOF 18
ENDMDL
MODEL 8
REMARK VINA RESULT:      -4.0      2.739      6.838
REMARK  Name = 
REMARK  18 active torsions:
REMARK  status: ('A' for Active; 'I' for Inactive)
REMARK    1  A    between atoms: O_1  and  C_2
REMARK    2  A    between atoms: C_2  and  C_3
REMARK    3  A    between atoms: C_3  and  O_4
REMARK    4  A    between atoms: O_4  and  C_5
REMARK    5  A    between atoms: C_5  and  C_6
REMARK    6  A    between atoms: C_6  and  O_7
REMARK    7  A    between atoms: O_7  and  C_8
REMARK    8  A    between atoms: C_8  and  C_9
REMARK    9  A    between atoms: C_9  and  O_10
REMARK   10  A    between atoms: O_10  and  C_11
REMARK   11  A    between atoms: C_11  and  C_12
REMARK   12  A    between atoms: C_12  and  O_13
REMARK   13  A    between atoms: O_13  and  C_14
REMARK   14  A    between atoms: C_14  and  C_15
REMARK   15  A    between atoms: C_15  and  O_16
REMARK   16  A    between atoms: O_16  and  C_17
REMARK   17  A    between atoms: C_17  and  C_18
REMARK   18  A    between atoms: C_18  and  O_19
REMARK                            x       y       z     vdW  Elec       q    Type
REMARK                         _______ _______ _______ _____ _____    ______ ____
ROOT
ATOM      1  O   UNL     1       3.829   3.854  16.833  0.00  0.00    +0.000 OA
ENDROOT
BRANCH   1   2
ATOM      2  C   UNL     1       5.216   4.101  17.042  0.00  0.00    +0.000 C 
BRANCH   2   3
ATOM      3  C   UNL     1       5.456   5.602  17.015  0.00  0.00    +0.000 C 
BRANCH   3   4
ATOM      4  O   UNL     1       6.193   5.936  15.842  0.00  0.00    +0.000 OA
BRANCH   4   5
ATOM      5  C   UNL     1       6.963   4.826  15.384  0.00  0.00    +0.000 C 
BRANCH   5   6
ATOM      6  C   UNL     1       7.046   4.877  13.866  0.00  0.00    +0.000 C 
BRANCH   6   7
ATOM      7  O   UNL     1       6.046   4.026  13.304  0.00  0.00    +0.000 OA
BRANCH   7   8
ATOM      8  C   UNL     1       6.573   3.285  12.195  0.00  0.00    +0.000 C 
BRANCH   8   9
ATOM      9  C   UNL     1       5.503   2.319  11.701  0.00  0.00    +0.000 C 
BRANCH   9  10
ATOM     10  O   UNL     1       6.095   1.073  11.336  0.00  0.00    +0.000 OA
ATOM     11  H   UNL     1       5.758   0.429  11.987  0.00  0.00    +0.000 HD
ENDBRANCH   9  10
ENDBRANCH   8   9
ENDBRANCH   7   8
ENDBRANCH   6   7
ENDBRANCH   5   6
ENDBRANCH   4   5
ENDBRANCH   3   4
ENDBRANCH   2   3
ENDBRANCH   1   2
BRANCH   1  12
ATOM     12  C   UNL     1       3.347   2.840  17.711  0.00  0.00    +0.000 C 
BRANCH  12  13
ATOM     13  C   UNL     1       4.151   2.881  19.002  0.00  0.00    +0.000 C 
BRANCH  13  14
ATOM     14  O   UNL     1       3.392   2.270  20.041  0.00  0.00    +0.000 OA
BRANCH  14  15
ATOM     15  C   UNL     1       1.995   2.331  19.764  0.00  0.00    +0.000 C 
BRANCH  15  16
ATOM     16  C   UNL     1       1.337   3.283  20.752  0.00  0.00    +0.000 C 
BRANCH  16  17
ATOM     17  O   UNL     1       1.092   4.534  20.111  0.00  0.00    +0.000 OA
BRANCH  17  18
ATOM     18  C   UNL     1       1.886   5.567  20.690  0.00  0.00    +0.000 C 
BRANCH  18  19
ATOM     19  C   UNL     1       2.821   6.136  19.635  0.00  0.00    +0.000 C 
BRANCH  19  20
ATOM     20  O   UNL     1       2.188   6.111  18.361  0.00  0.00    +0.000 OA
ATOM     21  H   UNL     1       2.811   6.509  17.732  0.00  0.00    +0.000 HD
ENDBRANCH  19  20
ENDBRANCH  18  19
ENDBRANCH  17  18
ENDBRANCH  16  17
ENDBRANCH  15  16
ENDBRANCH  14  15
ENDBRANCH  13  14
ENDBRANCH  12  13
ENDBRANCH   1  12
TORSDOF 18
ENDMDL
MODEL 9
REMARK VINA RESULT:      -4.0      1.520      6.236
REMARK  Name = 
REMARK  18 active torsions:
REMARK  status: ('A' for Active; 'I' for Inactive)
REMARK    1  A    between atoms: O_1  and  C_2
REMARK    2  A    between atoms: C_2  and  C_3
REMARK    3  A    between atoms: C_3  and  O_4
REMARK    4  A    between atoms: O_4  and  C_5
REMARK    5  A    between atoms: C_5  and  C_6
REMARK    6  A    between atoms: C_6  and  O_7
REMARK    7  A    between atoms: O_7  and  C_8
REMARK    8  A    between atoms: C_8  and  C_9
REMARK    9  A    between atoms: C_9  and  O_10
REMARK   10  A    between atoms: O_10  and  C_11
REMARK   11  A    between atoms: C_11  and  C_12
REMARK   12  A    between atoms: C_12  and  O_13
REMARK   13  A    between atoms: O_13  and  C_14
REMARK   14  A    between atoms: C_14  and  C_15
REMARK   15  A    between atoms: C_15  and  O_16
REMARK   16  A    between atoms: O_16  and  C_17
REMARK   17  A    between atoms: C_17  and  C_18
REMARK   18  A    between atoms: C_18  and  O_19
REMARK                            x       y       z     vdW  Elec       q    Type
REMARK                         _______ _______ _______ _____ _____    ______ ____
ROOT
ATOM      1  O   UNL     1       3.126   5.467  19.206  0.00  0.00    +0.000 OA
ENDROOT
BRANCH   1   2
ATOM      2  C   UNL     1       2.696   6.790  18.900  0.00  0.00    +0.000 C 
BRANCH   2   3
ATOM      3  C   UNL     1       3.566   7.342  17.781  0.00  0.00    +0.000 C 
BRANCH   3   4
ATOM      4  O   UNL     1       4.643   6.442  17.541  0.00  0.00    +0.000 OA
BRANCH   4   5
ATOM      5  C   UNL     1       5.772   7.122  16.997  0.00  0.00    +0.000 C 
BRANCH   5   6
ATOM      6  C   UNL     1       7.024   6.309  17.285  0.00  0.00    +0.000 C 
BRANCH   6   7
ATOM      7  O   UNL     1       7.626   5.904  16.055  0.00  0.00    +0.000 OA
BRANCH   7   8
ATOM      8  C   UNL     1       6.975   4.740  15.529  0.00  0.00    +0.000 C 
BRANCH   8   9
ATOM      9  C   UNL     1       6.928   4.850  14.010  0.00  0.00    +0.000 C 
BRANCH   9  10
ATOM     10  O   UNL     1       8.066   5.566  13.532  0.00  0.00    +0.000 OA
ATOM     11  H   UNL     1       8.002   5.528  12.559  0.00  0.00    +0.000 HD
ENDBRANCH   9  10
ENDBRANCH   8   9
ENDBRANCH   7   8
ENDBRANCH   6   7
ENDBRANCH   5   6
ENDBRANCH   4   5
ENDBRANCH   3   4
ENDBRANCH   2   3
ENDBRANCH   1   2
BRANCH   1  12
ATOM     12  C   UNL     1       2.772   5.104  20.537  0.00  0.00    +0.000 C 
BRANCH  12  13
ATOM     13  C   UNL     1       1.274   5.292  20.720  0.00  0.00    +0.000 C 
BRANCH  13  14
ATOM     14  O   UNL     1       0.598   4.136  20.236  0.00  0.00    +0.000 OA
BRANCH  14  15
ATOM     15  C   UNL     1       1.378   2.959  20.438  0.00  0.00    +0.000 C 
BRANCH  15  16
ATOM     16  C   UNL     1       1.171   2.022  19.258  0.00  0.00    +0.000 C 
BRANCH  16  17
ATOM     17  O   UNL     1       1.863   2.534  18.120  0.00  0.00    +0.000 OA
BRANCH  17  18
ATOM     18  C   UNL     1       3.119   1.880  17.951  0.00  0.00    +0.000 C 
BRANCH  18  19
ATOM     19  C   UNL     1       4.196   2.919  17.676  0.00  0.00    +0.000 C 
BRANCH  19  20
ATOM     20  O   UNL     1       3.697   3.910  16.786  0.00  0.00    +0.000 OA
ATOM     21  H   UNL     1       4.325   4.651  16.813  0.00  0.00    +0.000 HD
ENDBRANCH  19  20
ENDBRANCH  18  19
ENDBRANCH  17  18
ENDBRANCH  16  17
ENDBRANCH  15  16
ENDBRANCH  14  15
ENDBRANCH  13  14
ENDBRANCH  12  13
ENDBRANCH   1  12
TORSDOF 18
ENDMDL
