MODEL 1
REMARK VINA RESULT:      -6.8      0.000      0.000
REMARK  Name = 
REMARK  13 active torsions:
REMARK  status: ('A' for Active; 'I' for Inactive)
REMARK    1  A    between atoms: C_1  and  C_2
REMARK    2  A    between atoms: C_2  and  O_3
REMARK    3  A    between atoms: O_3  and  P_4
REMARK    4  A    between atoms: P_4  and  C_6
REMARK    5  A    between atoms: P_4  and  O_19
REMARK    6  A    between atoms: C_7  and  C_8
REMARK    7  A    between atoms: C_10  and  O_11
REMARK    8  A    between atoms: O_11  and  C_12
REMARK    9  A    between atoms: C_13  and  O_14
REMARK   10  A    between atoms: C_15  and  O_16
REMARK   11  A    between atoms: O_16  and  C_17
REMARK   12  A    between atoms: O_19  and  C_20
REMARK   13  A    between atoms: C_20  and  C_21
REMARK                            x       y       z     vdW  Elec       q    Type
REMARK                         _______ _______ _______ _____ _____    ______ ____
ROOT
ATOM      1  C   UNL     1       3.634   4.882  18.107  0.00  0.00    +0.000 A 
ATOM      2  C   UNL     1       3.195   4.130  19.208  0.00  0.00    +0.000 A 
ATOM      3  C   UNL     1       2.434   4.737  20.215  0.00  0.00    +0.000 A 
ATOM      4  C   UNL     1       2.105   6.096  20.103  0.00  0.00    +0.000 A 
ATOM      5  C   UNL     1       2.490   6.855  18.995  0.00  0.00    +0.000 A 
ATOM      6  C   UNL     1       3.251   6.231  18.000  0.00  0.00    +0.000 A 
ENDROOT
BRANCH   1   8
ATOM      7  C   UNL     1       5.210   5.079  16.163  0.00  0.00    +0.000 C 
ATOM      8  C   UNL     1       4.576   4.349  17.096  0.00  0.00    +0.000 C 
BRANCH   7   9
ATOM      9  P   UNL     1       6.582   4.460  15.054  0.00  0.00    +0.000 P 
ATOM     10  O   UNL     1       7.139   5.528  14.096  0.00  0.00    +0.000 OA
BRANCH   9  11
ATOM     11  O   UNL     1       5.454   3.998  13.827  0.00  0.00    +0.000 OA
BRANCH  11  13
ATOM     12  C   UNL     1       4.537   3.280  11.691  0.00  0.00    +0.000 C 
ATOM     13  C   UNL     1       5.760   3.441  12.570  0.00  0.00    +0.000 C 
ENDBRANCH  11  13
ENDBRANCH   9  11
BRANCH   9  14
ATOM     14  O   UNL     1       7.711   4.922  16.281  0.00  0.00    +0.000 OA
BRANCH  14  15
ATOM     15  C   UNL     1       7.405   6.082  17.048  0.00  0.00    +0.000 C 
ATOM     16  C   UNL     1       7.719   5.810  18.506  0.00  0.00    +0.000 C 
ENDBRANCH  14  15
ENDBRANCH   9  14
ENDBRANCH   7   9
ENDBRANCH   1   8
BRANCH   3  17
ATOM     17  O   UNL     1       2.003   4.137  21.376  0.00  0.00    +0.000 OA
ATOM     18  C   UNL     1       1.361   2.881  21.225  0.00  0.00    +0.000 C 
ENDBRANCH   3  17
BRANCH   4  19
ATOM     19  O   UNL     1       1.410   6.703  21.127  0.00  0.00    +0.000 OA
ATOM     20  H   UNL     1       0.865   7.388  20.699  0.00  0.00    +0.000 HD
ENDBRANCH   4  19
BRANCH   5  21
ATOM     21  O   UNL     1       2.106   8.170  18.984  0.00  0.00    +0.000 OA
ATOM     22  C   UNL     1       2.216   8.874  17.756  0.00  0.00    +0.000 C 
ENDBRANCH   5  21
TORSDOF 9
ENDMDL
MODEL 2
REMARK VINA RESULT:      -6.2      0.956      3.087
REMARK  Name = 
REMARK  13 active torsions:
REMARK  status: ('A' for Active; 'I' for Inactive)
REMARK    1  A    between atoms: C_1  and  C_2
REMARK    2  A    between atoms: C_2  and  O_3
REMARK    3  A    between atoms: O_3  and  P_4
REMARK    4  A    between atoms: P_4  and  C_6
REMARK    5  A    between atoms: P_4  and  O_19
REMARK    6  A    between atoms: C_7  and  C_8
REMARK    7  A    between atoms: C_10  and  O_11
REMARK    8  A    between atoms: O_11  and  C_12
REMARK    9  A    between atoms: C_13  and  O_14
REMARK   10  A    between atoms: C_15  and  O_16
REMARK   11  A    between atoms: O_16  and  C_17
REMARK   12  A    between atoms: O_19  and  C_20
REMARK   13  A    between atoms: C_20  and  C_21
REMARK                            x       y       z     vdW  Elec       q    Type
REMARK                         _______ _______ _______ _____ _____    ______ ____
ROOT
ATOM      1  C   UNL     1       3.669   5.343  18.360  0.00  0.00    +0.000 A 
ATOM      2  C   UNL     1       3.191   4.521  19.391  0.00  0.00    +0.000 A 
ATOM      3  C   UNL     1       2.299   5.031  20.342  0.00  0.00    +0.000 A 
ATOM      4  C   UNL     1       1.878   6.366  20.243  0.00  0.00    +0.000 A 
ATOM      5  C   UNL     1       2.302   7.192  19.199  0.00  0.00    +0.000 A 
ATOM      6  C   UNL     1       3.196   6.664  18.260  0.00  0.00    +0.000 A 
ENDROOT
BRANCH   1   8
ATOM      7  C   UNL     1       5.337   5.712  16.520  0.00  0.00    +0.000 C 
ATOM      8  C   UNL     1       4.737   4.919  17.425  0.00  0.00    +0.000 C 
BRANCH   7   9
ATOM      9  P   UNL     1       6.847   5.255  15.517  0.00  0.00    +0.000 P 
ATOM     10  O   UNL     1       7.787   4.261  16.222  0.00  0.00    +0.000 OA
BRANCH   9  11
ATOM     11  O   UNL     1       7.762   6.553  16.203  0.00  0.00    +0.000 OA
BRANCH  11  13
ATOM     12  C   UNL     1       7.992   6.693  18.620  0.00  0.00    +0.000 C 
ATOM     13  C   UNL     1       7.431   7.299  17.351  0.00  0.00    +0.000 C 
ENDBRANCH  11  13
ENDBRANCH   9  11
BRANCH   9  14
ATOM     14  O   UNL     1       5.933   3.956  14.830  0.00  0.00    +0.000 OA
BRANCH  14  15
ATOM     15  C   UNL     1       6.104   3.698  13.440  0.00  0.00    +0.000 C 
ATOM     16  C   UNL     1       7.128   4.665  12.878  0.00  0.00    +0.000 C 
ENDBRANCH  14  15
ENDBRANCH   9  14
ENDBRANCH   7   9
ENDBRANCH   1   8
BRANCH   3  17
ATOM     17  O   UNL     1       1.812   4.358  21.439  0.00  0.00    +0.000 OA
ATOM     18  C   UNL     1       1.557   2.974  21.256  0.00  0.00    +0.000 C 
ENDBRANCH   3  17
BRANCH   4  19
ATOM     19  O   UNL     1       1.049   6.881  21.216  0.00  0.00    +0.000 OA
ATOM     20  H   UNL     1       0.194   7.033  20.774  0.00  0.00    +0.000 HD
ENDBRANCH   4  19
BRANCH   5  21
ATOM     21  O   UNL     1       1.822   8.475  19.194  0.00  0.00    +0.000 OA
ATOM     22  C   UNL     1       1.729   9.135  17.939  0.00  0.00    +0.000 C 
ENDBRANCH   5  21
TORSDOF 9
ENDMDL
MODEL 3
REMARK VINA RESULT:      -6.2      2.242      6.785
REMARK  Name = 
REMARK  13 active torsions:
REMARK  status: ('A' for Active; 'I' for Inactive)
REMARK    1  A    between atoms: C_1  and  C_2
REMARK    2  A    between atoms: C_2  and  O_3
REMARK    3  A    between atoms: O_3  and  P_4
REMARK    4  A    between atoms: P_4  and  C_6
REMARK    5  A    between atoms: P_4  and  O_19
REMARK    6  A    between atoms: C_7  and  C_8
REMARK    7  A    between atoms: C_10  and  O_11
REMARK    8  A    between atoms: O_11  and  C_12
REMARK    9  A    between atoms: C_13  and  O_14
REMARK   10  A    between atoms: C_15  and  O_16
REMARK   11  A    between atoms: O_16  and  C_17
REMARK   12  A    between atoms: O_19  and  C_20
REMARK   13  A    between atoms: C_20  and  C_21
REMARK                            x       y       z     vdW  Elec       q    Type
REMARK                         _______ _______ _______ _____ _____    ______ ____
ROOT
ATOM      1  C   UNL     1       5.492   4.850  18.080  0.00  0.00    +0.000 A 
ATOM      2  C   UNL     1       5.465   3.959  16.997  0.00  0.00    +0.000 A 
ATOM      3  C   UNL     1       6.229   4.218  15.852  0.00  0.00    +0.000 A 
ATOM      4  C   UNL     1       7.030   5.368  15.807  0.00  0.00    +0.000 A 
ATOM      5  C   UNL     1       7.111   6.248  16.890  0.00  0.00    +0.000 A 
ATOM      6  C   UNL     1       6.338   5.972  18.023  0.00  0.00    +0.000 A 
ENDROOT
BRANCH   1   8
ATOM      7  C   UNL     1       3.246   4.809  19.200  0.00  0.00    +0.000 C 
ATOM      8  C   UNL     1       4.587   4.726  19.246  0.00  0.00    +0.000 C 
BRANCH   7   9
ATOM      9  P   UNL     1       2.091   4.406  20.614  0.00  0.00    +0.000 P 
ATOM     10  O   UNL     1       0.648   4.103  20.174  0.00  0.00    +0.000 OA
BRANCH   9  11
ATOM     11  O   UNL     1       1.650   6.068  20.799  0.00  0.00    +0.000 OA
BRANCH  11  13
ATOM     12  C   UNL     1       1.438   8.457  20.398  0.00  0.00    +0.000 C 
ATOM     13  C   UNL     1       2.081   7.146  20.000  0.00  0.00    +0.000 C 
ENDBRANCH  11  13
ENDBRANCH   9  11
BRANCH   9  14
ATOM     14  O   UNL     1       2.532   2.743  20.431  0.00  0.00    +0.000 OA
BRANCH  14  15
ATOM     15  C   UNL     1       2.097   2.077  19.249  0.00  0.00    +0.000 C 
ATOM     16  C   UNL     1       3.288   1.414  18.586  0.00  0.00    +0.000 C 
ENDBRANCH  14  15
ENDBRANCH   9  14
ENDBRANCH   7   9
ENDBRANCH   1   8
BRANCH   3  17
ATOM     17  O   UNL     1       6.238   3.468  14.699  0.00  0.00    +0.000 OA
ATOM     18  C   UNL     1       5.341   3.882  13.680  0.00  0.00    +0.000 C 
ENDBRANCH   3  17
BRANCH   4  19
ATOM     19  O   UNL     1       7.731   5.651  14.655  0.00  0.00    +0.000 OA
ATOM     20  H   UNL     1       7.125   5.436  13.923  0.00  0.00    +0.000 HD
ENDBRANCH   4  19
BRANCH   5  21
ATOM     21  O   UNL     1       7.932   7.334  16.741  0.00  0.00    +0.000 OA
ATOM     22  C   UNL     1       7.863   8.348  17.734  0.00  0.00    +0.000 C 
ENDBRANCH   5  21
TORSDOF 9
ENDMDL
MODEL 4
REMARK VINA RESULT:      -6.1      2.262      6.717
REMARK  Name = 
REMARK  13 active torsions:
REMARK  status: ('A' for Active; 'I' for Inactive)
REMARK    1  A    between atoms: C_1  and  C_2
REMARK    2  A    between atoms: C_2  and  O_3
REMARK    3  A    between atoms: O_3  and  P_4
REMARK    4  A    between atoms: P_4  and  C_6
REMARK    5  A    between atoms: P_4  and  O_19
REMARK    6  A    between atoms: C_7  and  C_8
REMARK    7  A    between atoms: C_10  and  O_11
REMARK    8  A    between atoms: O_11  and  C_12
REMARK    9  A    between atoms: C_13  and  O_14
REMARK   10  A    between atoms: C_15  and  O_16
REMARK   11  A    between atoms: O_16  and  C_17
REMARK   12  A    between atoms: O_19  and  C_20
REMARK   13  A    between atoms: C_20  and  C_21
REMARK                            x       y       z     vdW  Elec       q    Type
REMARK                         _______ _______ _______ _____ _____    ______ ____
ROOT
ATOM      1  C   UNL     1       4.940   5.267  17.818  0.00  0.00    +0.000 A 
ATOM      2  C   UNL     1       5.867   6.320  17.794  0.00  0.00    +0.000 A 
ATOM      3  C   UNL     1       6.832   6.386  16.781  0.00  0.00    +0.000 A 
ATOM      4  C   UNL     1       6.851   5.399  15.785  0.00  0.00    +0.000 A 
ATOM      5  C   UNL     1       5.910   4.366  15.759  0.00  0.00    +0.000 A 
ATOM      6  C   UNL     1       4.956   4.316  16.782  0.00  0.00    +0.000 A 
ENDROOT
BRANCH   1   8
ATOM      7  C   UNL     1       2.680   5.262  18.910  0.00  0.00    +0.000 C 
ATOM      8  C   UNL     1       4.006   5.046  18.946  0.00  0.00    +0.000 C 
BRANCH   7   9
ATOM      9  P   UNL     1       1.466   4.751  20.238  0.00  0.00    +0.000 P 
ATOM     10  O   UNL     1       2.086   3.888  21.350  0.00  0.00    +0.000 OA
BRANCH   9  11
ATOM     11  O   UNL     1       1.062   3.301  19.385  0.00  0.00    +0.000 OA
BRANCH  11  13
ATOM     12  C   UNL     1       2.431   1.859  17.984  0.00  0.00    +0.000 C 
ATOM     13  C   UNL     1       1.816   2.112  19.344  0.00  0.00    +0.000 C 
ENDBRANCH  11  13
ENDBRANCH   9  11
BRANCH   9  14
ATOM     14  O   UNL     1       1.870   6.201  21.091  0.00  0.00    +0.000 OA
BRANCH  14  15
ATOM     15  C   UNL     1       1.658   7.437  20.417  0.00  0.00    +0.000 C 
ATOM     16  C   UNL     1       1.073   8.440  21.391  0.00  0.00    +0.000 C 
ENDBRANCH  14  15
ENDBRANCH   9  14
ENDBRANCH   7   9
ENDBRANCH   1   8
BRANCH   3  17
ATOM     17  O   UNL     1       7.838   7.319  16.681  0.00  0.00    +0.000 OA
ATOM     18  C   UNL     1       7.846   8.334  17.673  0.00  0.00    +0.000 C 
ENDBRANCH   3  17
BRANCH   4  19
ATOM     19  O   UNL     1       7.840   5.433  14.826  0.00  0.00    +0.000 OA
ATOM     20  H   UNL     1       8.647   5.711  15.296  0.00  0.00    +0.000 HD
ENDBRANCH   4  19
BRANCH   5  21
ATOM     21  O   UNL     1       6.015   3.461  14.736  0.00  0.00    +0.000 OA
ATOM     22  C   UNL     1       5.423   3.807  13.492  0.00  0.00    +0.000 C 
ENDBRANCH   5  21
TORSDOF 9
ENDMDL
MODEL 5
REMARK VINA RESULT:      -6.1      2.040      6.756
REMARK  Name = 
REMARK  13 active torsions:
REMARK  status: ('A' for Active; 'I' for Inactive)
REMARK    1  A    between atoms: C_1  and  C_2
REMARK    2  A    between atoms: C_2  and  O_3
REMARK    3  A    between atoms: O_3  and  P_4
REMARK    4  A    between atoms: P_4  and  C_6
REMARK    5  A    between atoms: P_4  and  O_19
REMARK    6  A    between atoms: C_7  and  C_8
REMARK    7  A    between atoms: C_10  and  O_11
REMARK    8  A    between atoms: O_11  and  C_12
REMARK    9  A    between atoms: C_13  and  O_14
REMARK   10  A    between atoms: C_15  and  O_16
REMARK   11  A    between atoms: O_16  and  C_17
REMARK   12  A    between atoms: O_19  and  C_20
REMARK   13  A    between atoms: C_20  and  C_21
REMARK                            x       y       z     vdW  Elec       q    Type
REMARK                         _______ _______ _______ _____ _____    ______ ____
ROOT
ATOM      1  C   UNL     1       4.852   4.754  16.898  0.00  0.00    +0.000 A 
ATOM      2  C   UNL     1       5.760   5.789  17.167  0.00  0.00    +0.000 A 
ATOM      3  C   UNL     1       6.827   6.035  16.294  0.00  0.00    +0.000 A 
ATOM      4  C   UNL     1       6.968   5.246  15.143  0.00  0.00    +0.000 A 
ATOM      5  C   UNL     1       6.052   4.239  14.827  0.00  0.00    +0.000 A 
ATOM      6  C   UNL     1       4.994   4.008  15.714  0.00  0.00    +0.000 A 
ENDROOT
BRANCH   1   8
ATOM      7  C   UNL     1       3.533   4.942  19.025  0.00  0.00    +0.000 C 
ATOM      8  C   UNL     1       3.806   4.333  17.858  0.00  0.00    +0.000 C 
BRANCH   7   9
ATOM      9  P   UNL     1       2.060   4.574  20.117  0.00  0.00    +0.000 P 
ATOM     10  O   UNL     1       2.369   4.637  21.623  0.00  0.00    +0.000 OA
BRANCH   9  11
ATOM     11  O   UNL     1       2.436   2.886  20.145  0.00  0.00    +0.000 OA
BRANCH  11  13
ATOM     12  C   UNL     1       0.532   2.323  18.739  0.00  0.00    +0.000 C 
ATOM     13  C   UNL     1       1.838   1.878  19.364  0.00  0.00    +0.000 C 
ENDBRANCH  11  13
ENDBRANCH   9  11
BRANCH   9  14
ATOM     14  O   UNL     1       1.683   6.262  20.088  0.00  0.00    +0.000 OA
BRANCH  14  15
ATOM     15  C   UNL     1       2.647   7.138  19.513  0.00  0.00    +0.000 C 
ATOM     16  C   UNL     1       1.930   8.217  18.726  0.00  0.00    +0.000 C 
ENDBRANCH  14  15
ENDBRANCH   9  14
ENDBRANCH   7   9
ENDBRANCH   1   8
BRANCH   3  17
ATOM     17  O   UNL     1       7.824   6.966  16.476  0.00  0.00    +0.000 OA
ATOM     18  C   UNL     1       7.702   7.791  17.623  0.00  0.00    +0.000 C 
ENDBRANCH   3  17
BRANCH   4  19
ATOM     19  O   UNL     1       8.054   5.451  14.319  0.00  0.00    +0.000 OA
ATOM     20  H   UNL     1       8.250   6.403  14.380  0.00  0.00    +0.000 HD
ENDBRANCH   4  19
BRANCH   5  21
ATOM     21  O   UNL     1       6.280   3.537  13.674  0.00  0.00    +0.000 OA
ATOM     22  C   UNL     1       5.309   3.636  12.642  0.00  0.00    +0.000 C 
ENDBRANCH   5  21
TORSDOF 9
ENDMDL
MODEL 6
REMARK VINA RESULT:      -6.1      2.012      6.633
REMARK  Name = 
REMARK  13 active torsions:
REMARK  status: ('A' for Active; 'I' for Inactive)
REMARK    1  A    between atoms: C_1  and  C_2
REMARK    2  A    between atoms: C_2  and  O_3
REMARK    3  A    between atoms: O_3  and  P_4
REMARK    4  A    between atoms: P_4  and  C_6
REMARK    5  A    between atoms: P_4  and  O_19
REMARK    6  A    between atoms: C_7  and  C_8
REMARK    7  A    between atoms: C_10  and  O_11
REMARK    8  A    between atoms: O_11  and  C_12
REMARK    9  A    between atoms: C_13  and  O_14
REMARK   10  A    between atoms: C_15  and  O_16
REMARK   11  A    between atoms: O_16  and  C_17
REMARK   12  A    between atoms: O_19  and  C_20
REMARK   13  A    between atoms: C_20  and  C_21
REMARK                            x       y       z     vdW  Elec       q    Type
REMARK                         _______ _______ _______ _____ _____    ______ ____
ROOT
ATOM      1  C   UNL     1       4.887   4.558  16.621  0.00  0.00    +0.000 A 
ATOM      2  C   UNL     1       5.095   3.854  15.425  0.00  0.00    +0.000 A 
ATOM      3  C   UNL     1       6.166   4.188  14.588  0.00  0.00    +0.000 A 
ATOM      4  C   UNL     1       7.036   5.222  14.964  0.00  0.00    +0.000 A 
ATOM      5  C   UNL     1       6.879   5.908  16.172  0.00  0.00    +0.000 A 
ATOM      6  C   UNL     1       5.801   5.560  16.993  0.00  0.00    +0.000 A 
ENDROOT
BRANCH   1   8
ATOM      7  C   UNL     1       3.552   4.795  18.733  0.00  0.00    +0.000 C 
ATOM      8  C   UNL     1       3.685   4.369  17.465  0.00  0.00    +0.000 C 
BRANCH   7   9
ATOM      9  P   UNL     1       1.961   4.783  19.715  0.00  0.00    +0.000 P 
ATOM     10  O   UNL     1       2.102   5.354  21.137  0.00  0.00    +0.000 OA
BRANCH   9  11
ATOM     11  O   UNL     1       2.301   3.210  20.349  0.00  0.00    +0.000 OA
BRANCH  11  13
ATOM     12  C   UNL     1       0.786   2.126  18.786  0.00  0.00    +0.000 C 
ATOM     13  C   UNL     1       1.903   1.977  19.797  0.00  0.00    +0.000 C 
ENDBRANCH  11  13
ENDBRANCH   9  11
BRANCH   9  14
ATOM     14  O   UNL     1       1.620   6.357  19.081  0.00  0.00    +0.000 OA
BRANCH  14  15
ATOM     15  C   UNL     1       2.624   7.355  19.231  0.00  0.00    +0.000 C 
ATOM     16  C   UNL     1       2.523   8.339  18.083  0.00  0.00    +0.000 C 
ENDBRANCH  14  15
ENDBRANCH   9  14
ENDBRANCH   7   9
ENDBRANCH   1   8
BRANCH   3  17
ATOM     17  O   UNL     1       6.439   3.629  13.360  0.00  0.00    +0.000 OA
ATOM     18  C   UNL     1       5.328   3.454  12.495  0.00  0.00    +0.000 C 
ENDBRANCH   3  17
BRANCH   4  19
ATOM     19  O   UNL     1       8.051   5.589  14.108  0.00  0.00    +0.000 OA
ATOM     20  H   UNL     1       8.849   5.652  14.664  0.00  0.00    +0.000 HD
ENDBRANCH   4  19
BRANCH   5  21
ATOM     21  O   UNL     1       7.791   6.893  16.444  0.00  0.00    +0.000 OA
ATOM     22  C   UNL     1       7.603   7.650  17.631  0.00  0.00    +0.000 C 
ENDBRANCH   5  21
TORSDOF 9
ENDMDL
MODEL 7
REMARK VINA RESULT:      -6.0      2.032      6.813
REMARK  Name = 
REMARK  13 active torsions:
REMARK  status: ('A' for Active; 'I' for Inactive)
REMARK    1  A    between atoms: C_1  and  C_2
REMARK    2  A    between atoms: C_2  and  O_3
REMARK    3  A    between atoms: O_3  and  P_4
REMARK    4  A    between atoms: P_4  and  C_6
REMARK    5  A    between atoms: P_4  and  O_19
REMARK    6  A    between atoms: C_7  and  C_8
REMARK    7  A    between atoms: C_10  and  O_11
REMARK    8  A    between atoms: O_11  and  C_12
REMARK    9  A    between atoms: C_13  and  O_14
REMARK   10  A    between atoms: C_15  and  O_16
REMARK   11  A    between atoms: O_16  and  C_17
REMARK   12  A    between atoms: O_19  and  C_20
REMARK   13  A    between atoms: C_20  and  C_21
REMARK                            x       y       z     vdW  Elec       q    Type
REMARK                         _______ _______ _______ _____ _____    ______ ____
ROOT
ATOM      1  C   UNL     1       5.090   4.305  16.408  0.00  0.00    +0.000 A 
ATOM      2  C   UNL     1       5.294   3.706  15.156  0.00  0.00    +0.000 A 
ATOM      3  C   UNL     1       6.327   4.151  14.322  0.00  0.00    +0.000 A 
ATOM      4  C   UNL     1       7.163   5.190  14.758  0.00  0.00    +0.000 A 
ATOM      5  C   UNL     1       7.011   5.773  16.019  0.00  0.00    +0.000 A 
ATOM      6  C   UNL     1       5.970   5.315  16.836  0.00  0.00    +0.000 A 
ENDROOT
BRANCH   1   8
ATOM      7  C   UNL     1       3.726   4.465  18.509  0.00  0.00    +0.000 C 
ATOM      8  C   UNL     1       3.920   3.999  17.264  0.00  0.00    +0.000 C 
BRANCH   7   9
ATOM      9  P   UNL     1       2.146   4.289  19.494  0.00  0.00    +0.000 P 
ATOM     10  O   UNL     1       0.907   3.982  18.635  0.00  0.00    +0.000 OA
BRANCH   9  11
ATOM     11  O   UNL     1       1.797   5.975  19.336  0.00  0.00    +0.000 OA
BRANCH  11  13
ATOM     12  C   UNL     1       2.268   7.922  17.955  0.00  0.00    +0.000 C 
ATOM     13  C   UNL     1       2.721   7.005  19.071  0.00  0.00    +0.000 C 
ENDBRANCH  11  13
ENDBRANCH   9  11
BRANCH   9  14
ATOM     14  O   UNL     1       2.496   2.602  19.653  0.00  0.00    +0.000 OA
BRANCH  14  15
ATOM     15  C   UNL     1       2.097   1.962  20.861  0.00  0.00    +0.000 C 
ATOM     16  C   UNL     1       1.932   3.006  21.946  0.00  0.00    +0.000 C 
ENDBRANCH  14  15
ENDBRANCH   9  14
ENDBRANCH   7   9
ENDBRANCH   1   8
BRANCH   3  17
ATOM     17  O   UNL     1       6.590   3.701  13.048  0.00  0.00    +0.000 OA
ATOM     18  C   UNL     1       5.470   3.245  12.306  0.00  0.00    +0.000 C 
ENDBRANCH   3  17
BRANCH   4  19
ATOM     19  O   UNL     1       8.138   5.667  13.909  0.00  0.00    +0.000 OA
ATOM     20  H   UNL     1       8.897   5.065  14.022  0.00  0.00    +0.000 HD
ENDBRANCH   4  19
BRANCH   5  21
ATOM     21  O   UNL     1       7.888   6.773  16.347  0.00  0.00    +0.000 OA
ATOM     22  C   UNL     1       7.591   7.554  17.495  0.00  0.00    +0.000 C 
ENDBRANCH   5  21
TORSDOF 9
ENDMDL
MODEL 8
REMARK VINA RESULT:      -5.9      2.210      6.665
REMARK  Name = 
REMARK  13 active torsions:
REMARK  status: ('A' for Active; 'I' for Inactive)
REMARK    1  A    between atoms: C_1  and  C_2
REMARK    2  A    between atoms: C_2  and  O_3
REMARK    3  A    between atoms: O_3  and  P_4
REMARK    4  A    between atoms: P_4  and  C_6
REMARK    5  A    between atoms: P_4  and  O_19
REMARK    6  A    between atoms: C_7  and  C_8
REMARK    7  A    between atoms: C_10  and  O_11
REMARK    8  A    between atoms: O_11  and  C_12
REMARK    9  A    between atoms: C_13  and  O_14
REMARK   10  A    between atoms: C_15  and  O_16
REMARK   11  A    between atoms: O_16  and  C_17
REMARK   12  A    between atoms: O_19  and  C_20
REMARK   13  A    between atoms: C_20  and  C_21
REMARK                            x       y       z     vdW  Elec       q    Type
REMARK                         _______ _______ _______ _____ _____    ______ ____
ROOT
ATOM      1  C   UNL     1       5.096   4.708  17.365  0.00  0.00    +0.000 A 
ATOM      2  C   UNL     1       5.188   3.885  16.232  0.00  0.00    +0.000 A 
ATOM      3  C   UNL     1       6.139   4.157  15.240  0.00  0.00    +0.000 A 
ATOM      4  C   UNL     1       7.005   5.249  15.400  0.00  0.00    +0.000 A 
ATOM      5  C   UNL     1       6.965   6.056  16.540  0.00  0.00    +0.000 A 
ATOM      6  C   UNL     1       6.006   5.769  17.518  0.00  0.00    +0.000 A 
ENDROOT
BRANCH   1   8
ATOM      7  C   UNL     1       3.221   5.580  18.788  0.00  0.00    +0.000 C 
ATOM      8  C   UNL     1       4.010   4.579  18.364  0.00  0.00    +0.000 C 
BRANCH   7   9
ATOM      9  P   UNL     1       1.697   5.379  19.852  0.00  0.00    +0.000 P 
ATOM     10  O   UNL     1       1.919   4.505  21.099  0.00  0.00    +0.000 OA
BRANCH   9  11
ATOM     11  O   UNL     1       1.215   3.961  18.986  0.00  0.00    +0.000 OA
BRANCH  11  13
ATOM     12  C   UNL     1       1.967   1.651  18.876  0.00  0.00    +0.000 C 
ATOM     13  C   UNL     1       1.047   2.667  19.518  0.00  0.00    +0.000 C 
ENDBRANCH  11  13
ENDBRANCH   9  11
BRANCH   9  14
ATOM     14  O   UNL     1       2.179   6.797  20.719  0.00  0.00    +0.000 OA
BRANCH  14  15
ATOM     15  C   UNL     1       1.606   8.036  20.316  0.00  0.00    +0.000 C 
ATOM     16  C   UNL     1       0.843   8.633  21.482  0.00  0.00    +0.000 C 
ENDBRANCH  14  15
ENDBRANCH   9  14
ENDBRANCH   7   9
ENDBRANCH   1   8
BRANCH   3  17
ATOM     17  O   UNL     1       6.288   3.477  14.053  0.00  0.00    +0.000 OA
ATOM     18  C   UNL     1       5.338   3.776  13.042  0.00  0.00    +0.000 C 
ENDBRANCH   3  17
BRANCH   4  19
ATOM     19  O   UNL     1       7.897   5.550  14.393  0.00  0.00    +0.000 OA
ATOM     20  H   UNL     1       7.350   5.849  13.643  0.00  0.00    +0.000 HD
ENDBRANCH   4  19
BRANCH   5  21
ATOM     21  O   UNL     1       7.862   7.089  16.596  0.00  0.00    +0.000 OA
ATOM     22  C   UNL     1       7.755   7.992  17.687  0.00  0.00    +0.000 C 
ENDBRANCH   5  21
TORSDOF 9
ENDMDL
MODEL 9
REMARK VINA RESULT:      -5.9      0.666      2.880
REMARK  Name = 
REMARK  13 active torsions:
REMARK  status: ('A' for Active; 'I' for Inactive)
REMARK    1  A    between atoms: C_1  and  C_2
REMARK    2  A    between atoms: C_2  and  O_3
REMARK    3  A    between atoms: O_3  and  P_4
REMARK    4  A    between atoms: P_4  and  C_6
REMARK    5  A    between atoms: P_4  and  O_19
REMARK    6  A    between atoms: C_7  and  C_8
REMARK    7  A    between atoms: C_10  and  O_11
REMARK    8  A    between atoms: O_11  and  C_12
REMARK    9  A    between atoms: C_13  and  O_14
REMARK   10  A    between atoms: C_15  and  O_16
REMARK   11  A    between atoms: O_16  and  C_17
REMARK   12  A    between atoms: O_19  and  C_20
REMARK   13  A    between atoms: C_20  and  C_21
REMARK                            x       y       z     vdW  Elec       q    Type
REMARK                         _______ _______ _______ _____ _____    ______ ____
ROOT
ATOM      1  C   UNL     1       3.700   5.470  18.217  0.00  0.00    +0.000 A 
ATOM      2  C   UNL     1       3.249   6.794  18.102  0.00  0.00    +0.000 A 
ATOM      3  C   UNL     1       2.383   7.328  19.064  0.00  0.00    +0.000 A 
ATOM      4  C   UNL     1       1.985   6.533  20.148  0.00  0.00    +0.000 A 
ATOM      5  C   UNL     1       2.457   5.227  20.311  0.00  0.00    +0.000 A 
ATOM      6  C   UNL     1       3.319   4.711  19.338  0.00  0.00    +0.000 A 
ENDROOT
BRANCH   1   8
ATOM      7  C   UNL     1       5.554   5.304  16.533  0.00  0.00    +0.000 C 
ATOM      8  C   UNL     1       4.478   4.792  17.155  0.00  0.00    +0.000 C 
BRANCH   7   9
ATOM      9  P   UNL     1       6.684   4.362  15.378  0.00  0.00    +0.000 P 
ATOM     10  O   UNL     1       7.406   5.250  14.351  0.00  0.00    +0.000 OA
BRANCH   9  11
ATOM     11  O   UNL     1       5.409   4.132  14.232  0.00  0.00    +0.000 OA
BRANCH  11  13
ATOM     12  C   UNL     1       5.848   2.915  12.173  0.00  0.00    +0.000 C 
ATOM     13  C   UNL     1       5.508   4.235  12.831  0.00  0.00    +0.000 C 
ENDBRANCH  11  13
ENDBRANCH   9  11
BRANCH   9  14
ATOM     14  O   UNL     1       7.960   4.591  16.524  0.00  0.00    +0.000 OA
BRANCH  14  15
ATOM     15  C   UNL     1       7.614   4.555  17.905  0.00  0.00    +0.000 C 
ATOM     16  C   UNL     1       7.901   5.908  18.525  0.00  0.00    +0.000 C 
ENDBRANCH  14  15
ENDBRANCH   9  14
ENDBRANCH   7   9
ENDBRANCH   1   8
BRANCH   3  17
ATOM     17  O   UNL     1       1.813   8.580  19.033  0.00  0.00    +0.000 OA
ATOM     18  C   UNL     1       1.670   9.167  17.749  0.00  0.00    +0.000 C 
ENDBRANCH   3  17
BRANCH   4  19
ATOM     19  O   UNL     1       1.084   7.042  21.058  0.00  0.00    +0.000 OA
ATOM     20  H   UNL     1       0.239   7.108  20.577  0.00  0.00    +0.000 HD
ENDBRANCH   4  19
BRANCH   5  21
ATOM     21  O   UNL     1       2.011   4.543  21.411  0.00  0.00    +0.000 OA
ATOM     22  C   UNL     1       1.764   3.153  21.263  0.00  0.00    +0.000 C 
ENDBRANCH   5  21
TORSDOF 9
ENDMDL
