MODEL 1
REMARK VINA RESULT:      -6.4      0.000      0.000
REMARK  Name = 
REMARK  6 active torsions:
REMARK  status: ('A' for Active; 'I' for Inactive)
REMARK    1  A    between atoms: C_1  and  C_2
REMARK    2  A    between atoms: C_12  and  N_13
REMARK    3  A    between atoms: N_13  and  C_14
REMARK    4  A    between atoms: N_13  and  C_15
REMARK    5  A    between atoms: C_18  and  C_19
REMARK    6  A    between atoms: N_25  and  C_26
REMARK                            x       y       z     vdW  Elec       q    Type
REMARK                         _______ _______ _______ _____ _____    ______ ____
ROOT
ATOM      1  C   UNL     1       1.462   8.986  17.834  0.00  0.00    +0.000 C 
ATOM      2  C   UNL     1       0.941  10.313  18.462  0.00  0.00    +0.000 C 
ATOM      3  C   UNL     1       1.549  11.666  19.073  0.00  0.00    +0.000 C 
ATOM      4  C   UNL     1       1.660  13.102  18.393  0.00  0.00    +0.000 C 
ATOM      5  C   UNL     1       0.781  14.088  19.219  0.00  0.00    +0.000 C 
ATOM      6  C   UNL     1       0.566  13.334  20.548  0.00  0.00    +0.000 C 
ATOM      7  C   UNL     1      -0.686  13.701  21.357  0.00  0.00    +0.000 C 
ATOM      8  C   UNL     1      -0.524  15.061  21.989  0.00  0.00    +0.000 C 
ATOM      9  C   UNL     1      -1.718  15.410  22.807  0.00  0.00    +0.000 C 
ATOM     10  C   UNL     1      -2.745  14.569  23.101  0.00  0.00    +0.000 C 
ATOM     11  C   UNL     1      -3.706  15.114  24.141  0.00  0.00    +0.000 C 
ATOM     12  C   UNL     1      -5.118  14.557  23.955  0.00  0.00    +0.000 C 
ATOM     13  C   UNL     1      -4.994  12.966  24.041  0.00  0.00    +0.000 C 
ATOM     14  C   UNL     1      -3.517  12.364  23.914  0.00  0.00    +0.000 C 
ATOM     15  C   UNL     1      -2.732  13.048  22.744  0.00  0.00    +0.000 C 
ATOM     16  C   UNL     1      -3.589  12.654  21.483  0.00  0.00    +0.000 C 
ATOM     17  C   UNL     1      -1.182  12.674  22.476  0.00  0.00    +0.000 C 
ATOM     18  C   UNL     1      -0.889  11.181  22.137  0.00  0.00    +0.000 C 
ATOM     19  C   UNL     1       0.436  11.018  21.378  0.00  0.00    +0.000 C 
ATOM     20  C   UNL     1       0.421  11.915  20.079  0.00  0.00    +0.000 C 
ATOM     21  C   UNL     1      -0.807  11.614  19.160  0.00  0.00    +0.000 C 
ATOM     22  N   UNL     1      -0.513  10.299  18.648  0.00  0.00    +0.000 NA
ATOM     23  C   UNL     1      -1.352   9.996  17.480  0.00  0.00    +0.000 C 
ENDROOT
BRANCH  12  24
ATOM     24  N   UNL     1      -5.757  15.140  22.712  0.00  0.00    +0.000 NA
ATOM     25  C   UNL     1      -6.875  14.314  22.207  0.00  0.00    +0.000 C 
ATOM     26  C   UNL     1      -6.364  16.487  22.950  0.00  0.00    +0.000 C 
ENDBRANCH  12  24
TORSDOF 1
ENDMDL
MODEL 2
REMARK VINA RESULT:      -6.0      1.011      1.170
REMARK  Name = 
REMARK  6 active torsions:
REMARK  status: ('A' for Active; 'I' for Inactive)
REMARK    1  A    between atoms: C_1  and  C_2
REMARK    2  A    between atoms: C_12  and  N_13
REMARK    3  A    between atoms: N_13  and  C_14
REMARK    4  A    between atoms: N_13  and  C_15
REMARK    5  A    between atoms: C_18  and  C_19
REMARK    6  A    between atoms: N_25  and  C_26
REMARK                            x       y       z     vdW  Elec       q    Type
REMARK                         _______ _______ _______ _____ _____    ______ ____
ROOT
ATOM      1  C   UNL     1       1.332   9.268  19.113  0.00  0.00    +0.000 C 
ATOM      2  C   UNL     1       0.663  10.600  19.563  0.00  0.00    +0.000 C 
ATOM      3  C   UNL     1       1.108  12.011  20.185  0.00  0.00    +0.000 C 
ATOM      4  C   UNL     1       1.279  13.412  19.447  0.00  0.00    +0.000 C 
ATOM      5  C   UNL     1       0.236  14.398  20.053  0.00  0.00    +0.000 C 
ATOM      6  C   UNL     1      -0.172  13.707  21.371  0.00  0.00    +0.000 C 
ATOM      7  C   UNL     1      -1.556  14.057  21.935  0.00  0.00    +0.000 C 
ATOM      8  C   UNL     1      -1.555  15.455  22.503  0.00  0.00    +0.000 C 
ATOM      9  C   UNL     1      -2.883  15.790  23.087  0.00  0.00    +0.000 C 
ATOM     10  C   UNL     1      -3.912  14.919  23.256  0.00  0.00    +0.000 C 
ATOM     11  C   UNL     1      -5.055  15.473  24.086  0.00  0.00    +0.000 C 
ATOM     12  C   UNL     1      -6.393  14.841  23.701  0.00  0.00    +0.000 C 
ATOM     13  C   UNL     1      -6.226  13.263  23.902  0.00  0.00    +0.000 C 
ATOM     14  C   UNL     1      -4.728  12.726  24.060  0.00  0.00    +0.000 C 
ATOM     15  C   UNL     1      -3.782  13.384  22.998  0.00  0.00    +0.000 C 
ATOM     16  C   UNL     1      -4.398  12.882  21.638  0.00  0.00    +0.000 C 
ATOM     17  C   UNL     1      -2.196  13.069  23.016  0.00  0.00    +0.000 C 
ATOM     18  C   UNL     1      -1.794  11.576  22.822  0.00  0.00    +0.000 C 
ATOM     19  C   UNL     1      -0.355  11.434  22.306  0.00  0.00    +0.000 C 
ATOM     20  C   UNL     1      -0.182  12.260  20.971  0.00  0.00    +0.000 C 
ATOM     21  C   UNL     1      -1.225  11.852  19.880  0.00  0.00    +0.000 C 
ATOM     22  N   UNL     1      -0.799  10.527  19.505  0.00  0.00    +0.000 NA
ATOM     23  C   UNL     1      -1.417  10.123  18.233  0.00  0.00    +0.000 C 
ENDROOT
BRANCH  12  24
ATOM     24  N   UNL     1      -6.834  15.326  22.335  0.00  0.00    +0.000 NA
ATOM     25  C   UNL     1      -7.718  14.360  21.647  0.00  0.00    +0.000 C 
ATOM     26  C   UNL     1      -7.637  16.587  22.400  0.00  0.00    +0.000 C 
ENDBRANCH  12  24
TORSDOF 1
ENDMDL
MODEL 3
REMARK VINA RESULT:      -6.0      9.664     11.496
REMARK  Name = 
REMARK  6 active torsions:
REMARK  status: ('A' for Active; 'I' for Inactive)
REMARK    1  A    between atoms: C_1  and  C_2
REMARK    2  A    between atoms: C_12  and  N_13
REMARK    3  A    between atoms: N_13  and  C_14
REMARK    4  A    between atoms: N_13  and  C_15
REMARK    5  A    between atoms: C_18  and  C_19
REMARK    6  A    between atoms: N_25  and  C_26
REMARK                            x       y       z     vdW  Elec       q    Type
REMARK                         _______ _______ _______ _____ _____    ______ ____
ROOT
ATOM      1  C   UNL     1      11.364  15.757  16.700  0.00  0.00    +0.000 C 
ATOM      2  C   UNL     1      11.036  14.913  17.968  0.00  0.00    +0.000 C 
ATOM      3  C   UNL     1      10.659  13.396  18.330  0.00  0.00    +0.000 C 
ATOM      4  C   UNL     1      11.594  12.256  18.933  0.00  0.00    +0.000 C 
ATOM      5  C   UNL     1      11.030  11.871  20.333  0.00  0.00    +0.000 C 
ATOM      6  C   UNL     1       9.597  12.443  20.302  0.00  0.00    +0.000 C 
ATOM      7  C   UNL     1       8.955  12.775  21.656  0.00  0.00    +0.000 C 
ATOM      8  C   UNL     1       8.587  11.508  22.388  0.00  0.00    +0.000 C 
ATOM      9  C   UNL     1       7.928  11.820  23.686  0.00  0.00    +0.000 C 
ATOM     10  C   UNL     1       7.544  13.056  24.098  0.00  0.00    +0.000 C 
ATOM     11  C   UNL     1       6.691  13.048  25.353  0.00  0.00    +0.000 C 
ATOM     12  C   UNL     1       6.856  14.337  26.159  0.00  0.00    +0.000 C 
ATOM     13  C   UNL     1       6.458  15.539  25.181  0.00  0.00    +0.000 C 
ATOM     14  C   UNL     1       6.373  15.184  23.624  0.00  0.00    +0.000 C 
ATOM     15  C   UNL     1       7.601  14.318  23.179  0.00  0.00    +0.000 C 
ATOM     16  C   UNL     1       8.815  15.285  23.450  0.00  0.00    +0.000 C 
ATOM     17  C   UNL     1       7.693  13.755  21.666  0.00  0.00    +0.000 C 
ATOM     18  C   UNL     1       7.720  14.830  20.538  0.00  0.00    +0.000 C 
ATOM     19  C   UNL     1       8.348  14.286  19.246  0.00  0.00    +0.000 C 
ATOM     20  C   UNL     1       9.793  13.727  19.549  0.00  0.00    +0.000 C 
ATOM     21  C   UNL     1      10.713  14.792  20.230  0.00  0.00    +0.000 C 
ATOM     22  N   UNL     1      10.943  15.744  19.172  0.00  0.00    +0.000 NA
ATOM     23  C   UNL     1      12.083  16.615  19.495  0.00  0.00    +0.000 C 
ENDROOT
BRANCH  12  24
ATOM     24  N   UNL     1       8.226  14.388  26.803  0.00  0.00    +0.000 NA
ATOM     25  C   UNL     1       8.696  15.771  27.031  0.00  0.00    +0.000 C 
ATOM     26  C   UNL     1       8.252  13.755  28.158  0.00  0.00    +0.000 C 
ENDBRANCH  12  24
TORSDOF 1
ENDMDL
MODEL 4
REMARK VINA RESULT:      -5.5      1.767      3.352
REMARK  Name = 
REMARK  6 active torsions:
REMARK  status: ('A' for Active; 'I' for Inactive)
REMARK    1  A    between atoms: C_1  and  C_2
REMARK    2  A    between atoms: C_12  and  N_13
REMARK    3  A    between atoms: N_13  and  C_14
REMARK    4  A    between atoms: N_13  and  C_15
REMARK    5  A    between atoms: C_18  and  C_19
REMARK    6  A    between atoms: N_25  and  C_26
REMARK                            x       y       z     vdW  Elec       q    Type
REMARK                         _______ _______ _______ _____ _____    ______ ____
ROOT
ATOM      1  C   UNL     1       1.742   9.787  17.728  0.00  0.00    +0.000 C 
ATOM      2  C   UNL     1       1.053  10.306  19.025  0.00  0.00    +0.000 C 
ATOM      3  C   UNL     1       0.235   9.703  20.268  0.00  0.00    +0.000 C 
ATOM      4  C   UNL     1       0.747   9.417  21.749  0.00  0.00    +0.000 C 
ATOM      5  C   UNL     1      -0.058  10.337  22.715  0.00  0.00    +0.000 C 
ATOM      6  C   UNL     1      -1.267  10.770  21.858  0.00  0.00    +0.000 C 
ATOM      7  C   UNL     1      -1.944  12.094  22.238  0.00  0.00    +0.000 C 
ATOM      8  C   UNL     1      -2.727  11.935  23.518  0.00  0.00    +0.000 C 
ATOM      9  C   UNL     1      -3.420  13.204  23.875  0.00  0.00    +0.000 C 
ATOM     10  C   UNL     1      -3.496  14.309  23.088  0.00  0.00    +0.000 C 
ATOM     11  C   UNL     1      -4.457  15.365  23.602  0.00  0.00    +0.000 C 
ATOM     12  C   UNL     1      -4.040  16.771  23.169  0.00  0.00    +0.000 C 
ATOM     13  C   UNL     1      -3.978  16.755  21.572  0.00  0.00    +0.000 C 
ATOM     14  C   UNL     1      -3.977  15.313  20.879  0.00  0.00    +0.000 C 
ATOM     15  C   UNL     1      -2.990  14.341  21.610  0.00  0.00    +0.000 C 
ATOM     16  C   UNL     1      -1.598  15.046  21.398  0.00  0.00    +0.000 C 
ATOM     17  C   UNL     1      -2.882  12.794  21.151  0.00  0.00    +0.000 C 
ATOM     18  C   UNL     1      -2.432  12.550  19.679  0.00  0.00    +0.000 C 
ATOM     19  C   UNL     1      -1.833  11.148  19.490  0.00  0.00    +0.000 C 
ATOM     20  C   UNL     1      -0.641  10.937  20.504  0.00  0.00    +0.000 C 
ATOM     21  C   UNL     1       0.451  12.049  20.379  0.00  0.00    +0.000 C 
ATOM     22  N   UNL     1       1.053  11.769  19.099  0.00  0.00    +0.000 NA
ATOM     23  C   UNL     1       2.342  12.464  18.969  0.00  0.00    +0.000 C 
ENDROOT
BRANCH  12  24
ATOM     24  N   UNL     1      -2.791  17.204  23.910  0.00  0.00    +0.000 NA
ATOM     25  C   UNL     1      -2.142  18.380  23.291  0.00  0.00    +0.000 C 
ATOM     26  C   UNL     1      -3.072  17.629  25.317  0.00  0.00    +0.000 C 
ENDBRANCH  12  24
TORSDOF 1
ENDMDL
MODEL 5
REMARK VINA RESULT:      -5.5      7.115     11.427
REMARK  Name = 
REMARK  6 active torsions:
REMARK  status: ('A' for Active; 'I' for Inactive)
REMARK    1  A    between atoms: C_1  and  C_2
REMARK    2  A    between atoms: C_12  and  N_13
REMARK    3  A    between atoms: N_13  and  C_14
REMARK    4  A    between atoms: N_13  and  C_15
REMARK    5  A    between atoms: C_18  and  C_19
REMARK    6  A    between atoms: N_25  and  C_26
REMARK                            x       y       z     vdW  Elec       q    Type
REMARK                         _______ _______ _______ _____ _____    ______ ____
ROOT
ATOM      1  C   UNL     1       1.139  16.125  18.881  0.00  0.00    +0.000 C 
ATOM      2  C   UNL     1       2.482  15.743  19.570  0.00  0.00    +0.000 C 
ATOM      3  C   UNL     1       3.263  16.071  20.933  0.00  0.00    +0.000 C 
ATOM      4  C   UNL     1       3.392  15.177  22.244  0.00  0.00    +0.000 C 
ATOM      5  C   UNL     1       4.897  14.816  22.426  0.00  0.00    +0.000 C 
ATOM      6  C   UNL     1       5.613  15.841  21.521  0.00  0.00    +0.000 C 
ATOM      7  C   UNL     1       6.998  15.445  20.991  0.00  0.00    +0.000 C 
ATOM      8  C   UNL     1       8.020  15.497  22.100  0.00  0.00    +0.000 C 
ATOM      9  C   UNL     1       9.375  15.152  21.587  0.00  0.00    +0.000 C 
ATOM     10  C   UNL     1       9.703  14.981  20.279  0.00  0.00    +0.000 C 
ATOM     11  C   UNL     1      11.195  14.868  20.030  0.00  0.00    +0.000 C 
ATOM     12  C   UNL     1      11.501  14.024  18.792  0.00  0.00    +0.000 C 
ATOM     13  C   UNL     1      10.749  14.725  17.568  0.00  0.00    +0.000 C 
ATOM     14  C   UNL     1       9.636  15.808  17.949  0.00  0.00    +0.000 C 
ATOM     15  C   UNL     1       8.718  15.286  19.106  0.00  0.00    +0.000 C 
ATOM     16  C   UNL     1       8.042  14.019  18.458  0.00  0.00    +0.000 C 
ATOM     17  C   UNL     1       7.573  16.242  19.731  0.00  0.00    +0.000 C 
ATOM     18  C   UNL     1       6.475  16.730  18.738  0.00  0.00    +0.000 C 
ATOM     19  C   UNL     1       5.186  17.134  19.468  0.00  0.00    +0.000 C 
ATOM     20  C   UNL     1       4.674  15.931  20.354  0.00  0.00    +0.000 C 
ATOM     21  C   UNL     1       4.476  14.622  19.523  0.00  0.00    +0.000 C 
ATOM     22  N   UNL     1       3.336  14.932  18.698  0.00  0.00    +0.000 NA
ATOM     23  C   UNL     1       2.762  13.706  18.122  0.00  0.00    +0.000 C 
ENDROOT
BRANCH  12  24
ATOM     24  N   UNL     1      11.192  12.565  19.057  0.00  0.00    +0.000 NA
ATOM     25  C   UNL     1      10.924  11.807  17.816  0.00  0.00    +0.000 C 
ATOM     26  C   UNL     1      12.332  11.840  19.700  0.00  0.00    +0.000 C 
ENDBRANCH  12  24
TORSDOF 1
ENDMDL
MODEL 6
REMARK VINA RESULT:      -5.3      7.085     11.402
REMARK  Name = 
REMARK  6 active torsions:
REMARK  status: ('A' for Active; 'I' for Inactive)
REMARK    1  A    between atoms: C_1  and  C_2
REMARK    2  A    between atoms: C_12  and  N_13
REMARK    3  A    between atoms: N_13  and  C_14
REMARK    4  A    between atoms: N_13  and  C_15
REMARK    5  A    between atoms: C_18  and  C_19
REMARK    6  A    between atoms: N_25  and  C_26
REMARK                            x       y       z     vdW  Elec       q    Type
REMARK                         _______ _______ _______ _____ _____    ______ ____
ROOT
ATOM      1  C   UNL     1       1.371  18.308  19.062  0.00  0.00    +0.000 C 
ATOM      2  C   UNL     1       2.460  17.267  19.458  0.00  0.00    +0.000 C 
ATOM      3  C   UNL     1       2.885  16.413  20.748  0.00  0.00    +0.000 C 
ATOM      4  C   UNL     1       2.607  14.875  21.056  0.00  0.00    +0.000 C 
ATOM      5  C   UNL     1       3.984  14.151  21.135  0.00  0.00    +0.000 C 
ATOM      6  C   UNL     1       4.981  15.315  21.316  0.00  0.00    +0.000 C 
ATOM      7  C   UNL     1       6.424  15.068  20.855  0.00  0.00    +0.000 C 
ATOM      8  C   UNL     1       7.126  14.130  21.806  0.00  0.00    +0.000 C 
ATOM      9  C   UNL     1       8.540  13.914  21.388  0.00  0.00    +0.000 C 
ATOM     10  C   UNL     1       9.181  14.589  20.398  0.00  0.00    +0.000 C 
ATOM     11  C   UNL     1      10.675  14.330  20.345  0.00  0.00    +0.000 C 
ATOM     12  C   UNL     1      11.228  14.485  18.929  0.00  0.00    +0.000 C 
ATOM     13  C   UNL     1      10.869  15.971  18.461  0.00  0.00    +0.000 C 
ATOM     14  C   UNL     1       9.775  16.743  19.337  0.00  0.00    +0.000 C 
ATOM     15  C   UNL     1       8.555  15.813  19.656  0.00  0.00    +0.000 C 
ATOM     16  C   UNL     1       7.981  15.502  18.223  0.00  0.00    +0.000 C 
ATOM     17  C   UNL     1       7.360  16.339  20.609  0.00  0.00    +0.000 C 
ATOM     18  C   UNL     1       6.592  17.600  20.108  0.00  0.00    +0.000 C 
ATOM     19  C   UNL     1       5.191  17.699  20.728  0.00  0.00    +0.000 C 
ATOM     20  C   UNL     1       4.383  16.373  20.435  0.00  0.00    +0.000 C 
ATOM     21  C   UNL     1       4.313  16.043  18.909  0.00  0.00    +0.000 C 
ATOM     22  N   UNL     1       3.449  17.076  18.394  0.00  0.00    +0.000 NA
ATOM     23  C   UNL     1       2.958  16.722  17.054  0.00  0.00    +0.000 C 
ENDROOT
BRANCH  12  24
ATOM     24  N   UNL     1      10.758  13.345  18.049  0.00  0.00    +0.000 NA
ATOM     25  C   UNL     1      11.363  13.381  16.700  0.00  0.00    +0.000 C 
ATOM     26  C   UNL     1      11.133  12.002  18.592  0.00  0.00    +0.000 C 
ENDBRANCH  12  24
TORSDOF 1
ENDMDL
MODEL 7
REMARK VINA RESULT:      -5.3      8.859     10.513
REMARK  Name = 
REMARK  6 active torsions:
REMARK  status: ('A' for Active; 'I' for Inactive)
REMARK    1  A    between atoms: C_1  and  C_2
REMARK    2  A    between atoms: C_12  and  N_13
REMARK    3  A    between atoms: N_13  and  C_14
REMARK    4  A    between atoms: N_13  and  C_15
REMARK    5  A    between atoms: C_18  and  C_19
REMARK    6  A    between atoms: N_25  and  C_26
REMARK                            x       y       z     vdW  Elec       q    Type
REMARK                         _______ _______ _______ _____ _____    ______ ____
ROOT
ATOM      1  C   UNL     1      11.392  13.198  17.057  0.00  0.00    +0.000 C 
ATOM      2  C   UNL     1      10.215  13.566  18.010  0.00  0.00    +0.000 C 
ATOM      3  C   UNL     1       9.119  14.728  18.162  0.00  0.00    +0.000 C 
ATOM      4  C   UNL     1       7.578  14.698  17.761  0.00  0.00    +0.000 C 
ATOM      5  C   UNL     1       6.745  14.863  19.066  0.00  0.00    +0.000 C 
ATOM      6  C   UNL     1       7.777  15.415  20.072  0.00  0.00    +0.000 C 
ATOM      7  C   UNL     1       7.500  15.155  21.559  0.00  0.00    +0.000 C 
ATOM      8  C   UNL     1       6.359  16.018  22.040  0.00  0.00    +0.000 C 
ATOM      9  C   UNL     1       6.107  15.801  23.492  0.00  0.00    +0.000 C 
ATOM     10  C   UNL     1       6.891  15.069  24.327  0.00  0.00    +0.000 C 
ATOM     11  C   UNL     1       6.527  15.212  25.793  0.00  0.00    +0.000 C 
ATOM     12  C   UNL     1       6.882  13.956  26.590  0.00  0.00    +0.000 C 
ATOM     13  C   UNL     1       8.450  13.719  26.391  0.00  0.00    +0.000 C 
ATOM     14  C   UNL     1       9.142  14.534  25.201  0.00  0.00    +0.000 C 
ATOM     15  C   UNL     1       8.271  14.475  23.900  0.00  0.00    +0.000 C 
ATOM     16  C   UNL     1       8.260  12.935  23.568  0.00  0.00    +0.000 C 
ATOM     17  C   UNL     1       8.717  15.302  22.585  0.00  0.00    +0.000 C 
ATOM     18  C   UNL     1      10.102  14.925  21.978  0.00  0.00    +0.000 C 
ATOM     19  C   UNL     1      10.202  15.318  20.497  0.00  0.00    +0.000 C 
ATOM     20  C   UNL     1       9.016  14.659  19.688  0.00  0.00    +0.000 C 
ATOM     21  C   UNL     1       8.963  13.107  19.868  0.00  0.00    +0.000 C 
ATOM     22  N   UNL     1      10.134  12.659  19.158  0.00  0.00    +0.000 NA
ATOM     23  C   UNL     1      10.058  11.215  18.889  0.00  0.00    +0.000 C 
ENDROOT
BRANCH  12  24
ATOM     24  N   UNL     1       5.952  12.817  26.224  0.00  0.00    +0.000 NA
ATOM     25  C   UNL     1       6.636  11.506  26.219  0.00  0.00    +0.000 C 
ATOM     26  C   UNL     1       4.830  12.650  27.200  0.00  0.00    +0.000 C 
ENDBRANCH  12  24
TORSDOF 1
ENDMDL
MODEL 8
REMARK VINA RESULT:      -5.3      2.341      6.797
REMARK  Name = 
REMARK  6 active torsions:
REMARK  status: ('A' for Active; 'I' for Inactive)
REMARK    1  A    between atoms: C_1  and  C_2
REMARK    2  A    between atoms: C_12  and  N_13
REMARK    3  A    between atoms: N_13  and  C_14
REMARK    4  A    between atoms: N_13  and  C_15
REMARK    5  A    between atoms: C_18  and  C_19
REMARK    6  A    between atoms: N_25  and  C_26
REMARK                            x       y       z     vdW  Elec       q    Type
REMARK                         _______ _______ _______ _____ _____    ______ ____
ROOT
ATOM      1  C   UNL     1      -7.596  13.597  24.189  0.00  0.00    +0.000 C 
ATOM      2  C   UNL     1      -6.555  13.541  23.032  0.00  0.00    +0.000 C 
ATOM      3  C   UNL     1      -6.035  12.484  21.942  0.00  0.00    +0.000 C 
ATOM      4  C   UNL     1      -6.397  12.394  20.394  0.00  0.00    +0.000 C 
ATOM      5  C   UNL     1      -5.088  12.638  19.585  0.00  0.00    +0.000 C 
ATOM      6  C   UNL     1      -3.981  12.418  20.638  0.00  0.00    +0.000 C 
ATOM      7  C   UNL     1      -2.640  13.120  20.387  0.00  0.00    +0.000 C 
ATOM      8  C   UNL     1      -1.898  12.449  19.258  0.00  0.00    +0.000 C 
ATOM      9  C   UNL     1      -0.577  13.100  19.033  0.00  0.00    +0.000 C 
ATOM     10  C   UNL     1      -0.020  14.050  19.829  0.00  0.00    +0.000 C 
ATOM     11  C   UNL     1       1.425  14.363  19.493  0.00  0.00    +0.000 C 
ATOM     12  C   UNL     1       1.794  15.801  19.858  0.00  0.00    +0.000 C 
ATOM     13  C   UNL     1       1.502  15.962  21.422  0.00  0.00    +0.000 C 
ATOM     14  C   UNL     1       0.606  14.821  22.095  0.00  0.00    +0.000 C 
ATOM     15  C   UNL     1      -0.634  14.482  21.200  0.00  0.00    +0.000 C 
ATOM     16  C   UNL     1      -1.420  15.846  21.177  0.00  0.00    +0.000 C 
ATOM     17  C   UNL     1      -1.641  13.290  21.623  0.00  0.00    +0.000 C 
ATOM     18  C   UNL     1      -2.360  13.460  22.996  0.00  0.00    +0.000 C 
ATOM     19  C   UNL     1      -3.652  12.633  23.070  0.00  0.00    +0.000 C 
ATOM     20  C   UNL     1      -4.601  13.016  21.867  0.00  0.00    +0.000 C 
ATOM     21  C   UNL     1      -4.903  14.549  21.812  0.00  0.00    +0.000 C 
ATOM     22  N   UNL     1      -5.738  14.755  22.969  0.00  0.00    +0.000 NA
ATOM     23  C   UNL     1      -6.434  16.048  22.884  0.00  0.00    +0.000 C 
ENDROOT
BRANCH  12  24
ATOM     24  N   UNL     1       1.115  16.777  18.919  0.00  0.00    +0.000 NA
ATOM     25  C   UNL     1       0.819  18.074  19.564  0.00  0.00    +0.000 C 
ATOM     26  C   UNL     1       1.964  17.130  17.739  0.00  0.00    +0.000 C 
ENDBRANCH  12  24
TORSDOF 1
ENDMDL
MODEL 9
REMARK VINA RESULT:      -5.3      1.316      1.689
REMARK  Name = 
REMARK  6 active torsions:
REMARK  status: ('A' for Active; 'I' for Inactive)
REMARK    1  A    between atoms: C_1  and  C_2
REMARK    2  A    between atoms: C_12  and  N_13
REMARK    3  A    between atoms: N_13  and  C_14
REMARK    4  A    between atoms: N_13  and  C_15
REMARK    5  A    between atoms: C_18  and  C_19
REMARK    6  A    between atoms: N_25  and  C_26
REMARK                            x       y       z     vdW  Elec       q    Type
REMARK                         _______ _______ _______ _____ _____    ______ ____
ROOT
ATOM      1  C   UNL     1       0.371   9.687  18.347  0.00  0.00    +0.000 C 
ATOM      2  C   UNL     1       0.153  10.976  19.194  0.00  0.00    +0.000 C 
ATOM      3  C   UNL     1       0.951  11.839  20.286  0.00  0.00    +0.000 C 
ATOM      4  C   UNL     1       1.743  13.206  20.087  0.00  0.00    +0.000 C 
ATOM      5  C   UNL     1       1.030  14.296  20.941  0.00  0.00    +0.000 C 
ATOM      6  C   UNL     1       0.168  13.467  21.917  0.00  0.00    +0.000 C 
ATOM      7  C   UNL     1      -1.077  14.153  22.495  0.00  0.00    +0.000 C 
ATOM      8  C   UNL     1      -0.679  15.197  23.509  0.00  0.00    +0.000 C 
ATOM      9  C   UNL     1      -1.882  15.843  24.103  0.00  0.00    +0.000 C 
ATOM     10  C   UNL     1      -3.167  15.447  23.907  0.00  0.00    +0.000 C 
ATOM     11  C   UNL     1      -4.167  16.135  24.817  0.00  0.00    +0.000 C 
ATOM     12  C   UNL     1      -5.549  16.234  24.169  0.00  0.00    +0.000 C 
ATOM     13  C   UNL     1      -5.996  14.739  23.822  0.00  0.00    +0.000 C 
ATOM     14  C   UNL     1      -4.845  13.629  23.862  0.00  0.00    +0.000 C 
ATOM     15  C   UNL     1      -3.550  14.139  23.143  0.00  0.00    +0.000 C 
ATOM     16  C   UNL     1      -4.045  14.353  21.663  0.00  0.00    +0.000 C 
ATOM     17  C   UNL     1      -2.213  13.229  23.134  0.00  0.00    +0.000 C 
ATOM     18  C   UNL     1      -2.344  11.832  22.457  0.00  0.00    +0.000 C 
ATOM     19  C   UNL     1      -0.981  11.289  22.000  0.00  0.00    +0.000 C 
ATOM     20  C   UNL     1      -0.285  12.334  21.042  0.00  0.00    +0.000 C 
ATOM     21  C   UNL     1      -1.187  12.720  19.825  0.00  0.00    +0.000 C 
ATOM     22  N   UNL     1      -1.202  11.512  19.038  0.00  0.00    +0.000 NA
ATOM     23  C   UNL     1      -1.680  11.785  17.675  0.00  0.00    +0.000 C 
ENDROOT
BRANCH  12  24
ATOM     24  N   UNL     1      -5.530  17.236  23.033  0.00  0.00    +0.000 NA
ATOM     25  C   UNL     1      -6.842  17.359  22.361  0.00  0.00    +0.000 C 
ATOM     26  C   UNL     1      -5.213  18.625  23.492  0.00  0.00    +0.000 C 
ENDBRANCH  12  24
TORSDOF 1
ENDMDL
