MODEL 1
REMARK VINA RESULT:      -7.2      0.000      0.000
REMARK  Name = 
REMARK  7 active torsions:
REMARK  status: ('A' for Active; 'I' for Inactive)
REMARK    1  A    between atoms: C_1  and  C_2
REMARK    2  A    between atoms: C_2  and  N_3
REMARK    3  A    between atoms: C_2  and  C_14
REMARK    4  A    between atoms: C_4  and  O_6
REMARK    5  A    between atoms: O_6  and  C_7
REMARK    6  A    between atoms: C_7  and  C_8
REMARK    7  A    between atoms: C_18  and  N_19
REMARK                            x       y       z     vdW  Elec       q    Type
REMARK                         _______ _______ _______ _____ _____    ______ ____
ROOT
ATOM      1  C   UNL     1       2.336   8.743  17.929  0.00  0.00    +0.000 C 
ATOM      2  C   UNL     1       2.401   7.352  18.565  0.00  0.00    +0.000 C 
ENDROOT
BRANCH   2   3
ATOM      3  C   UNL     1       3.670   6.670  18.064  0.00  0.00    +0.000 A 
ATOM      4  N   UNL     1       3.940   6.484  16.810  0.00  0.00    +0.000 NA
ATOM      5  C   UNL     1       5.109   5.783  16.510  0.00  0.00    +0.000 A 
ATOM      6  C   UNL     1       5.498   5.603  15.179  0.00  0.00    +0.000 A 
ATOM      7  C   UNL     1       6.633   4.847  14.850  0.00  0.00    +0.000 A 
ATOM      8  C   UNL     1       7.436   4.353  15.880  0.00  0.00    +0.000 A 
ATOM      9  C   UNL     1       7.064   4.529  17.212  0.00  0.00    +0.000 A 
ATOM     10  C   UNL     1       5.900   5.243  17.513  0.00  0.00    +0.000 A 
ATOM     11  C   UNL     1       5.499   5.468  18.897  0.00  0.00    +0.000 A 
ATOM     12  O   UNL     1       6.131   4.980  19.829  0.00  0.00    +0.000 OA
ATOM     13  O   UNL     1       4.399   6.229  19.116  0.00  0.00    +0.000 OA
BRANCH   7  14
ATOM     14  N   UNL     1       7.083   4.784  13.526  0.00  0.00    +0.000 N 
ATOM     15  H   UNL     1       7.204   3.841  13.171  0.00  0.00    +0.000 HD
ATOM     16  H   UNL     1       7.888   5.372  13.330  0.00  0.00    +0.000 HD
ENDBRANCH   7  14
ENDBRANCH   2   3
BRANCH   2  17
ATOM     17  N   UNL     1       2.379   7.492  20.016  0.00  0.00    +0.000 N 
ATOM     18  C   UNL     1       1.429   6.907  20.803  0.00  0.00    +0.000 C 
ATOM     19  O   UNL     1       0.981   7.469  21.792  0.00  0.00    +0.000 OA
ATOM     20  H   UNL     1       2.718   8.370  20.383  0.00  0.00    +0.000 HD
BRANCH  18  21
ATOM     21  O   UNL     1       1.110   5.662  20.389  0.00  0.00    +0.000 OA
BRANCH  21  22
ATOM     22  C   UNL     1       1.800   4.591  21.044  0.00  0.00    +0.000 C 
BRANCH  22  23
ATOM     23  C   UNL     1       2.341   3.690  19.967  0.00  0.00    +0.000 A 
ATOM     24  C   UNL     1       3.395   2.803  20.227  0.00  0.00    +0.000 A 
ATOM     25  C   UNL     1       3.916   2.012  19.200  0.00  0.00    +0.000 A 
ATOM     26  C   UNL     1       3.397   2.108  17.910  0.00  0.00    +0.000 A 
ATOM     27  C   UNL     1       2.351   2.990  17.643  0.00  0.00    +0.000 A 
ATOM     28  C   UNL     1       1.827   3.778  18.666  0.00  0.00    +0.000 A 
ENDBRANCH  22  23
ENDBRANCH  21  22
ENDBRANCH  18  21
ENDBRANCH   2  17
TORSDOF 6
ENDMDL
MODEL 2
REMARK VINA RESULT:      -7.1      3.315      5.434
REMARK  Name = 
REMARK  7 active torsions:
REMARK  status: ('A' for Active; 'I' for Inactive)
REMARK    1  A    between atoms: C_1  and  C_2
REMARK    2  A    between atoms: C_2  and  N_3
REMARK    3  A    between atoms: C_2  and  C_14
REMARK    4  A    between atoms: C_4  and  O_6
REMARK    5  A    between atoms: O_6  and  C_7
REMARK    6  A    between atoms: C_7  and  C_8
REMARK    7  A    between atoms: C_18  and  N_19
REMARK                            x       y       z     vdW  Elec       q    Type
REMARK                         _______ _______ _______ _____ _____    ______ ____
ROOT
ATOM      1  C   UNL     1       2.141   9.839  17.948  0.00  0.00    +0.000 C 
ATOM      2  C   UNL     1       1.623   8.555  18.599  0.00  0.00    +0.000 C 
ENDROOT
BRANCH   2   3
ATOM      3  C   UNL     1       2.554   7.417  18.190  0.00  0.00    +0.000 A 
ATOM      4  N   UNL     1       3.600   7.578  17.442  0.00  0.00    +0.000 NA
ATOM      5  C   UNL     1       4.316   6.430  17.097  0.00  0.00    +0.000 A 
ATOM      6  C   UNL     1       5.491   6.533  16.348  0.00  0.00    +0.000 A 
ATOM      7  C   UNL     1       6.193   5.391  15.935  0.00  0.00    +0.000 A 
ATOM      8  C   UNL     1       5.754   4.137  16.367  0.00  0.00    +0.000 A 
ATOM      9  C   UNL     1       4.586   4.019  17.119  0.00  0.00    +0.000 A 
ATOM     10  C   UNL     1       3.877   5.169  17.475  0.00  0.00    +0.000 A 
ATOM     11  C   UNL     1       2.666   5.081  18.284  0.00  0.00    +0.000 A 
ATOM     12  O   UNL     1       2.201   3.993  18.614  0.00  0.00    +0.000 OA
ATOM     13  O   UNL     1       2.070   6.241  18.651  0.00  0.00    +0.000 OA
BRANCH   7  14
ATOM     14  N   UNL     1       7.434   5.513  15.300  0.00  0.00    +0.000 N 
ATOM     15  H   UNL     1       8.214   5.655  15.933  0.00  0.00    +0.000 HD
ATOM     16  H   UNL     1       7.445   6.172  14.526  0.00  0.00    +0.000 HD
ENDBRANCH   7  14
ENDBRANCH   2   3
BRANCH   2  17
ATOM     17  N   UNL     1       1.572   8.741  20.043  0.00  0.00    +0.000 N 
ATOM     18  C   UNL     1       0.749   9.649  20.646  0.00  0.00    +0.000 C 
ATOM     19  O   UNL     1       1.104  10.280  21.631  0.00  0.00    +0.000 OA
ATOM     20  H   UNL     1       2.440   8.595  20.542  0.00  0.00    +0.000 HD
BRANCH  18  21
ATOM     21  O   UNL     1      -0.469   9.708  20.065  0.00  0.00    +0.000 OA
BRANCH  21  22
ATOM     22  C   UNL     1      -0.924  11.017  19.706  0.00  0.00    +0.000 C 
BRANCH  22  23
ATOM     23  C   UNL     1      -1.887  10.852  18.561  0.00  0.00    +0.000 A 
ATOM     24  C   UNL     1      -1.591  10.010  17.481  0.00  0.00    +0.000 A 
ATOM     25  C   UNL     1      -2.475   9.910  16.405  0.00  0.00    +0.000 A 
ATOM     26  C   UNL     1      -3.653  10.655  16.395  0.00  0.00    +0.000 A 
ATOM     27  C   UNL     1      -3.953  11.499  17.464  0.00  0.00    +0.000 A 
ATOM     28  C   UNL     1      -3.074  11.598  18.541  0.00  0.00    +0.000 A 
ENDBRANCH  22  23
ENDBRANCH  21  22
ENDBRANCH  18  21
ENDBRANCH   2  17
TORSDOF 6
ENDMDL
MODEL 3
REMARK VINA RESULT:      -7.1      2.259      6.023
REMARK  Name = 
REMARK  7 active torsions:
REMARK  status: ('A' for Active; 'I' for Inactive)
REMARK    1  A    between atoms: C_1  and  C_2
REMARK    2  A    between atoms: C_2  and  N_3
REMARK    3  A    between atoms: C_2  and  C_14
REMARK    4  A    between atoms: C_4  and  O_6
REMARK    5  A    between atoms: O_6  and  C_7
REMARK    6  A    between atoms: C_7  and  C_8
REMARK    7  A    between atoms: C_18  and  N_19
REMARK                            x       y       z     vdW  Elec       q    Type
REMARK                         _______ _______ _______ _____ _____    ______ ____
ROOT
ATOM      1  C   UNL     1       5.431   5.855  19.002  0.00  0.00    +0.000 C 
ATOM      2  C   UNL     1       3.984   5.470  18.689  0.00  0.00    +0.000 C 
ENDROOT
BRANCH   2   3
ATOM      3  C   UNL     1       3.094   6.646  19.079  0.00  0.00    +0.000 A 
ATOM      4  N   UNL     1       2.400   6.691  20.172  0.00  0.00    +0.000 NA
ATOM      5  C   UNL     1       1.580   7.806  20.357  0.00  0.00    +0.000 A 
ATOM      6  C   UNL     1       0.853   7.955  21.543  0.00  0.00    +0.000 A 
ATOM      7  C   UNL     1      -0.026   9.031  21.726  0.00  0.00    +0.000 A 
ATOM      8  C   UNL     1      -0.097  10.019  20.741  0.00  0.00    +0.000 A 
ATOM      9  C   UNL     1       0.626   9.888  19.556  0.00  0.00    +0.000 A 
ATOM     10  C   UNL     1       1.457   8.778  19.376  0.00  0.00    +0.000 A 
ATOM     11  C   UNL     1       2.247   8.626  18.159  0.00  0.00    +0.000 A 
ATOM     12  O   UNL     1       2.150   9.428  17.235  0.00  0.00    +0.000 OA
ATOM     13  O   UNL     1       3.084   7.563  18.083  0.00  0.00    +0.000 OA
BRANCH   7  14
ATOM     14  N   UNL     1      -0.646   9.238  22.963  0.00  0.00    +0.000 N 
ATOM     15  H   UNL     1      -0.056   9.035  23.764  0.00  0.00    +0.000 HD
ATOM     16  H   UNL     1      -1.564   8.810  23.047  0.00  0.00    +0.000 HD
ENDBRANCH   7  14
ENDBRANCH   2   3
BRANCH   2  17
ATOM     17  N   UNL     1       3.876   5.136  17.274  0.00  0.00    +0.000 N 
ATOM     18  C   UNL     1       4.453   4.025  16.728  0.00  0.00    +0.000 C 
ATOM     19  O   UNL     1       4.947   4.042  15.610  0.00  0.00    +0.000 OA
ATOM     20  H   UNL     1       3.830   5.917  16.635  0.00  0.00    +0.000 HD
BRANCH  18  21
ATOM     21  O   UNL     1       4.356   2.944  17.533  0.00  0.00    +0.000 OA
BRANCH  21  22
ATOM     22  C   UNL     1       3.067   2.321  17.587  0.00  0.00    +0.000 C 
BRANCH  22  23
ATOM     23  C   UNL     1       2.494   2.607  18.949  0.00  0.00    +0.000 A 
ATOM     24  C   UNL     1       3.238   2.370  20.112  0.00  0.00    +0.000 A 
ATOM     25  C   UNL     1       2.669   2.595  21.368  0.00  0.00    +0.000 A 
ATOM     26  C   UNL     1       1.355   3.047  21.470  0.00  0.00    +0.000 A 
ATOM     27  C   UNL     1       0.606   3.281  20.317  0.00  0.00    +0.000 A 
ATOM     28  C   UNL     1       1.173   3.061  19.063  0.00  0.00    +0.000 A 
ENDBRANCH  22  23
ENDBRANCH  21  22
ENDBRANCH  18  21
ENDBRANCH   2  17
TORSDOF 6
ENDMDL
MODEL 4
REMARK VINA RESULT:      -7.0      2.321      6.071
REMARK  Name = 
REMARK  7 active torsions:
REMARK  status: ('A' for Active; 'I' for Inactive)
REMARK    1  A    between atoms: C_1  and  C_2
REMARK    2  A    between atoms: C_2  and  N_3
REMARK    3  A    between atoms: C_2  and  C_14
REMARK    4  A    between atoms: C_4  and  O_6
REMARK    5  A    between atoms: O_6  and  C_7
REMARK    6  A    between atoms: C_7  and  C_8
REMARK    7  A    between atoms: C_18  and  N_19
REMARK                            x       y       z     vdW  Elec       q    Type
REMARK                         _______ _______ _______ _____ _____    ______ ____
ROOT
ATOM      1  C   UNL     1       5.303   5.595  19.409  0.00  0.00    +0.000 C 
ATOM      2  C   UNL     1       3.977   5.457  18.657  0.00  0.00    +0.000 C 
ENDROOT
BRANCH   2   3
ATOM      3  C   UNL     1       3.097   6.642  19.043  0.00  0.00    +0.000 A 
ATOM      4  N   UNL     1       2.404   6.697  20.137  0.00  0.00    +0.000 NA
ATOM      5  C   UNL     1       1.593   7.819  20.318  0.00  0.00    +0.000 A 
ATOM      6  C   UNL     1       0.869   7.978  21.503  0.00  0.00    +0.000 A 
ATOM      7  C   UNL     1      -0.002   9.062  21.682  0.00  0.00    +0.000 A 
ATOM      8  C   UNL     1      -0.066  10.047  20.694  0.00  0.00    +0.000 A 
ATOM      9  C   UNL     1       0.655   9.905  19.508  0.00  0.00    +0.000 A 
ATOM     10  C   UNL     1       1.477   8.788  19.332  0.00  0.00    +0.000 A 
ATOM     11  C   UNL     1       2.265   8.624  18.115  0.00  0.00    +0.000 A 
ATOM     12  O   UNL     1       2.174   9.423  17.188  0.00  0.00    +0.000 OA
ATOM     13  O   UNL     1       3.094   7.555  18.044  0.00  0.00    +0.000 OA
BRANCH   7  14
ATOM     14  N   UNL     1      -0.619   9.279  22.920  0.00  0.00    +0.000 N 
ATOM     15  H   UNL     1      -0.776   8.435  23.461  0.00  0.00    +0.000 HD
ATOM     16  H   UNL     1      -1.448   9.865  22.876  0.00  0.00    +0.000 HD
ENDBRANCH   7  14
ENDBRANCH   2   3
BRANCH   2  17
ATOM     17  N   UNL     1       4.245   5.406  17.225  0.00  0.00    +0.000 N 
ATOM     18  C   UNL     1       4.209   4.246  16.504  0.00  0.00    +0.000 C 
ATOM     19  O   UNL     1       4.999   4.030  15.597  0.00  0.00    +0.000 OA
ATOM     20  H   UNL     1       4.918   6.073  16.875  0.00  0.00    +0.000 HD
BRANCH  18  21
ATOM     21  O   UNL     1       3.194   3.437  16.879  0.00  0.00    +0.000 OA
BRANCH  21  22
ATOM     22  C   UNL     1       3.551   2.349  17.739  0.00  0.00    +0.000 C 
BRANCH  22  23
ATOM     23  C   UNL     1       2.772   2.520  19.016  0.00  0.00    +0.000 A 
ATOM     24  C   UNL     1       1.414   2.864  18.995  0.00  0.00    +0.000 A 
ATOM     25  C   UNL     1       0.723   3.068  20.192  0.00  0.00    +0.000 A 
ATOM     26  C   UNL     1       1.384   2.939  21.412  0.00  0.00    +0.000 A 
ATOM     27  C   UNL     1       2.736   2.602  21.441  0.00  0.00    +0.000 A 
ATOM     28  C   UNL     1       3.427   2.394  20.249  0.00  0.00    +0.000 A 
ENDBRANCH  22  23
ENDBRANCH  21  22
ENDBRANCH  18  21
ENDBRANCH   2  17
TORSDOF 6
ENDMDL
MODEL 5
REMARK VINA RESULT:      -7.0      2.367      6.986
REMARK  Name = 
REMARK  7 active torsions:
REMARK  status: ('A' for Active; 'I' for Inactive)
REMARK    1  A    between atoms: C_1  and  C_2
REMARK    2  A    between atoms: C_2  and  N_3
REMARK    3  A    between atoms: C_2  and  C_14
REMARK    4  A    between atoms: C_4  and  O_6
REMARK    5  A    between atoms: O_6  and  C_7
REMARK    6  A    between atoms: C_7  and  C_8
REMARK    7  A    between atoms: C_18  and  N_19
REMARK                            x       y       z     vdW  Elec       q    Type
REMARK                         _______ _______ _______ _____ _____    ______ ____
ROOT
ATOM      1  C   UNL     1       2.919   4.346  18.854  0.00  0.00    +0.000 C 
ATOM      2  C   UNL     1       3.573   5.607  18.283  0.00  0.00    +0.000 C 
ENDROOT
BRANCH   2   3
ATOM      3  C   UNL     1       2.829   6.814  18.847  0.00  0.00    +0.000 A 
ATOM      4  N   UNL     1       2.240   6.820  20.001  0.00  0.00    +0.000 NA
ATOM      5  C   UNL     1       1.541   7.978  20.350  0.00  0.00    +0.000 A 
ATOM      6  C   UNL     1       0.938   8.082  21.606  0.00  0.00    +0.000 A 
ATOM      7  C   UNL     1       0.177   9.207  21.956  0.00  0.00    +0.000 A 
ATOM      8  C   UNL     1       0.108  10.278  21.063  0.00  0.00    +0.000 A 
ATOM      9  C   UNL     1       0.709  10.191  19.808  0.00  0.00    +0.000 A 
ATOM     10  C   UNL     1       1.420   9.038  19.464  0.00  0.00    +0.000 A 
ATOM     11  C   UNL     1       2.083   8.927  18.169  0.00  0.00    +0.000 A 
ATOM     12  O   UNL     1       1.977   9.811  17.324  0.00  0.00    +0.000 OA
ATOM     13  O   UNL     1       2.813   7.810  17.931  0.00  0.00    +0.000 OA
BRANCH   7  14
ATOM     14  N   UNL     1      -0.311   9.356  23.259  0.00  0.00    +0.000 N 
ATOM     15  H   UNL     1      -0.181  10.284  23.650  0.00  0.00    +0.000 HD
ATOM     16  H   UNL     1      -0.016   8.626  23.902  0.00  0.00    +0.000 HD
ENDBRANCH   7  14
ENDBRANCH   2   3
BRANCH   2  17
ATOM     17  N   UNL     1       4.987   5.610  18.636  0.00  0.00    +0.000 N 
ATOM     18  C   UNL     1       5.950   5.046  17.848  0.00  0.00    +0.000 C 
ATOM     19  O   UNL     1       6.908   4.458  18.328  0.00  0.00    +0.000 OA
ATOM     20  H   UNL     1       5.199   5.561  19.623  0.00  0.00    +0.000 HD
BRANCH  18  21
ATOM     21  O   UNL     1       5.735   5.267  16.533  0.00  0.00    +0.000 OA
BRANCH  21  22
ATOM     22  C   UNL     1       5.374   4.117  15.759  0.00  0.00    +0.000 C 
BRANCH  22  23
ATOM     23  C   UNL     1       6.103   4.220  14.447  0.00  0.00    +0.000 A 
ATOM     24  C   UNL     1       7.189   5.091  14.288  0.00  0.00    +0.000 A 
ATOM     25  C   UNL     1       7.819   5.209  13.047  0.00  0.00    +0.000 A 
ATOM     26  C   UNL     1       7.364   4.467  11.958  0.00  0.00    +0.000 A 
ATOM     27  C   UNL     1       6.281   3.602  12.106  0.00  0.00    +0.000 A 
ATOM     28  C   UNL     1       5.653   3.480  13.344  0.00  0.00    +0.000 A 
ENDBRANCH  22  23
ENDBRANCH  21  22
ENDBRANCH  18  21
ENDBRANCH   2  17
TORSDOF 6
ENDMDL
MODEL 6
REMARK VINA RESULT:      -7.0      3.351      5.480
REMARK  Name = 
REMARK  7 active torsions:
REMARK  status: ('A' for Active; 'I' for Inactive)
REMARK    1  A    between atoms: C_1  and  C_2
REMARK    2  A    between atoms: C_2  and  N_3
REMARK    3  A    between atoms: C_2  and  C_14
REMARK    4  A    between atoms: C_4  and  O_6
REMARK    5  A    between atoms: O_6  and  C_7
REMARK    6  A    between atoms: C_7  and  C_8
REMARK    7  A    between atoms: C_18  and  N_19
REMARK                            x       y       z     vdW  Elec       q    Type
REMARK                         _______ _______ _______ _____ _____    ______ ____
ROOT
ATOM      1  C   UNL     1       2.030   9.888  18.018  0.00  0.00    +0.000 C 
ATOM      2  C   UNL     1       1.571   8.611  18.726  0.00  0.00    +0.000 C 
ENDROOT
BRANCH   2   3
ATOM      3  C   UNL     1       2.585   7.515  18.413  0.00  0.00    +0.000 A 
ATOM      4  N   UNL     1       3.490   7.615  17.491  0.00  0.00    +0.000 NA
ATOM      5  C   UNL     1       4.303   6.500  17.277  0.00  0.00    +0.000 A 
ATOM      6  C   UNL     1       5.343   6.557  16.346  0.00  0.00    +0.000 A 
ATOM      7  C   UNL     1       6.132   5.432  16.066  0.00  0.00    +0.000 A 
ATOM      8  C   UNL     1       5.929   4.266  16.807  0.00  0.00    +0.000 A 
ATOM      9  C   UNL     1       4.898   4.195  17.744  0.00  0.00    +0.000 A 
ATOM     10  C   UNL     1       4.093   5.315  17.968  0.00  0.00    +0.000 A 
ATOM     11  C   UNL     1       3.025   5.282  18.960  0.00  0.00    +0.000 A 
ATOM     12  O   UNL     1       2.760   4.251  19.573  0.00  0.00    +0.000 OA
ATOM     13  O   UNL     1       2.331   6.425  19.175  0.00  0.00    +0.000 OA
BRANCH   7  14
ATOM     14  N   UNL     1       7.249   5.539  15.230  0.00  0.00    +0.000 N 
ATOM     15  H   UNL     1       8.121   5.713  15.720  0.00  0.00    +0.000 HD
ATOM     16  H   UNL     1       7.122   6.167  14.441  0.00  0.00    +0.000 HD
ENDBRANCH   7  14
ENDBRANCH   2   3
BRANCH   2  17
ATOM     17  N   UNL     1       1.458   8.874  20.155  0.00  0.00    +0.000 N 
ATOM     18  C   UNL     1       0.608   9.809  20.673  0.00  0.00    +0.000 C 
ATOM     19  O   UNL     1       0.919  10.494  21.636  0.00  0.00    +0.000 OA
ATOM     20  H   UNL     1       2.303   8.759  20.697  0.00  0.00    +0.000 HD
BRANCH  18  21
ATOM     21  O   UNL     1      -0.584   9.832  20.037  0.00  0.00    +0.000 OA
BRANCH  21  22
ATOM     22  C   UNL     1      -1.096  11.132  19.720  0.00  0.00    +0.000 C 
BRANCH  22  23
ATOM     23  C   UNL     1      -1.995  10.973  18.524  0.00  0.00    +0.000 A 
ATOM     24  C   UNL     1      -3.229  11.633  18.452  0.00  0.00    +0.000 A 
ATOM     25  C   UNL     1      -4.070  11.431  17.356  0.00  0.00    +0.000 A 
ATOM     26  C   UNL     1      -3.691  10.565  16.331  0.00  0.00    +0.000 A 
ATOM     27  C   UNL     1      -2.467   9.901  16.397  0.00  0.00    +0.000 A 
ATOM     28  C   UNL     1      -1.624  10.103  17.489  0.00  0.00    +0.000 A 
ENDBRANCH  22  23
ENDBRANCH  21  22
ENDBRANCH  18  21
ENDBRANCH   2  17
TORSDOF 6
ENDMDL
MODEL 7
REMARK VINA RESULT:      -7.0      2.558      6.405
REMARK  Name = 
REMARK  7 active torsions:
REMARK  status: ('A' for Active; 'I' for Inactive)
REMARK    1  A    between atoms: C_1  and  C_2
REMARK    2  A    between atoms: C_2  and  N_3
REMARK    3  A    between atoms: C_2  and  C_14
REMARK    4  A    between atoms: C_4  and  O_6
REMARK    5  A    between atoms: O_6  and  C_7
REMARK    6  A    between atoms: C_7  and  C_8
REMARK    7  A    between atoms: C_18  and  N_19
REMARK                            x       y       z     vdW  Elec       q    Type
REMARK                         _______ _______ _______ _____ _____    ______ ____
ROOT
ATOM      1  C   UNL     1       2.367   4.970  20.898  0.00  0.00    +0.000 C 
ATOM      2  C   UNL     1       2.863   5.832  19.736  0.00  0.00    +0.000 C 
ENDROOT
BRANCH   2   3
ATOM      3  C   UNL     1       2.196   7.200  19.853  0.00  0.00    +0.000 A 
ATOM      4  N   UNL     1       1.510   7.579  20.884  0.00  0.00    +0.000 NA
ATOM      5  C   UNL     1       0.902   8.834  20.815  0.00  0.00    +0.000 A 
ATOM      6  C   UNL     1       0.202   9.338  21.915  0.00  0.00    +0.000 A 
ATOM      7  C   UNL     1      -0.471  10.566  21.849  0.00  0.00    +0.000 A 
ATOM      8  C   UNL     1      -0.351  11.338  20.691  0.00  0.00    +0.000 A 
ATOM      9  C   UNL     1       0.349  10.852  19.587  0.00  0.00    +0.000 A 
ATOM     10  C   UNL     1       0.968   9.602  19.661  0.00  0.00    +0.000 A 
ATOM     11  C   UNL     1       1.731   9.077  18.534  0.00  0.00    +0.000 A 
ATOM     12  O   UNL     1       1.791   9.687  17.470  0.00  0.00    +0.000 OA
ATOM     13  O   UNL     1       2.364   7.891  18.701  0.00  0.00    +0.000 OA
BRANCH   7  14
ATOM     14  N   UNL     1      -1.057  11.117  22.994  0.00  0.00    +0.000 N 
ATOM     15  H   UNL     1      -1.043  10.505  23.804  0.00  0.00    +0.000 HD
ATOM     16  H   UNL     1      -1.974  11.525  22.839  0.00  0.00    +0.000 HD
ENDBRANCH   7  14
ENDBRANCH   2   3
BRANCH   2  17
ATOM     17  N   UNL     1       4.318   5.915  19.793  0.00  0.00    +0.000 N 
ATOM     18  C   UNL     1       5.134   5.231  18.939  0.00  0.00    +0.000 C 
ATOM     19  O   UNL     1       6.194   4.750  19.312  0.00  0.00    +0.000 OA
ATOM     20  H   UNL     1       4.720   6.047  20.711  0.00  0.00    +0.000 HD
BRANCH  18  21
ATOM     21  O   UNL     1       4.657   5.210  17.675  0.00  0.00    +0.000 OA
BRANCH  21  22
ATOM     22  C   UNL     1       4.524   3.913  17.082  0.00  0.00    +0.000 C 
BRANCH  22  23
ATOM     23  C   UNL     1       3.279   3.291  17.653  0.00  0.00    +0.000 A 
ATOM     24  C   UNL     1       2.015   3.845  17.410  0.00  0.00    +0.000 A 
ATOM     25  C   UNL     1       0.877   3.282  17.992  0.00  0.00    +0.000 A 
ATOM     26  C   UNL     1       0.994   2.170  18.825  0.00  0.00    +0.000 A 
ATOM     27  C   UNL     1       2.248   1.615  19.076  0.00  0.00    +0.000 A 
ATOM     28  C   UNL     1       3.385   2.174  18.494  0.00  0.00    +0.000 A 
ENDBRANCH  22  23
ENDBRANCH  21  22
ENDBRANCH  18  21
ENDBRANCH   2  17
TORSDOF 6
ENDMDL
MODEL 8
REMARK VINA RESULT:      -6.9      2.410      7.049
REMARK  Name = 
REMARK  7 active torsions:
REMARK  status: ('A' for Active; 'I' for Inactive)
REMARK    1  A    between atoms: C_1  and  C_2
REMARK    2  A    between atoms: C_2  and  N_3
REMARK    3  A    between atoms: C_2  and  C_14
REMARK    4  A    between atoms: C_4  and  O_6
REMARK    5  A    between atoms: O_6  and  C_7
REMARK    6  A    between atoms: C_7  and  C_8
REMARK    7  A    between atoms: C_18  and  N_19
REMARK                            x       y       z     vdW  Elec       q    Type
REMARK                         _______ _______ _______ _____ _____    ______ ____
ROOT
ATOM      1  C   UNL     1       2.548   4.737  18.139  0.00  0.00    +0.000 C 
ATOM      2  C   UNL     1       3.434   5.976  17.989  0.00  0.00    +0.000 C 
ENDROOT
BRANCH   2   3
ATOM      3  C   UNL     1       2.717   7.145  18.661  0.00  0.00    +0.000 A 
ATOM      4  N   UNL     1       2.172   7.075  19.834  0.00  0.00    +0.000 NA
ATOM      5  C   UNL     1       1.493   8.208  20.286  0.00  0.00    +0.000 A 
ATOM      6  C   UNL     1       0.937   8.230  21.568  0.00  0.00    +0.000 A 
ATOM      7  C   UNL     1       0.195   9.330  22.020  0.00  0.00    +0.000 A 
ATOM      8  C   UNL     1       0.099  10.460  21.204  0.00  0.00    +0.000 A 
ATOM      9  C   UNL     1       0.653  10.456  19.925  0.00  0.00    +0.000 A 
ATOM     10  C   UNL     1       1.344   9.326  19.478  0.00  0.00    +0.000 A 
ATOM     11  C   UNL     1       1.959   9.301  18.155  0.00  0.00    +0.000 A 
ATOM     12  O   UNL     1       1.826  10.240  17.376  0.00  0.00    +0.000 OA
ATOM     13  O   UNL     1       2.673   8.201  17.816  0.00  0.00    +0.000 OA
BRANCH   7  14
ATOM     14  N   UNL     1      -0.243   9.392  23.348  0.00  0.00    +0.000 N 
ATOM     15  H   UNL     1      -1.209   9.108  23.482  0.00  0.00    +0.000 HD
ATOM     16  H   UNL     1      -0.035  10.270  23.816  0.00  0.00    +0.000 HD
ENDBRANCH   7  14
ENDBRANCH   2   3
BRANCH   2  17
ATOM     17  N   UNL     1       4.736   5.705  18.586  0.00  0.00    +0.000 N 
ATOM     18  C   UNL     1       5.743   5.074  17.914  0.00  0.00    +0.000 C 
ATOM     19  O   UNL     1       6.492   4.285  18.473  0.00  0.00    +0.000 OA
ATOM     20  H   UNL     1       4.739   5.517  19.579  0.00  0.00    +0.000 HD
BRANCH  18  21
ATOM     21  O   UNL     1       5.827   5.465  16.623  0.00  0.00    +0.000 OA
BRANCH  21  22
ATOM     22  C   UNL     1       7.113   5.322  16.011  0.00  0.00    +0.000 C 
BRANCH  22  23
ATOM     23  C   UNL     1       6.883   4.833  14.607  0.00  0.00    +0.000 A 
ATOM     24  C   UNL     1       5.856   3.925  14.315  0.00  0.00    +0.000 A 
ATOM     25  C   UNL     1       5.692   3.445  13.014  0.00  0.00    +0.000 A 
ATOM     26  C   UNL     1       6.555   3.859  12.001  0.00  0.00    +0.000 A 
ATOM     27  C   UNL     1       7.582   4.758  12.284  0.00  0.00    +0.000 A 
ATOM     28  C   UNL     1       7.747   5.242  13.580  0.00  0.00    +0.000 A 
ENDBRANCH  22  23
ENDBRANCH  21  22
ENDBRANCH  18  21
ENDBRANCH   2  17
TORSDOF 6
ENDMDL
MODEL 9
REMARK VINA RESULT:      -6.9      2.275      6.893
REMARK  Name = 
REMARK  7 active torsions:
REMARK  status: ('A' for Active; 'I' for Inactive)
REMARK    1  A    between atoms: C_1  and  C_2
REMARK    2  A    between atoms: C_2  and  N_3
REMARK    3  A    between atoms: C_2  and  C_14
REMARK    4  A    between atoms: C_4  and  O_6
REMARK    5  A    between atoms: O_6  and  C_7
REMARK    6  A    between atoms: C_7  and  C_8
REMARK    7  A    between atoms: C_18  and  N_19
REMARK                            x       y       z     vdW  Elec       q    Type
REMARK                         _______ _______ _______ _____ _____    ______ ____
ROOT
ATOM      1  C   UNL     1       3.332   4.029  19.817  0.00  0.00    +0.000 C 
ATOM      2  C   UNL     1       3.759   5.126  18.840  0.00  0.00    +0.000 C 
ENDROOT
BRANCH   2   3
ATOM      3  C   UNL     1       2.966   6.385  19.177  0.00  0.00    +0.000 A 
ATOM      4  N   UNL     1       2.255   6.521  20.252  0.00  0.00    +0.000 NA
ATOM      5  C   UNL     1       1.530   7.706  20.388  0.00  0.00    +0.000 A 
ATOM      6  C   UNL     1       0.794   7.950  21.551  0.00  0.00    +0.000 A 
ATOM      7  C   UNL     1       0.007   9.103  21.685  0.00  0.00    +0.000 A 
ATOM      8  C   UNL     1       0.042  10.065  20.673  0.00  0.00    +0.000 A 
ATOM      9  C   UNL     1       0.776   9.838  19.508  0.00  0.00    +0.000 A 
ATOM     10  C   UNL     1       1.512   8.657  19.378  0.00  0.00    +0.000 A 
ATOM     11  C   UNL     1       2.312   8.403  18.185  0.00  0.00    +0.000 A 
ATOM     12  O   UNL     1       2.304   9.184  17.238  0.00  0.00    +0.000 OA
ATOM     13  O   UNL     1       3.056   7.271  18.157  0.00  0.00    +0.000 OA
BRANCH   7  14
ATOM     14  N   UNL     1      -0.619   9.397  22.901  0.00  0.00    +0.000 N 
ATOM     15  H   UNL     1      -0.011   9.829  23.589  0.00  0.00    +0.000 HD
ATOM     16  H   UNL     1      -1.152   8.626  23.294  0.00  0.00    +0.000 HD
ENDBRANCH   7  14
ENDBRANCH   2   3
BRANCH   2  17
ATOM     17  N   UNL     1       5.198   5.329  18.951  0.00  0.00    +0.000 N 
ATOM     18  C   UNL     1       6.081   4.921  17.993  0.00  0.00    +0.000 C 
ATOM     19  O   UNL     1       7.180   4.470  18.284  0.00  0.00    +0.000 OA
ATOM     20  H   UNL     1       5.581   5.298  19.886  0.00  0.00    +0.000 HD
BRANCH  18  21
ATOM     21  O   UNL     1       5.617   5.126  16.741  0.00  0.00    +0.000 OA
BRANCH  21  22
ATOM     22  C   UNL     1       5.355   3.946  15.973  0.00  0.00    +0.000 C 
BRANCH  22  23
ATOM     23  C   UNL     1       5.988   4.148  14.623  0.00  0.00    +0.000 A 
ATOM     24  C   UNL     1       5.535   3.447  13.497  0.00  0.00    +0.000 A 
ATOM     25  C   UNL     1       6.169   3.611  12.264  0.00  0.00    +0.000 A 
ATOM     26  C   UNL     1       7.263   4.468  12.149  0.00  0.00    +0.000 A 
ATOM     27  C   UNL     1       7.723   5.166  13.264  0.00  0.00    +0.000 A 
ATOM     28  C   UNL     1       7.090   5.006  14.495  0.00  0.00    +0.000 A 
ENDBRANCH  22  23
ENDBRANCH  21  22
ENDBRANCH  18  21
ENDBRANCH   2  17
TORSDOF 6
ENDMDL
