MODEL 1
REMARK VINA RESULT:      -8.3      0.000      0.000
REMARK  Name = 
REMARK  8 active torsions:
REMARK  status: ('A' for Active; 'I' for Inactive)
REMARK    1  A    between atoms: C_1  and  N_2
REMARK    2  A    between atoms: C_6  and  C_7
REMARK    3  A    between atoms: C_8  and  C_9
REMARK    4  A    between atoms: C_11  and  C_12
REMARK    5  A    between atoms: C_13  and  C_14
REMARK    6  A    between atoms: C_17  and  O_18
REMARK    7  A    between atoms: O_18  and  C_19
REMARK    8  A    between atoms: C_19  and  C_20
REMARK                            x       y       z     vdW  Elec       q    Type
REMARK                         _______ _______ _______ _____ _____    ______ ____
ROOT
ATOM      1  C   UNL     1       7.811   9.183  18.099  0.00  0.00    +0.000 C 
ATOM      2  C   UNL     1       8.132   7.893  17.898  0.00  0.00    +0.000 C 
ENDROOT
BRANCH   2   3
ATOM      3  C   UNL     1       7.175   6.853  17.509  0.00  0.00    +0.000 A 
ATOM      4  C   UNL     1       6.158   7.113  16.587  0.00  0.00    +0.000 A 
ATOM      5  C   UNL     1       5.225   6.132  16.268  0.00  0.00    +0.000 A 
ATOM      6  C   UNL     1       5.260   4.891  16.906  0.00  0.00    +0.000 A 
ATOM      7  C   UNL     1       6.279   4.606  17.812  0.00  0.00    +0.000 A 
ATOM      8  C   UNL     1       7.220   5.589  18.113  0.00  0.00    +0.000 A 
ATOM      9  F   UNL     1       8.173   5.311  19.019  0.00  0.00    +0.000 F 
BRANCH   6  10
ATOM     10  O   UNL     1       4.324   3.910  16.722  0.00  0.00    +0.000 OA
BRANCH  10  11
ATOM     11  C   UNL     1       4.334   2.899  17.740  0.00  0.00    +0.000 C 
BRANCH  11  12
ATOM     12  C   UNL     1       3.090   2.946  18.586  0.00  0.00    +0.000 A 
ATOM     13  C   UNL     1       3.116   3.436  19.889  0.00  0.00    +0.000 A 
ATOM     14  C   UNL     1       1.933   3.445  20.620  0.00  0.00    +0.000 A 
ATOM     15  C   UNL     1       0.767   2.957  20.042  0.00  0.00    +0.000 A 
ATOM     16  C   UNL     1       0.831   2.466  18.750  0.00  0.00    +0.000 A 
ATOM     17  N   UNL     1       1.962   2.445  18.015  0.00  0.00    +0.000 NA
ENDBRANCH  11  12
ENDBRANCH  10  11
ENDBRANCH   6  10
ENDBRANCH   2   3
BRANCH   1  20
ATOM     18  C   UNL     1       9.784  12.150  18.662  0.00  0.00    +0.000 A 
ATOM     19  C   UNL     1       8.764  11.516  17.991  0.00  0.00    +0.000 A 
ATOM     20  C   UNL     1       8.713  10.206  18.514  0.00  0.00    +0.000 A 
ATOM     21  N   UNL     1       9.643  10.025  19.458  0.00  0.00    +0.000 NA
ATOM     22  N   UNL     1      10.270  11.213  19.534  0.00  0.00    +0.000 N 
ATOM     23  H   UNL     1      11.028  11.308  20.201  0.00  0.00    +0.000 HD
BRANCH  18  25
ATOM     24  C   UNL     1       9.776  14.403  17.872  0.00  0.00    +0.000 C 
ATOM     25  C   UNL     1      10.356  13.442  18.612  0.00  0.00    +0.000 C 
BRANCH  24  31
ATOM     26  C   UNL     1       8.525  16.763  19.214  0.00  0.00    +0.000 C 
ATOM     27  N   UNL     1       9.727  16.780  18.404  0.00  0.00    +0.000 N 
ATOM     28  C   UNL     1      10.443  17.924  18.150  0.00  0.00    +0.000 A 
ATOM     29  C   UNL     1      11.509  17.597  17.348  0.00  0.00    +0.000 A 
ATOM     30  C   UNL     1      11.440  16.207  17.112  0.00  0.00    +0.000 A 
ATOM     31  C   UNL     1      10.332  15.706  17.769  0.00  0.00    +0.000 A 
ENDBRANCH  24  31
ENDBRANCH  18  25
ENDBRANCH   1  20
TORSDOF 7
ENDMDL
MODEL 2
REMARK VINA RESULT:      -8.2      1.039      1.508
REMARK  Name = 
REMARK  8 active torsions:
REMARK  status: ('A' for Active; 'I' for Inactive)
REMARK    1  A    between atoms: C_1  and  N_2
REMARK    2  A    between atoms: C_6  and  C_7
REMARK    3  A    between atoms: C_8  and  C_9
REMARK    4  A    between atoms: C_11  and  C_12
REMARK    5  A    between atoms: C_13  and  C_14
REMARK    6  A    between atoms: C_17  and  O_18
REMARK    7  A    between atoms: O_18  and  C_19
REMARK    8  A    between atoms: C_19  and  C_20
REMARK                            x       y       z     vdW  Elec       q    Type
REMARK                         _______ _______ _______ _____ _____    ______ ____
ROOT
ATOM      1  C   UNL     1       8.159   9.290  17.904  0.00  0.00    +0.000 C 
ATOM      2  C   UNL     1       8.259   8.059  18.436  0.00  0.00    +0.000 C 
ENDROOT
BRANCH   2   3
ATOM      3  C   UNL     1       7.475   6.901  17.998  0.00  0.00    +0.000 A 
ATOM      4  C   UNL     1       6.720   6.941  16.823  0.00  0.00    +0.000 A 
ATOM      5  C   UNL     1       5.939   5.853  16.447  0.00  0.00    +0.000 A 
ATOM      6  C   UNL     1       5.855   4.728  17.269  0.00  0.00    +0.000 A 
ATOM      7  C   UNL     1       6.617   4.662  18.433  0.00  0.00    +0.000 A 
ATOM      8  C   UNL     1       7.411   5.749  18.793  0.00  0.00    +0.000 A 
ATOM      9  F   UNL     1       8.109   5.684  19.940  0.00  0.00    +0.000 F 
BRANCH   6  10
ATOM     10  O   UNL     1       5.037   3.659  17.022  0.00  0.00    +0.000 OA
BRANCH  10  11
ATOM     11  C   UNL     1       3.638   3.972  17.087  0.00  0.00    +0.000 C 
BRANCH  11  12
ATOM     12  C   UNL     1       3.135   3.981  18.506  0.00  0.00    +0.000 A 
ATOM     13  C   UNL     1       2.590   5.129  19.076  0.00  0.00    +0.000 A 
ATOM     14  C   UNL     1       2.150   5.074  20.394  0.00  0.00    +0.000 A 
ATOM     15  C   UNL     1       2.277   3.888  21.109  0.00  0.00    +0.000 A 
ATOM     16  C   UNL     1       2.851   2.800  20.477  0.00  0.00    +0.000 A 
ATOM     17  N   UNL     1       3.285   2.822  19.200  0.00  0.00    +0.000 NA
ENDBRANCH  11  12
ENDBRANCH  10  11
ENDBRANCH   6  10
ENDBRANCH   2   3
BRANCH   1  20
ATOM     18  C   UNL     1       9.550  12.547  18.590  0.00  0.00    +0.000 A 
ATOM     19  C   UNL     1       8.605  11.773  17.960  0.00  0.00    +0.000 A 
ATOM     20  C   UNL     1       8.882  10.441  18.336  0.00  0.00    +0.000 A 
ATOM     21  N   UNL     1       9.938  10.379  19.154  0.00  0.00    +0.000 NA
ATOM     22  N   UNL     1      10.318  11.661  19.298  0.00  0.00    +0.000 N 
ATOM     23  H   UNL     1      11.117  11.856  19.892  0.00  0.00    +0.000 HD
BRANCH  18  25
ATOM     24  C   UNL     1       8.995  14.807  18.057  0.00  0.00    +0.000 C 
ATOM     25  C   UNL     1       9.840  13.930  18.625  0.00  0.00    +0.000 C 
BRANCH  24  31
ATOM     26  C   UNL     1      11.361  15.948  16.630  0.00  0.00    +0.000 C 
ATOM     27  N   UNL     1      10.368  16.699  17.374  0.00  0.00    +0.000 N 
ATOM     28  C   UNL     1      10.413  18.065  17.514  0.00  0.00    +0.000 A 
ATOM     29  C   UNL     1       9.341  18.456  18.278  0.00  0.00    +0.000 A 
ATOM     30  C   UNL     1       8.618  17.289  18.608  0.00  0.00    +0.000 A 
ATOM     31  C   UNL     1       9.261  16.202  18.044  0.00  0.00    +0.000 A 
ENDBRANCH  24  31
ENDBRANCH  18  25
ENDBRANCH   1  20
TORSDOF 7
ENDMDL
MODEL 3
REMARK VINA RESULT:      -8.2      3.226     12.192
REMARK  Name = 
REMARK  8 active torsions:
REMARK  status: ('A' for Active; 'I' for Inactive)
REMARK    1  A    between atoms: C_1  and  N_2
REMARK    2  A    between atoms: C_6  and  C_7
REMARK    3  A    between atoms: C_8  and  C_9
REMARK    4  A    between atoms: C_11  and  C_12
REMARK    5  A    between atoms: C_13  and  C_14
REMARK    6  A    between atoms: C_17  and  O_18
REMARK    7  A    between atoms: O_18  and  C_19
REMARK    8  A    between atoms: C_19  and  C_20
REMARK                            x       y       z     vdW  Elec       q    Type
REMARK                         _______ _______ _______ _____ _____    ______ ____
ROOT
ATOM      1  C   UNL     1       8.142   8.369  17.760  0.00  0.00    +0.000 C 
ATOM      2  C   UNL     1       7.843   9.677  17.842  0.00  0.00    +0.000 C 
ENDROOT
BRANCH   2   3
ATOM      3  C   UNL     1       8.797  10.723  18.222  0.00  0.00    +0.000 A 
ATOM      4  C   UNL     1       9.807  10.476  19.155  0.00  0.00    +0.000 A 
ATOM      5  C   UNL     1      10.672  11.493  19.545  0.00  0.00    +0.000 A 
ATOM      6  C   UNL     1      10.507  12.788  19.051  0.00  0.00    +0.000 A 
ATOM      7  C   UNL     1       9.519  13.048  18.104  0.00  0.00    +0.000 A 
ATOM      8  C   UNL     1       8.668  12.019  17.705  0.00  0.00    +0.000 A 
ATOM      9  F   UNL     1       7.695  12.296  16.820  0.00  0.00    +0.000 F 
BRANCH   6  10
ATOM     10  O   UNL     1      11.252  13.862  19.458  0.00  0.00    +0.000 OA
BRANCH  10  11
ATOM     11  C   UNL     1      10.467  14.997  19.850  0.00  0.00    +0.000 C 
BRANCH  11  12
ATOM     12  C   UNL     1      10.750  16.197  18.985  0.00  0.00    +0.000 A 
ATOM     13  C   UNL     1       9.744  16.812  18.244  0.00  0.00    +0.000 A 
ATOM     14  C   UNL     1      10.073  17.911  17.460  0.00  0.00    +0.000 A 
ATOM     15  C   UNL     1      11.389  18.357  17.422  0.00  0.00    +0.000 A 
ATOM     16  C   UNL     1      12.333  17.675  18.169  0.00  0.00    +0.000 A 
ATOM     17  N   UNL     1      12.045  16.608  18.941  0.00  0.00    +0.000 NA
ENDBRANCH  11  12
ENDBRANCH  10  11
ENDBRANCH   6  10
ENDBRANCH   2   3
BRANCH   1  20
ATOM     18  C   UNL     1       5.419   6.030  17.402  0.00  0.00    +0.000 A 
ATOM     19  C   UNL     1       5.942   7.157  17.992  0.00  0.00    +0.000 A 
ATOM     20  C   UNL     1       7.225   7.328  17.429  0.00  0.00    +0.000 A 
ATOM     21  N   UNL     1       7.495   6.369  16.537  0.00  0.00    +0.000 NA
ATOM     22  N   UNL     1       6.388   5.603  16.534  0.00  0.00    +0.000 N 
ATOM     23  H   UNL     1       6.369   4.800  15.915  0.00  0.00    +0.000 HD
BRANCH  18  25
ATOM     24  C   UNL     1       4.031   4.461  18.549  0.00  0.00    +0.000 C 
ATOM     25  C   UNL     1       4.206   5.315  17.525  0.00  0.00    +0.000 C 
BRANCH  24  31
ATOM     26  C   UNL     1       2.009   5.085  20.660  0.00  0.00    +0.000 C 
ATOM     27  N   UNL     1       1.923   4.016  19.684  0.00  0.00    +0.000 N 
ATOM     28  C   UNL     1       0.868   3.137  19.626  0.00  0.00    +0.000 A 
ATOM     29  C   UNL     1       1.101   2.250  18.605  0.00  0.00    +0.000 A 
ATOM     30  C   UNL     1       2.336   2.605  18.019  0.00  0.00    +0.000 A 
ATOM     31  C   UNL     1       2.840   3.701  18.694  0.00  0.00    +0.000 A 
ENDBRANCH  24  31
ENDBRANCH  18  25
ENDBRANCH   1  20
TORSDOF 7
ENDMDL
MODEL 4
REMARK VINA RESULT:      -8.2      3.503     11.320
REMARK  Name = 
REMARK  8 active torsions:
REMARK  status: ('A' for Active; 'I' for Inactive)
REMARK    1  A    between atoms: C_1  and  N_2
REMARK    2  A    between atoms: C_6  and  C_7
REMARK    3  A    between atoms: C_8  and  C_9
REMARK    4  A    between atoms: C_11  and  C_12
REMARK    5  A    between atoms: C_13  and  C_14
REMARK    6  A    between atoms: C_17  and  O_18
REMARK    7  A    between atoms: O_18  and  C_19
REMARK    8  A    between atoms: C_19  and  C_20
REMARK                            x       y       z     vdW  Elec       q    Type
REMARK                         _______ _______ _______ _____ _____    ______ ____
ROOT
ATOM      1  C   UNL     1       8.183   8.284  17.967  0.00  0.00    +0.000 C 
ATOM      2  C   UNL     1       7.947   9.585  17.723  0.00  0.00    +0.000 C 
ENDROOT
BRANCH   2   3
ATOM      3  C   UNL     1       8.759  10.687  18.248  0.00  0.00    +0.000 A 
ATOM      4  C   UNL     1       9.678  10.480  19.279  0.00  0.00    +0.000 A 
ATOM      5  C   UNL     1      10.404  11.545  19.803  0.00  0.00    +0.000 A 
ATOM      6  C   UNL     1      10.182  12.844  19.343  0.00  0.00    +0.000 A 
ATOM      7  C   UNL     1       9.284  13.066  18.300  0.00  0.00    +0.000 A 
ATOM      8  C   UNL     1       8.575  11.991  17.768  0.00  0.00    +0.000 A 
ATOM      9  F   UNL     1       7.684  12.228  16.791  0.00  0.00    +0.000 F 
BRANCH   6  10
ATOM     10  O   UNL     1      10.780  13.956  19.871  0.00  0.00    +0.000 OA
BRANCH  10  11
ATOM     11  C   UNL     1      10.429  14.211  21.238  0.00  0.00    +0.000 C 
BRANCH  11  12
ATOM     12  C   UNL     1       8.983  14.605  21.378  0.00  0.00    +0.000 A 
ATOM     13  C   UNL     1       8.085  13.825  22.102  0.00  0.00    +0.000 A 
ATOM     14  C   UNL     1       6.761  14.241  22.187  0.00  0.00    +0.000 A 
ATOM     15  C   UNL     1       6.366  15.407  21.540  0.00  0.00    +0.000 A 
ATOM     16  C   UNL     1       7.315  16.111  20.821  0.00  0.00    +0.000 A 
ATOM     17  N   UNL     1       8.607  15.735  20.722  0.00  0.00    +0.000 NA
ENDBRANCH  11  12
ENDBRANCH  10  11
ENDBRANCH   6  10
ENDBRANCH   2   3
BRANCH   1  20
ATOM     18  C   UNL     1       5.830   5.612  17.382  0.00  0.00    +0.000 A 
ATOM     19  C   UNL     1       6.281   6.640  18.177  0.00  0.00    +0.000 A 
ATOM     20  C   UNL     1       7.387   7.196  17.500  0.00  0.00    +0.000 A 
ATOM     21  N   UNL     1       7.620   6.559  16.347  0.00  0.00    +0.000 NA
ATOM     22  N   UNL     1       6.664   5.614  16.295  0.00  0.00    +0.000 N 
ATOM     23  H   UNL     1       6.646   5.001  15.488  0.00  0.00    +0.000 HD
BRANCH  18  25
ATOM     24  C   UNL     1       3.872   4.771  18.458  0.00  0.00    +0.000 C 
ATOM     25  C   UNL     1       4.788   4.663  17.479  0.00  0.00    +0.000 C 
BRANCH  24  31
ATOM     26  C   UNL     1       4.210   2.296  20.100  0.00  0.00    +0.000 C 
ATOM     27  N   UNL     1       3.014   2.685  19.378  0.00  0.00    +0.000 N 
ATOM     28  C   UNL     1       1.868   1.928  19.364  0.00  0.00    +0.000 A 
ATOM     29  C   UNL     1       0.937   2.569  18.585  0.00  0.00    +0.000 A 
ATOM     30  C   UNL     1       1.536   3.757  18.114  0.00  0.00    +0.000 A 
ATOM     31  C   UNL     1       2.825   3.823  18.610  0.00  0.00    +0.000 A 
ENDBRANCH  24  31
ENDBRANCH  18  25
ENDBRANCH   1  20
TORSDOF 7
ENDMDL
MODEL 5
REMARK VINA RESULT:      -8.1      7.174      9.129
REMARK  Name = 
REMARK  8 active torsions:
REMARK  status: ('A' for Active; 'I' for Inactive)
REMARK    1  A    between atoms: C_1  and  N_2
REMARK    2  A    between atoms: C_6  and  C_7
REMARK    3  A    between atoms: C_8  and  C_9
REMARK    4  A    between atoms: C_11  and  C_12
REMARK    5  A    between atoms: C_13  and  C_14
REMARK    6  A    between atoms: C_17  and  O_18
REMARK    7  A    between atoms: O_18  and  C_19
REMARK    8  A    between atoms: C_19  and  C_20
REMARK                            x       y       z     vdW  Elec       q    Type
REMARK                         _______ _______ _______ _____ _____    ______ ____
ROOT
ATOM      1  C   UNL     1       1.450   8.990  18.000  0.00  0.00    +0.000 C 
ATOM      2  C   UNL     1       2.124   8.080  18.724  0.00  0.00    +0.000 C 
ENDROOT
BRANCH   2   3
ATOM      3  C   UNL     1       2.988   7.043  18.153  0.00  0.00    +0.000 A 
ATOM      4  C   UNL     1       4.166   7.373  17.480  0.00  0.00    +0.000 A 
ATOM      5  C   UNL     1       4.949   6.382  16.897  0.00  0.00    +0.000 A 
ATOM      6  C   UNL     1       4.538   5.048  16.929  0.00  0.00    +0.000 A 
ATOM      7  C   UNL     1       3.376   4.698  17.614  0.00  0.00    +0.000 A 
ATOM      8  C   UNL     1       2.607   5.695  18.210  0.00  0.00    +0.000 A 
ATOM      9  F   UNL     1       1.469   5.344  18.833  0.00  0.00    +0.000 F 
BRANCH   6  10
ATOM     10  O   UNL     1       5.197   4.029  16.297  0.00  0.00    +0.000 OA
BRANCH  10  11
ATOM     11  C   UNL     1       6.566   4.325  15.991  0.00  0.00    +0.000 C 
BRANCH  11  12
ATOM     12  C   UNL     1       6.800   4.406  14.505  0.00  0.00    +0.000 A 
ATOM     13  C   UNL     1       6.141   3.558  13.619  0.00  0.00    +0.000 A 
ATOM     14  C   UNL     1       6.407   3.679  12.260  0.00  0.00    +0.000 A 
ATOM     15  C   UNL     1       7.328   4.625  11.824  0.00  0.00    +0.000 A 
ATOM     16  C   UNL     1       7.958   5.411  12.772  0.00  0.00    +0.000 A 
ATOM     17  N   UNL     1       7.720   5.319  14.096  0.00  0.00    +0.000 NA
ENDBRANCH  11  12
ENDBRANCH  10  11
ENDBRANCH   6  10
ENDBRANCH   2   3
BRANCH   1  20
ATOM     18  C   UNL     1      -0.238  11.653  19.754  0.00  0.00    +0.000 A 
ATOM     19  C   UNL     1       0.894  10.898  19.554  0.00  0.00    +0.000 A 
ATOM     20  C   UNL     1       0.574   9.985  18.527  0.00  0.00    +0.000 A 
ATOM     21  N   UNL     1      -0.683  10.153  18.103  0.00  0.00    +0.000 NA
ATOM     22  N   UNL     1      -1.149  11.169  18.853  0.00  0.00    +0.000 N 
ATOM     23  H   UNL     1      -2.104  11.475  18.698  0.00  0.00    +0.000 HD
BRANCH  18  25
ATOM     24  C   UNL     1      -0.802  12.458  21.930  0.00  0.00    +0.000 C 
ATOM     25  C   UNL     1      -0.589  12.708  20.626  0.00  0.00    +0.000 C 
BRANCH  24  31
ATOM     26  C   UNL     1      -3.295  12.266  23.568  0.00  0.00    +0.000 C 
ATOM     27  N   UNL     1      -2.348  13.364  23.580  0.00  0.00    +0.000 N 
ATOM     28  C   UNL     1      -2.502  14.478  24.369  0.00  0.00    +0.000 A 
ATOM     29  C   UNL     1      -1.445  15.322  24.135  0.00  0.00    +0.000 A 
ATOM     30  C   UNL     1      -0.618  14.697  23.176  0.00  0.00    +0.000 A 
ATOM     31  C   UNL     1      -1.184  13.483  22.836  0.00  0.00    +0.000 A 
ENDBRANCH  24  31
ENDBRANCH  18  25
ENDBRANCH   1  20
TORSDOF 7
ENDMDL
MODEL 6
REMARK VINA RESULT:      -8.1      7.855      9.933
REMARK  Name = 
REMARK  8 active torsions:
REMARK  status: ('A' for Active; 'I' for Inactive)
REMARK    1  A    between atoms: C_1  and  N_2
REMARK    2  A    between atoms: C_6  and  C_7
REMARK    3  A    between atoms: C_8  and  C_9
REMARK    4  A    between atoms: C_11  and  C_12
REMARK    5  A    between atoms: C_13  and  C_14
REMARK    6  A    between atoms: C_17  and  O_18
REMARK    7  A    between atoms: O_18  and  C_19
REMARK    8  A    between atoms: C_19  and  C_20
REMARK                            x       y       z     vdW  Elec       q    Type
REMARK                         _______ _______ _______ _____ _____    ______ ____
ROOT
ATOM      1  C   UNL     1       0.857   9.122  20.741  0.00  0.00    +0.000 C 
ATOM      2  C   UNL     1       1.261   7.850  20.906  0.00  0.00    +0.000 C 
ENDROOT
BRANCH   2   3
ATOM      3  C   UNL     1       2.023   7.088  19.913  0.00  0.00    +0.000 A 
ATOM      4  C   UNL     1       2.415   7.665  18.703  0.00  0.00    +0.000 A 
ATOM      5  C   UNL     1       3.092   6.914  17.748  0.00  0.00    +0.000 A 
ATOM      6  C   UNL     1       3.338   5.557  17.963  0.00  0.00    +0.000 A 
ATOM      7  C   UNL     1       2.972   4.969  19.172  0.00  0.00    +0.000 A 
ATOM      8  C   UNL     1       2.311   5.733  20.131  0.00  0.00    +0.000 A 
ATOM      9  F   UNL     1       1.930   5.141  21.276  0.00  0.00    +0.000 F 
BRANCH   6  10
ATOM     10  O   UNL     1       3.908   4.726  17.036  0.00  0.00    +0.000 OA
BRANCH  10  11
ATOM     11  C   UNL     1       5.119   4.101  17.484  0.00  0.00    +0.000 C 
BRANCH  11  12
ATOM     12  C   UNL     1       6.168   5.116  17.851  0.00  0.00    +0.000 A 
ATOM     13  C   UNL     1       6.524   6.141  16.978  0.00  0.00    +0.000 A 
ATOM     14  C   UNL     1       7.506   7.042  17.375  0.00  0.00    +0.000 A 
ATOM     15  C   UNL     1       8.114   6.890  18.616  0.00  0.00    +0.000 A 
ATOM     16  C   UNL     1       7.720   5.831  19.413  0.00  0.00    +0.000 A 
ATOM     17  N   UNL     1       6.769   4.943  19.058  0.00  0.00    +0.000 NA
ENDBRANCH  11  12
ENDBRANCH  10  11
ENDBRANCH   6  10
ENDBRANCH   2   3
BRANCH   1  20
ATOM     18  C   UNL     1      -0.928  11.564  22.708  0.00  0.00    +0.000 A 
ATOM     19  C   UNL     1      -0.158  11.263  21.609  0.00  0.00    +0.000 A 
ATOM     20  C   UNL     1       0.084   9.874  21.674  0.00  0.00    +0.000 A 
ATOM     21  N   UNL     1      -0.500   9.331  22.748  0.00  0.00    +0.000 NA
ATOM     22  N   UNL     1      -1.109  10.368  23.351  0.00  0.00    +0.000 N 
ATOM     23  H   UNL     1      -1.626  10.185  24.203  0.00  0.00    +0.000 HD
BRANCH  18  25
ATOM     24  C   UNL     1      -2.788  13.029  23.012  0.00  0.00    +0.000 C 
ATOM     25  C   UNL     1      -1.492  12.748  23.233  0.00  0.00    +0.000 C 
BRANCH  24  31
ATOM     26  C   UNL     1      -5.744  13.266  23.394  0.00  0.00    +0.000 C 
ATOM     27  N   UNL     1      -4.762  14.299  23.661  0.00  0.00    +0.000 N 
ATOM     28  C   UNL     1      -5.097  15.547  24.129  0.00  0.00    +0.000 A 
ATOM     29  C   UNL     1      -3.945  16.281  24.263  0.00  0.00    +0.000 A 
ATOM     30  C   UNL     1      -2.874  15.450  23.869  0.00  0.00    +0.000 A 
ATOM     31  C   UNL     1      -3.388  14.222  23.496  0.00  0.00    +0.000 A 
ENDBRANCH  24  31
ENDBRANCH  18  25
ENDBRANCH   1  20
TORSDOF 7
ENDMDL
MODEL 7
REMARK VINA RESULT:      -8.1      3.414     11.976
REMARK  Name = 
REMARK  8 active torsions:
REMARK  status: ('A' for Active; 'I' for Inactive)
REMARK    1  A    between atoms: C_1  and  N_2
REMARK    2  A    between atoms: C_6  and  C_7
REMARK    3  A    between atoms: C_8  and  C_9
REMARK    4  A    between atoms: C_11  and  C_12
REMARK    5  A    between atoms: C_13  and  C_14
REMARK    6  A    between atoms: C_17  and  O_18
REMARK    7  A    between atoms: O_18  and  C_19
REMARK    8  A    between atoms: C_19  and  C_20
REMARK                            x       y       z     vdW  Elec       q    Type
REMARK                         _______ _______ _______ _____ _____    ______ ____
ROOT
ATOM      1  C   UNL     1       8.307   8.968  17.799  0.00  0.00    +0.000 C 
ATOM      2  C   UNL     1       8.889   9.697  18.768  0.00  0.00    +0.000 C 
ENDROOT
BRANCH   2   3
ATOM      3  C   UNL     1       9.583  10.968  18.543  0.00  0.00    +0.000 A 
ATOM      4  C   UNL     1      10.831  11.222  19.116  0.00  0.00    +0.000 A 
ATOM      5  C   UNL     1      11.454  12.453  18.937  0.00  0.00    +0.000 A 
ATOM      6  C   UNL     1      10.813  13.471  18.229  0.00  0.00    +0.000 A 
ATOM      7  C   UNL     1       9.577  13.229  17.633  0.00  0.00    +0.000 A 
ATOM      8  C   UNL     1       8.969  11.987  17.801  0.00  0.00    +0.000 A 
ATOM      9  F   UNL     1       7.759  11.783  17.253  0.00  0.00    +0.000 F 
BRANCH   6  10
ATOM     10  O   UNL     1      11.312  14.738  18.091  0.00  0.00    +0.000 OA
BRANCH  10  11
ATOM     11  C   UNL     1      10.445  15.762  18.598  0.00  0.00    +0.000 C 
BRANCH  11  12
ATOM     12  C   UNL     1      10.691  16.029  20.059  0.00  0.00    +0.000 A 
ATOM     13  C   UNL     1       9.896  15.453  21.047  0.00  0.00    +0.000 A 
ATOM     14  C   UNL     1      10.172  15.746  22.378  0.00  0.00    +0.000 A 
ATOM     15  C   UNL     1      11.216  16.611  22.686  0.00  0.00    +0.000 A 
ATOM     16  C   UNL     1      11.942  17.160  21.645  0.00  0.00    +0.000 A 
ATOM     17  N   UNL     1      11.701  16.893  20.345  0.00  0.00    +0.000 NA
ENDBRANCH  11  12
ENDBRANCH  10  11
ENDBRANCH   6  10
ENDBRANCH   2   3
BRANCH   1  20
ATOM     18  C   UNL     1       6.155   6.074  17.903  0.00  0.00    +0.000 A 
ATOM     19  C   UNL     1       6.393   7.358  17.471  0.00  0.00    +0.000 A 
ATOM     20  C   UNL     1       7.659   7.711  17.984  0.00  0.00    +0.000 A 
ATOM     21  N   UNL     1       8.189   6.711  18.697  0.00  0.00    +0.000 NA
ATOM     22  N   UNL     1       7.267   5.733  18.626  0.00  0.00    +0.000 N 
ATOM     23  H   UNL     1       7.464   4.860  19.104  0.00  0.00    +0.000 HD
BRANCH  18  25
ATOM     24  C   UNL     1       4.196   5.004  18.749  0.00  0.00    +0.000 C 
ATOM     25  C   UNL     1       5.091   5.156  17.757  0.00  0.00    +0.000 C 
BRANCH  24  31
ATOM     26  C   UNL     1       4.315   2.329  20.080  0.00  0.00    +0.000 C 
ATOM     27  N   UNL     1       3.214   2.839  19.285  0.00  0.00    +0.000 N 
ATOM     28  C   UNL     1       2.070   2.121  19.042  0.00  0.00    +0.000 A 
ATOM     29  C   UNL     1       1.241   2.881  18.254  0.00  0.00    +0.000 A 
ATOM     30  C   UNL     1       1.904   4.104  18.014  0.00  0.00    +0.000 A 
ATOM     31  C   UNL     1       3.128   4.072  18.656  0.00  0.00    +0.000 A 
ENDBRANCH  24  31
ENDBRANCH  18  25
ENDBRANCH   1  20
TORSDOF 7
ENDMDL
MODEL 8
REMARK VINA RESULT:      -8.0      3.173     11.552
REMARK  Name = 
REMARK  8 active torsions:
REMARK  status: ('A' for Active; 'I' for Inactive)
REMARK    1  A    between atoms: C_1  and  N_2
REMARK    2  A    between atoms: C_6  and  C_7
REMARK    3  A    between atoms: C_8  and  C_9
REMARK    4  A    between atoms: C_11  and  C_12
REMARK    5  A    between atoms: C_13  and  C_14
REMARK    6  A    between atoms: C_17  and  O_18
REMARK    7  A    between atoms: O_18  and  C_19
REMARK    8  A    between atoms: C_19  and  C_20
REMARK                            x       y       z     vdW  Elec       q    Type
REMARK                         _______ _______ _______ _____ _____    ______ ____
ROOT
ATOM      1  C   UNL     1       7.816   9.052  17.747  0.00  0.00    +0.000 C 
ATOM      2  C   UNL     1       8.824   9.227  18.619  0.00  0.00    +0.000 C 
ENDROOT
BRANCH   2   3
ATOM      3  C   UNL     1       9.478  10.513  18.881  0.00  0.00    +0.000 A 
ATOM      4  C   UNL     1      10.141  11.208  17.868  0.00  0.00    +0.000 A 
ATOM      5  C   UNL     1      10.802  12.401  18.143  0.00  0.00    +0.000 A 
ATOM      6  C   UNL     1      10.857  12.891  19.449  0.00  0.00    +0.000 A 
ATOM      7  C   UNL     1      10.183  12.222  20.469  0.00  0.00    +0.000 A 
ATOM      8  C   UNL     1       9.509  11.038  20.181  0.00  0.00    +0.000 A 
ATOM      9  F   UNL     1       8.897  10.385  21.184  0.00  0.00    +0.000 F 
BRANCH   6  10
ATOM     10  O   UNL     1      11.566  14.001  19.821  0.00  0.00    +0.000 OA
BRANCH  10  11
ATOM     11  C   UNL     1      11.303  15.155  19.011  0.00  0.00    +0.000 C 
BRANCH  11  12
ATOM     12  C   UNL     1       9.915  15.692  19.238  0.00  0.00    +0.000 A 
ATOM     13  C   UNL     1       9.516  16.170  20.484  0.00  0.00    +0.000 A 
ATOM     14  C   UNL     1       8.218  16.646  20.630  0.00  0.00    +0.000 A 
ATOM     15  C   UNL     1       7.353  16.619  19.542  0.00  0.00    +0.000 A 
ATOM     16  C   UNL     1       7.820  16.106  18.345  0.00  0.00    +0.000 A 
ATOM     17  N   UNL     1       9.074  15.640  18.172  0.00  0.00    +0.000 NA
ENDBRANCH  11  12
ENDBRANCH  10  11
ENDBRANCH   6  10
ENDBRANCH   2   3
BRANCH   1  20
ATOM     18  C   UNL     1       5.694   6.164  17.332  0.00  0.00    +0.000 A 
ATOM     19  C   UNL     1       5.874   7.442  17.806  0.00  0.00    +0.000 A 
ATOM     20  C   UNL     1       7.189   7.807  17.445  0.00  0.00    +0.000 A 
ATOM     21  N   UNL     1       7.802   6.819  16.784  0.00  0.00    +0.000 NA
ATOM     22  N   UNL     1       6.878   5.843  16.722  0.00  0.00    +0.000 N 
ATOM     23  H   UNL     1       7.129   4.980  16.252  0.00  0.00    +0.000 HD
BRANCH  18  25
ATOM     24  C   UNL     1       4.014   4.962  18.530  0.00  0.00    +0.000 C 
ATOM     25  C   UNL     1       4.634   5.230  17.367  0.00  0.00    +0.000 C 
BRANCH  24  31
ATOM     26  C   UNL     1       4.357   2.357  19.956  0.00  0.00    +0.000 C 
ATOM     27  N   UNL     1       3.155   2.811  19.283  0.00  0.00    +0.000 N 
ATOM     28  C   UNL     1       2.005   2.063  19.220  0.00  0.00    +0.000 A 
ATOM     29  C   UNL     1       1.068   2.771  18.508  0.00  0.00    +0.000 A 
ATOM     30  C   UNL     1       1.669   3.992  18.131  0.00  0.00    +0.000 A 
ATOM     31  C   UNL     1       2.964   4.010  18.615  0.00  0.00    +0.000 A 
ENDBRANCH  24  31
ENDBRANCH  18  25
ENDBRANCH   1  20
TORSDOF 7
ENDMDL
MODEL 9
REMARK VINA RESULT:      -8.0      7.291      9.264
REMARK  Name = 
REMARK  8 active torsions:
REMARK  status: ('A' for Active; 'I' for Inactive)
REMARK    1  A    between atoms: C_1  and  N_2
REMARK    2  A    between atoms: C_6  and  C_7
REMARK    3  A    between atoms: C_8  and  C_9
REMARK    4  A    between atoms: C_11  and  C_12
REMARK    5  A    between atoms: C_13  and  C_14
REMARK    6  A    between atoms: C_17  and  O_18
REMARK    7  A    between atoms: O_18  and  C_19
REMARK    8  A    between atoms: C_19  and  C_20
REMARK                            x       y       z     vdW  Elec       q    Type
REMARK                         _______ _______ _______ _____ _____    ______ ____
ROOT
ATOM      1  C   UNL     1       0.823   8.926  20.694  0.00  0.00    +0.000 C 
ATOM      2  C   UNL     1       1.371   7.711  20.871  0.00  0.00    +0.000 C 
ENDROOT
BRANCH   2   3
ATOM      3  C   UNL     1       2.127   6.987  19.844  0.00  0.00    +0.000 A 
ATOM      4  C   UNL     1       2.548   7.622  18.674  0.00  0.00    +0.000 A 
ATOM      5  C   UNL     1       3.218   6.908  17.685  0.00  0.00    +0.000 A 
ATOM      6  C   UNL     1       3.428   5.536  17.825  0.00  0.00    +0.000 A 
ATOM      7  C   UNL     1       3.034   4.890  18.995  0.00  0.00    +0.000 A 
ATOM      8  C   UNL     1       2.380   5.616  19.989  0.00  0.00    +0.000 A 
ATOM      9  F   UNL     1       1.971   4.970  21.094  0.00  0.00    +0.000 F 
BRANCH   6  10
ATOM     10  O   UNL     1       3.989   4.745  16.859  0.00  0.00    +0.000 OA
BRANCH  10  11
ATOM     11  C   UNL     1       5.209   4.109  17.266  0.00  0.00    +0.000 C 
BRANCH  11  12
ATOM     12  C   UNL     1       6.236   5.111  17.723  0.00  0.00    +0.000 A 
ATOM     13  C   UNL     1       6.656   6.149  16.895  0.00  0.00    +0.000 A 
ATOM     14  C   UNL     1       7.613   7.037  17.374  0.00  0.00    +0.000 A 
ATOM     15  C   UNL     1       8.132   6.860  18.652  0.00  0.00    +0.000 A 
ATOM     16  C   UNL     1       7.678   5.789  19.401  0.00  0.00    +0.000 A 
ATOM     17  N   UNL     1       6.750   4.913  18.965  0.00  0.00    +0.000 NA
ENDBRANCH  11  12
ENDBRANCH  10  11
ENDBRANCH   6  10
ENDBRANCH   2   3
BRANCH   1  20
ATOM     18  C   UNL     1      -1.122  11.229  22.677  0.00  0.00    +0.000 A 
ATOM     19  C   UNL     1      -0.467  10.938  21.503  0.00  0.00    +0.000 A 
ATOM     20  C   UNL     1       0.052   9.635  21.662  0.00  0.00    +0.000 A 
ATOM     21  N   UNL     1      -0.257   9.134  22.863  0.00  0.00    +0.000 NA
ATOM     22  N   UNL     1      -0.971  10.111  23.453  0.00  0.00    +0.000 N 
ATOM     23  H   UNL     1      -1.318   9.945  24.391  0.00  0.00    +0.000 HD
BRANCH  18  25
ATOM     24  C   UNL     1      -1.198  13.521  23.341  0.00  0.00    +0.000 C 
ATOM     25  C   UNL     1      -1.832  12.348  23.168  0.00  0.00    +0.000 C 
BRANCH  24  31
ATOM     26  C   UNL     1      -0.078  16.276  23.040  0.00  0.00    +0.000 C 
ATOM     27  N   UNL     1      -1.319  15.927  23.704  0.00  0.00    +0.000 N 
ATOM     28  C   UNL     1      -2.140  16.856  24.294  0.00  0.00    +0.000 A 
ATOM     29  C   UNL     1      -3.216  16.199  24.837  0.00  0.00    +0.000 A 
ATOM     30  C   UNL     1      -3.045  14.825  24.563  0.00  0.00    +0.000 A 
ATOM     31  C   UNL     1      -1.865  14.663  23.860  0.00  0.00    +0.000 A 
ENDBRANCH  24  31
ENDBRANCH  18  25
ENDBRANCH   1  20
TORSDOF 7
ENDMDL
