MODEL 1
REMARK VINA RESULT:      -6.5      0.000      0.000
REMARK  Name = 
REMARK  9 active torsions:
REMARK  status: ('A' for Active; 'I' for Inactive)
REMARK    1  A    between atoms: C_1  and  O_2
REMARK    2  A    between atoms: O_2  and  C_3
REMARK    3  A    between atoms: C_6  and  C_7
REMARK    4  A    between atoms: C_7  and  C_8
REMARK    5  A    between atoms: C_7  and  N_13
REMARK    6  A    between atoms: C_8  and  C_9
REMARK    7  A    between atoms: C_9  and  N_10
REMARK    8  A    between atoms: N_10  and  C_11
REMARK    9  A    between atoms: N_10  and  C_12
REMARK                            x       y       z     vdW  Elec       q    Type
REMARK                         _______ _______ _______ _____ _____    ______ ____
ROOT
ATOM      1  C   UNL     1       3.603   5.010  18.848  0.00  0.00    +0.000 C 
ENDROOT
BRANCH   1   5
ATOM      2  C   UNL     1       6.756   5.249  15.875  0.00  0.00    +0.000 A 
ATOM      3  C   UNL     1       5.808   4.223  15.805  0.00  0.00    +0.000 A 
ATOM      4  C   UNL     1       4.810   4.115  16.783  0.00  0.00    +0.000 A 
ATOM      5  C   UNL     1       4.776   4.999  17.872  0.00  0.00    +0.000 A 
ATOM      6  C   UNL     1       5.854   5.877  18.019  0.00  0.00    +0.000 A 
ATOM      7  C   UNL     1       6.798   6.050  17.007  0.00  0.00    +0.000 A 
BRANCH   2   9
ATOM      8  C   UNL     1       7.155   4.784  13.608  0.00  0.00    +0.000 C 
ATOM      9  O   UNL     1       7.628   5.356  14.827  0.00  0.00    +0.000 OA
ENDBRANCH   2   9
ENDBRANCH   1   5
BRANCH   1  10
ATOM     10  N   UNL     1       2.987   3.693  19.119  0.00  0.00    +0.000 NA
ATOM     11  C   UNL     1       1.528   3.608  18.951  0.00  0.00    +0.000 C 
ATOM     12  C   UNL     1       0.762   3.722  20.270  0.00  0.00    +0.000 C 
ATOM     13  O   UNL     1       1.154   2.677  21.167  0.00  0.00    +0.000 OA
ATOM     14  C   UNL     1       2.549   2.743  21.462  0.00  0.00    +0.000 C 
ATOM     15  C   UNL     1       3.451   2.837  20.213  0.00  0.00    +0.000 C 
ENDBRANCH   1  10
BRANCH   1  16
ATOM     16  C   UNL     1       2.571   6.100  18.450  0.00  0.00    +0.000 C 
BRANCH  16  17
ATOM     17  C   UNL     1       2.301   7.094  19.596  0.00  0.00    +0.000 C 
BRANCH  17  18
ATOM     18  N   UNL     1       2.144   8.501  19.180  0.00  0.00    +0.000 NA
ATOM     19  C   UNL     1       1.885   8.630  17.742  0.00  0.00    +0.000 C 
ATOM     20  C   UNL     1       1.027   9.094  19.924  0.00  0.00    +0.000 C 
ENDBRANCH  17  18
ENDBRANCH  16  17
ENDBRANCH   1  16
TORSDOF 6
ENDMDL
MODEL 2
REMARK VINA RESULT:      -6.5      2.228      6.082
REMARK  Name = 
REMARK  9 active torsions:
REMARK  status: ('A' for Active; 'I' for Inactive)
REMARK    1  A    between atoms: C_1  and  O_2
REMARK    2  A    between atoms: O_2  and  C_3
REMARK    3  A    between atoms: C_6  and  C_7
REMARK    4  A    between atoms: C_7  and  C_8
REMARK    5  A    between atoms: C_7  and  N_13
REMARK    6  A    between atoms: C_8  and  C_9
REMARK    7  A    between atoms: C_9  and  N_10
REMARK    8  A    between atoms: N_10  and  C_11
REMARK    9  A    between atoms: N_10  and  C_12
REMARK                            x       y       z     vdW  Elec       q    Type
REMARK                         _______ _______ _______ _____ _____    ______ ____
ROOT
ATOM      1  C   UNL     1       4.042   5.400  18.253  0.00  0.00    +0.000 C 
ENDROOT
BRANCH   1   5
ATOM      2  C   UNL     1       1.565   8.742  19.492  0.00  0.00    +0.000 A 
ATOM      3  C   UNL     1       1.664   7.609  20.305  0.00  0.00    +0.000 A 
ATOM      4  C   UNL     1       2.431   6.509  19.894  0.00  0.00    +0.000 A 
ATOM      5  C   UNL     1       3.066   6.506  18.643  0.00  0.00    +0.000 A 
ATOM      6  C   UNL     1       2.777   7.563  17.775  0.00  0.00    +0.000 A 
ATOM      7  C   UNL     1       2.092   8.698  18.208  0.00  0.00    +0.000 A 
BRANCH   2   9
ATOM      8  C   UNL     1       0.555  10.815  19.046  0.00  0.00    +0.000 C 
ATOM      9  O   UNL     1       0.894   9.816  20.008  0.00  0.00    +0.000 OA
ENDBRANCH   2   9
ENDBRANCH   1   5
BRANCH   1  10
ATOM     10  N   UNL     1       5.249   5.842  17.521  0.00  0.00    +0.000 NA
ATOM     11  C   UNL     1       5.377   5.376  16.132  0.00  0.00    +0.000 C 
ATOM     12  C   UNL     1       6.296   4.162  15.986  0.00  0.00    +0.000 C 
ATOM     13  O   UNL     1       7.611   4.472  16.459  0.00  0.00    +0.000 OA
ATOM     14  C   UNL     1       7.592   4.845  17.837  0.00  0.00    +0.000 C 
ATOM     15  C   UNL     1       6.555   5.936  18.177  0.00  0.00    +0.000 C 
ENDBRANCH   1  10
BRANCH   1  16
ATOM     16  C   UNL     1       3.293   4.232  17.555  0.00  0.00    +0.000 C 
BRANCH  16  17
ATOM     17  C   UNL     1       3.559   2.876  18.237  0.00  0.00    +0.000 C 
BRANCH  17  18
ATOM     18  N   UNL     1       2.468   2.386  19.100  0.00  0.00    +0.000 NA
ATOM     19  C   UNL     1       2.647   2.782  20.501  0.00  0.00    +0.000 C 
ATOM     20  C   UNL     1       1.195   2.923  18.607  0.00  0.00    +0.000 C 
ENDBRANCH  17  18
ENDBRANCH  16  17
ENDBRANCH   1  16
TORSDOF 6
ENDMDL
MODEL 3
REMARK VINA RESULT:      -6.5      0.988      1.379
REMARK  Name = 
REMARK  9 active torsions:
REMARK  status: ('A' for Active; 'I' for Inactive)
REMARK    1  A    between atoms: C_1  and  O_2
REMARK    2  A    between atoms: O_2  and  C_3
REMARK    3  A    between atoms: C_6  and  C_7
REMARK    4  A    between atoms: C_7  and  C_8
REMARK    5  A    between atoms: C_7  and  N_13
REMARK    6  A    between atoms: C_8  and  C_9
REMARK    7  A    between atoms: C_9  and  N_10
REMARK    8  A    between atoms: N_10  and  C_11
REMARK    9  A    between atoms: N_10  and  C_12
REMARK                            x       y       z     vdW  Elec       q    Type
REMARK                         _______ _______ _______ _____ _____    ______ ____
ROOT
ATOM      1  C   UNL     1       3.737   5.237  19.278  0.00  0.00    +0.000 C 
ENDROOT
BRANCH   1   5
ATOM      2  C   UNL     1       6.682   5.464  16.098  0.00  0.00    +0.000 A 
ATOM      3  C   UNL     1       7.071   5.068  17.381  0.00  0.00    +0.000 A 
ATOM      4  C   UNL     1       6.134   5.030  18.424  0.00  0.00    +0.000 A 
ATOM      5  C   UNL     1       4.808   5.435  18.210  0.00  0.00    +0.000 A 
ATOM      6  C   UNL     1       4.507   6.018  16.975  0.00  0.00    +0.000 A 
ATOM      7  C   UNL     1       5.405   5.976  15.909  0.00  0.00    +0.000 A 
BRANCH   2   9
ATOM      8  C   UNL     1       7.150   4.770  13.904  0.00  0.00    +0.000 C 
ATOM      9  O   UNL     1       7.623   5.369  15.111  0.00  0.00    +0.000 OA
ENDBRANCH   2   9
ENDBRANCH   1   5
BRANCH   1  10
ATOM     10  N   UNL     1       3.485   3.834  19.677  0.00  0.00    +0.000 NA
ATOM     11  C   UNL     1       3.406   2.850  18.586  0.00  0.00    +0.000 C 
ATOM     12  C   UNL     1       1.970   2.510  18.185  0.00  0.00    +0.000 C 
ATOM     13  O   UNL     1       1.254   1.973  19.302  0.00  0.00    +0.000 OA
ATOM     14  C   UNL     1       1.199   2.907  20.381  0.00  0.00    +0.000 C 
ATOM     15  C   UNL     1       2.570   3.498  20.770  0.00  0.00    +0.000 C 
ENDBRANCH   1  10
BRANCH   1  16
ATOM     16  C   UNL     1       2.443   6.011  18.906  0.00  0.00    +0.000 C 
BRANCH  16  17
ATOM     17  C   UNL     1       2.136   7.147  19.900  0.00  0.00    +0.000 C 
BRANCH  17  18
ATOM     18  N   UNL     1       2.078   8.498  19.308  0.00  0.00    +0.000 NA
ATOM     19  C   UNL     1       1.868   8.460  17.858  0.00  0.00    +0.000 C 
ATOM     20  C   UNL     1       0.980   9.242  19.933  0.00  0.00    +0.000 C 
ENDBRANCH  17  18
ENDBRANCH  16  17
ENDBRANCH   1  16
TORSDOF 6
ENDMDL
MODEL 4
REMARK VINA RESULT:      -6.5      2.554      5.421
REMARK  Name = 
REMARK  9 active torsions:
REMARK  status: ('A' for Active; 'I' for Inactive)
REMARK    1  A    between atoms: C_1  and  O_2
REMARK    2  A    between atoms: O_2  and  C_3
REMARK    3  A    between atoms: C_6  and  C_7
REMARK    4  A    between atoms: C_7  and  C_8
REMARK    5  A    between atoms: C_7  and  N_13
REMARK    6  A    between atoms: C_8  and  C_9
REMARK    7  A    between atoms: C_9  and  N_10
REMARK    8  A    between atoms: N_10  and  C_11
REMARK    9  A    between atoms: N_10  and  C_12
REMARK                            x       y       z     vdW  Elec       q    Type
REMARK                         _______ _______ _______ _____ _____    ______ ____
ROOT
ATOM      1  C   UNL     1       3.748   5.719  18.190  0.00  0.00    +0.000 C 
ENDROOT
BRANCH   1   5
ATOM      2  C   UNL     1       1.429   9.190  19.379  0.00  0.00    +0.000 A 
ATOM      3  C   UNL     1       1.571   8.112  20.258  0.00  0.00    +0.000 A 
ATOM      4  C   UNL     1       2.286   6.971  19.868  0.00  0.00    +0.000 A 
ATOM      5  C   UNL     1       2.823   6.870  18.575  0.00  0.00    +0.000 A 
ATOM      6  C   UNL     1       2.485   7.871  17.660  0.00  0.00    +0.000 A 
ATOM      7  C   UNL     1       1.854   9.048  18.065  0.00  0.00    +0.000 A 
BRANCH   2   9
ATOM      8  C   UNL     1       1.209  11.523  19.227  0.00  0.00    +0.000 C 
ATOM      9  O   UNL     1       0.816  10.310  19.869  0.00  0.00    +0.000 OA
ENDBRANCH   2   9
ENDBRANCH   1   5
BRANCH   1  10
ATOM     10  N   UNL     1       3.099   4.582  17.501  0.00  0.00    +0.000 NA
ATOM     11  C   UNL     1       1.659   4.407  17.745  0.00  0.00    +0.000 C 
ATOM     12  C   UNL     1       1.351   3.346  18.802  0.00  0.00    +0.000 C 
ATOM     13  O   UNL     1       1.877   2.076  18.401  0.00  0.00    +0.000 OA
ATOM     14  C   UNL     1       3.294   2.131  18.234  0.00  0.00    +0.000 C 
ATOM     15  C   UNL     1       3.776   3.293  17.341  0.00  0.00    +0.000 C 
ENDBRANCH   1  10
BRANCH   1  16
ATOM     16  C   UNL     1       4.618   5.288  19.402  0.00  0.00    +0.000 C 
BRANCH  16  17
ATOM     17  C   UNL     1       6.124   5.302  19.075  0.00  0.00    +0.000 C 
BRANCH  17  18
ATOM     18  N   UNL     1       6.461   5.714  17.699  0.00  0.00    +0.000 NA
ATOM     19  C   UNL     1       7.257   6.945  17.667  0.00  0.00    +0.000 C 
ATOM     20  C   UNL     1       7.217   4.636  17.052  0.00  0.00    +0.000 C 
ENDBRANCH  17  18
ENDBRANCH  16  17
ENDBRANCH   1  16
TORSDOF 6
ENDMDL
MODEL 5
REMARK VINA RESULT:      -6.4      1.520      2.281
REMARK  Name = 
REMARK  9 active torsions:
REMARK  status: ('A' for Active; 'I' for Inactive)
REMARK    1  A    between atoms: C_1  and  O_2
REMARK    2  A    between atoms: O_2  and  C_3
REMARK    3  A    between atoms: C_6  and  C_7
REMARK    4  A    between atoms: C_7  and  C_8
REMARK    5  A    between atoms: C_7  and  N_13
REMARK    6  A    between atoms: C_8  and  C_9
REMARK    7  A    between atoms: C_9  and  N_10
REMARK    8  A    between atoms: N_10  and  C_11
REMARK    9  A    between atoms: N_10  and  C_12
REMARK                            x       y       z     vdW  Elec       q    Type
REMARK                         _______ _______ _______ _____ _____    ______ ____
ROOT
ATOM      1  C   UNL     1       3.069   5.899  19.473  0.00  0.00    +0.000 C 
ENDROOT
BRANCH   1   5
ATOM      2  C   UNL     1       6.326   5.858  16.604  0.00  0.00    +0.000 A 
ATOM      3  C   UNL     1       6.504   5.289  17.869  0.00  0.00    +0.000 A 
ATOM      4  C   UNL     1       5.471   5.332  18.815  0.00  0.00    +0.000 A 
ATOM      5  C   UNL     1       4.265   5.990  18.529  0.00  0.00    +0.000 A 
ATOM      6  C   UNL     1       4.200   6.722  17.340  0.00  0.00    +0.000 A 
ATOM      7  C   UNL     1       5.185   6.609  16.357  0.00  0.00    +0.000 A 
BRANCH   2   9
ATOM      8  C   UNL     1       7.017   4.780  14.635  0.00  0.00    +0.000 C 
ATOM      9  O   UNL     1       7.334   5.678  15.698  0.00  0.00    +0.000 OA
ENDBRANCH   2   9
ENDBRANCH   1   5
BRANCH   1  10
ATOM     10  N   UNL     1       2.200   4.717  19.289  0.00  0.00    +0.000 NA
ATOM     11  C   UNL     1       2.403   3.605  20.231  0.00  0.00    +0.000 C 
ATOM     12  C   UNL     1       3.269   2.482  19.659  0.00  0.00    +0.000 C 
ATOM     13  O   UNL     1       2.669   1.941  18.478  0.00  0.00    +0.000 OA
ATOM     14  C   UNL     1       2.521   2.939  17.468  0.00  0.00    +0.000 C 
ATOM     15  C   UNL     1       1.834   4.231  17.958  0.00  0.00    +0.000 C 
ENDBRANCH   1  10
BRANCH   1  16
ATOM     16  C   UNL     1       2.286   7.240  19.495  0.00  0.00    +0.000 C 
BRANCH  16  17
ATOM     17  C   UNL     1       1.567   7.475  20.836  0.00  0.00    +0.000 C 
BRANCH  17  18
ATOM     18  N   UNL     1       0.697   8.666  20.880  0.00  0.00    +0.000 NA
ATOM     19  C   UNL     1       0.887   9.448  22.106  0.00  0.00    +0.000 C 
ATOM     20  C   UNL     1       0.994   9.513  19.720  0.00  0.00    +0.000 C 
ENDBRANCH  17  18
ENDBRANCH  16  17
ENDBRANCH   1  16
TORSDOF 6
ENDMDL
MODEL 6
REMARK VINA RESULT:      -6.4      2.419      5.710
REMARK  Name = 
REMARK  9 active torsions:
REMARK  status: ('A' for Active; 'I' for Inactive)
REMARK    1  A    between atoms: C_1  and  O_2
REMARK    2  A    between atoms: O_2  and  C_3
REMARK    3  A    between atoms: C_6  and  C_7
REMARK    4  A    between atoms: C_7  and  C_8
REMARK    5  A    between atoms: C_7  and  N_13
REMARK    6  A    between atoms: C_8  and  C_9
REMARK    7  A    between atoms: C_9  and  N_10
REMARK    8  A    between atoms: N_10  and  C_11
REMARK    9  A    between atoms: N_10  and  C_12
REMARK                            x       y       z     vdW  Elec       q    Type
REMARK                         _______ _______ _______ _____ _____    ______ ____
ROOT
ATOM      1  C   UNL     1       3.156   5.785  18.279  0.00  0.00    +0.000 C 
ENDROOT
BRANCH   1   5
ATOM      2  C   UNL     1       1.127   9.501  19.233  0.00  0.00    +0.000 A 
ATOM      3  C   UNL     1       1.743   9.343  17.987  0.00  0.00    +0.000 A 
ATOM      4  C   UNL     1       2.434   8.161  17.685  0.00  0.00    +0.000 A 
ATOM      5  C   UNL     1       2.563   7.143  18.642  0.00  0.00    +0.000 A 
ATOM      6  C   UNL     1       2.117   7.420  19.938  0.00  0.00    +0.000 A 
ATOM      7  C   UNL     1       1.351   8.551  20.220  0.00  0.00    +0.000 A 
BRANCH   2   9
ATOM      8  C   UNL     1      -0.830  10.663  18.655  0.00  0.00    +0.000 C 
ATOM      9  O   UNL     1       0.379  10.631  19.413  0.00  0.00    +0.000 OA
ENDBRANCH   2   9
ENDBRANCH   1   5
BRANCH   1  10
ATOM     10  N   UNL     1       2.791   4.668  19.176  0.00  0.00    +0.000 NA
ATOM     11  C   UNL     1       3.867   3.722  19.512  0.00  0.00    +0.000 C 
ATOM     12  C   UNL     1       3.834   2.447  18.668  0.00  0.00    +0.000 C 
ATOM     13  O   UNL     1       2.589   1.764  18.846  0.00  0.00    +0.000 OA
ATOM     14  C   UNL     1       1.488   2.581  18.450  0.00  0.00    +0.000 C 
ATOM     15  C   UNL     1       1.496   3.992  19.075  0.00  0.00    +0.000 C 
ENDBRANCH   1  10
BRANCH   1  16
ATOM     16  C   UNL     1       4.686   5.904  18.037  0.00  0.00    +0.000 C 
BRANCH  16  17
ATOM     17  C   UNL     1       5.075   5.574  16.583  0.00  0.00    +0.000 C 
BRANCH  17  18
ATOM     18  N   UNL     1       6.069   4.495  16.431  0.00  0.00    +0.000 NA
ATOM     19  C   UNL     1       6.686   4.490  15.100  0.00  0.00    +0.000 C 
ATOM     20  C   UNL     1       7.115   4.667  17.445  0.00  0.00    +0.000 C 
ENDBRANCH  17  18
ENDBRANCH  16  17
ENDBRANCH   1  16
TORSDOF 6
ENDMDL
MODEL 7
REMARK VINA RESULT:      -6.4      2.372      6.167
REMARK  Name = 
REMARK  9 active torsions:
REMARK  status: ('A' for Active; 'I' for Inactive)
REMARK    1  A    between atoms: C_1  and  O_2
REMARK    2  A    between atoms: O_2  and  C_3
REMARK    3  A    between atoms: C_6  and  C_7
REMARK    4  A    between atoms: C_7  and  C_8
REMARK    5  A    between atoms: C_7  and  N_13
REMARK    6  A    between atoms: C_8  and  C_9
REMARK    7  A    between atoms: C_9  and  N_10
REMARK    8  A    between atoms: N_10  and  C_11
REMARK    9  A    between atoms: N_10  and  C_12
REMARK                            x       y       z     vdW  Elec       q    Type
REMARK                         _______ _______ _______ _____ _____    ______ ____
ROOT
ATOM      1  C   UNL     1       3.727   5.954  18.041  0.00  0.00    +0.000 C 
ENDROOT
BRANCH   1   5
ATOM      2  C   UNL     1       1.133   9.240  19.187  0.00  0.00    +0.000 A 
ATOM      3  C   UNL     1       1.806   9.278  17.962  0.00  0.00    +0.000 A 
ATOM      4  C   UNL     1       2.676   8.239  17.601  0.00  0.00    +0.000 A 
ATOM      5  C   UNL     1       2.925   7.175  18.481  0.00  0.00    +0.000 A 
ATOM      6  C   UNL     1       2.399   7.275  19.772  0.00  0.00    +0.000 A 
ATOM      7  C   UNL     1       1.464   8.255  20.107  0.00  0.00    +0.000 A 
BRANCH   2   9
ATOM      8  C   UNL     1      -0.794  10.340  18.419  0.00  0.00    +0.000 C 
ATOM      9  O   UNL     1       0.218  10.229  19.419  0.00  0.00    +0.000 OA
ENDBRANCH   2   9
ENDBRANCH   1   5
BRANCH   1  10
ATOM     10  N   UNL     1       4.748   6.203  17.000  0.00  0.00    +0.000 NA
ATOM     11  C   UNL     1       5.033   5.086  16.086  0.00  0.00    +0.000 C 
ATOM     12  C   UNL     1       6.284   4.295  16.472  0.00  0.00    +0.000 C 
ATOM     13  O   UNL     1       7.432   5.150  16.478  0.00  0.00    +0.000 OA
ATOM     14  C   UNL     1       7.280   6.216  17.415  0.00  0.00    +0.000 C 
ATOM     15  C   UNL     1       5.952   6.990  17.275  0.00  0.00    +0.000 C 
ENDBRANCH   1  10
BRANCH   1  16
ATOM     16  C   UNL     1       2.780   4.771  17.702  0.00  0.00    +0.000 C 
BRANCH  16  17
ATOM     17  C   UNL     1       2.652   3.773  18.868  0.00  0.00    +0.000 C 
BRANCH  17  18
ATOM     18  N   UNL     1       1.275   3.536  19.341  0.00  0.00    +0.000 NA
ATOM     19  C   UNL     1       0.716   2.284  18.821  0.00  0.00    +0.000 C 
ATOM     20  C   UNL     1       1.277   3.489  20.807  0.00  0.00    +0.000 C 
ENDBRANCH  17  18
ENDBRANCH  16  17
ENDBRANCH   1  16
TORSDOF 6
ENDMDL
MODEL 8
REMARK VINA RESULT:      -6.4      1.357      1.968
REMARK  Name = 
REMARK  9 active torsions:
REMARK  status: ('A' for Active; 'I' for Inactive)
REMARK    1  A    between atoms: C_1  and  O_2
REMARK    2  A    between atoms: O_2  and  C_3
REMARK    3  A    between atoms: C_6  and  C_7
REMARK    4  A    between atoms: C_7  and  C_8
REMARK    5  A    between atoms: C_7  and  N_13
REMARK    6  A    between atoms: C_8  and  C_9
REMARK    7  A    between atoms: C_9  and  N_10
REMARK    8  A    between atoms: N_10  and  C_11
REMARK    9  A    between atoms: N_10  and  C_12
REMARK                            x       y       z     vdW  Elec       q    Type
REMARK                         _______ _______ _______ _____ _____    ______ ____
ROOT
ATOM      1  C   UNL     1       2.935   6.002  19.607  0.00  0.00    +0.000 C 
ENDROOT
BRANCH   1   5
ATOM      2  C   UNL     1       6.209   5.682  16.776  0.00  0.00    +0.000 A 
ATOM      3  C   UNL     1       5.079   6.439  16.452  0.00  0.00    +0.000 A 
ATOM      4  C   UNL     1       4.000   6.516  17.344  0.00  0.00    +0.000 A 
ATOM      5  C   UNL     1       4.015   5.796  18.548  0.00  0.00    +0.000 A 
ATOM      6  C   UNL     1       5.063   4.892  18.743  0.00  0.00    +0.000 A 
ATOM      7  C   UNL     1       6.180   4.878  17.907  0.00  0.00    +0.000 A 
BRANCH   2   9
ATOM      8  C   UNL     1       7.130   4.913  14.758  0.00  0.00    +0.000 C 
ATOM      9  O   UNL     1       7.264   5.746  15.909  0.00  0.00    +0.000 OA
ENDBRANCH   2   9
ENDBRANCH   1   5
BRANCH   1  10
ATOM     10  N   UNL     1       1.921   4.929  19.701  0.00  0.00    +0.000 NA
ATOM     11  C   UNL     1       1.963   4.096  20.913  0.00  0.00    +0.000 C 
ATOM     12  C   UNL     1       2.684   2.764  20.703  0.00  0.00    +0.000 C 
ATOM     13  O   UNL     1       2.035   2.002  19.680  0.00  0.00    +0.000 OA
ATOM     14  C   UNL     1       2.033   2.701  18.435  0.00  0.00    +0.000 C 
ATOM     15  C   UNL     1       1.513   4.151  18.530  0.00  0.00    +0.000 C 
ENDBRANCH   1  10
BRANCH   1  16
ATOM     16  C   UNL     1       2.318   7.422  19.489  0.00  0.00    +0.000 C 
BRANCH  16  17
ATOM     17  C   UNL     1       1.526   7.822  20.749  0.00  0.00    +0.000 C 
BRANCH  17  18
ATOM     18  N   UNL     1       1.051   9.218  20.773  0.00  0.00    +0.000 NA
ATOM     19  C   UNL     1       0.769   9.733  19.430  0.00  0.00    +0.000 C 
ATOM     20  C   UNL     1      -0.170   9.290  21.582  0.00  0.00    +0.000 C 
ENDBRANCH  17  18
ENDBRANCH  16  17
ENDBRANCH   1  16
TORSDOF 6
ENDMDL
MODEL 9
REMARK VINA RESULT:      -6.3      2.328      6.145
REMARK  Name = 
REMARK  9 active torsions:
REMARK  status: ('A' for Active; 'I' for Inactive)
REMARK    1  A    between atoms: C_1  and  O_2
REMARK    2  A    between atoms: O_2  and  C_3
REMARK    3  A    between atoms: C_6  and  C_7
REMARK    4  A    between atoms: C_7  and  C_8
REMARK    5  A    between atoms: C_7  and  N_13
REMARK    6  A    between atoms: C_8  and  C_9
REMARK    7  A    between atoms: C_9  and  N_10
REMARK    8  A    between atoms: N_10  and  C_11
REMARK    9  A    between atoms: N_10  and  C_12
REMARK                            x       y       z     vdW  Elec       q    Type
REMARK                         _______ _______ _______ _____ _____    ______ ____
ROOT
ATOM      1  C   UNL     1       3.877   5.771  18.220  0.00  0.00    +0.000 C 
ENDROOT
BRANCH   1   5
ATOM      2  C   UNL     1       1.415   9.192  19.256  0.00  0.00    +0.000 A 
ATOM      3  C   UNL     1       1.555   8.134  20.160  0.00  0.00    +0.000 A 
ATOM      4  C   UNL     1       2.317   7.008  19.818  0.00  0.00    +0.000 A 
ATOM      5  C   UNL     1       2.905   6.901  18.549  0.00  0.00    +0.000 A 
ATOM      6  C   UNL     1       2.574   7.876  17.604  0.00  0.00    +0.000 A 
ATOM      7  C   UNL     1       1.895   9.040  17.962  0.00  0.00    +0.000 A 
BRANCH   2   9
ATOM      8  C   UNL     1      -0.459  10.584  19.002  0.00  0.00    +0.000 C 
ATOM      9  O   UNL     1       0.753  10.302  19.702  0.00  0.00    +0.000 OA
ENDBRANCH   2   9
ENDBRANCH   1   5
BRANCH   1  10
ATOM     10  N   UNL     1       4.941   6.107  17.248  0.00  0.00    +0.000 NA
ATOM     11  C   UNL     1       5.106   5.182  16.116  0.00  0.00    +0.000 C 
ATOM     12  C   UNL     1       6.244   4.180  16.317  0.00  0.00    +0.000 C 
ATOM     13  O   UNL     1       7.487   4.867  16.497  0.00  0.00    +0.000 OA
ATOM     14  C   UNL     1       7.447   5.722  17.640  0.00  0.00    +0.000 C 
ATOM     15  C   UNL     1       6.225   6.664  17.677  0.00  0.00    +0.000 C 
ENDBRANCH   1  10
BRANCH   1  16
ATOM     16  C   UNL     1       3.105   4.472  17.861  0.00  0.00    +0.000 C 
BRANCH  16  17
ATOM     17  C   UNL     1       2.958   3.527  19.068  0.00  0.00    +0.000 C 
BRANCH  17  18
ATOM     18  N   UNL     1       1.580   3.355  19.565  0.00  0.00    +0.000 NA
ATOM     19  C   UNL     1       0.812   2.402  18.757  0.00  0.00    +0.000 C 
ATOM     20  C   UNL     1       1.631   2.878  20.951  0.00  0.00    +0.000 C 
ENDBRANCH  17  18
ENDBRANCH  16  17
ENDBRANCH   1  16
TORSDOF 6
ENDMDL
