MODEL 1
REMARK VINA RESULT:      -7.3      0.000      0.000
REMARK  Name = 
REMARK  6 active torsions:
REMARK  status: ('A' for Active; 'I' for Inactive)
REMARK    1  A    between atoms: C_2  and  C_3
REMARK    2  A    between atoms: C_7  and  N_8
REMARK    3  A    between atoms: C_9  and  C_11
REMARK    4  A    between atoms: C_11  and  O_12
REMARK    5  A    between atoms: O_12  and  C_13
REMARK    6  A    between atoms: C_13  and  C_15
REMARK                            x       y       z     vdW  Elec       q    Type
REMARK                         _______ _______ _______ _____ _____    ______ ____
ROOT
ATOM      1  N   UNL     1       6.276   5.113  15.960  0.00  0.00    +0.000 N 
ATOM      2  C   UNL     1       7.041   4.779  17.075  0.00  0.00    +0.000 C 
ATOM      3  O   UNL     1       8.130   4.207  17.055  0.00  0.00    +0.000 OA
ATOM      4  H   UNL     1       5.331   5.452  16.118  0.00  0.00    +0.000 HD
ENDROOT
BRANCH   1   9
ATOM      5  C   UNL     1       6.426   3.566  12.557  0.00  0.00    +0.000 A 
ATOM      6  C   UNL     1       7.393   4.370  11.935  0.00  0.00    +0.000 A 
ATOM      7  C   UNL     1       7.989   5.406  12.650  0.00  0.00    +0.000 A 
ATOM      8  C   UNL     1       7.627   5.639  13.976  0.00  0.00    +0.000 A 
ATOM      9  C   UNL     1       6.659   4.861  14.617  0.00  0.00    +0.000 A 
ATOM     10  C   UNL     1       6.053   3.823  13.889  0.00  0.00    +0.000 A 
BRANCH   5  12
ATOM     11  N   UNL     1       5.351   1.604  11.251  0.00  0.00    +0.000 NA
ATOM     12  C   UNL     1       5.834   2.477  11.832  0.00  0.00    +0.000 C 
ENDBRANCH   5  12
ENDBRANCH   1   9
BRANCH   2  13
ATOM     13  C   UNL     1       6.407   5.088  18.431  0.00  0.00    +0.000 C 
BRANCH  13  14
ATOM     14  O   UNL     1       5.240   4.273  18.622  0.00  0.00    +0.000 OA
BRANCH  14  15
ATOM     15  C   UNL     1       4.069   4.932  18.466  0.00  0.00    +0.000 C 
ATOM     16  O   UNL     1       3.917   5.956  17.818  0.00  0.00    +0.000 OA
BRANCH  15  17
ATOM     17  C   UNL     1       2.973   4.266  19.214  0.00  0.00    +0.000 A 
ATOM     18  C   UNL     1       2.768   4.434  20.588  0.00  0.00    +0.000 A 
ATOM     19  C   UNL     1       1.691   3.809  21.212  0.00  0.00    +0.000 A 
ATOM     20  C   UNL     1       0.836   3.009  20.457  0.00  0.00    +0.000 A 
ATOM     21  N   UNL     1       1.036   2.819  19.101  0.00  0.00    +0.000 N 
ATOM     22  O   UNL     1       0.247   2.086  18.430  0.00  0.00    +0.000 OA
ATOM     23  C   UNL     1       2.102   3.449  18.490  0.00  0.00    +0.000 A 
ENDBRANCH  15  17
ENDBRANCH  14  15
ENDBRANCH  13  14
ENDBRANCH   2  13
TORSDOF 6
ENDMDL
MODEL 2
REMARK VINA RESULT:      -7.1      5.955      8.763
REMARK  Name = 
REMARK  6 active torsions:
REMARK  status: ('A' for Active; 'I' for Inactive)
REMARK    1  A    between atoms: C_2  and  C_3
REMARK    2  A    between atoms: C_7  and  N_8
REMARK    3  A    between atoms: C_9  and  C_11
REMARK    4  A    between atoms: C_11  and  O_12
REMARK    5  A    between atoms: O_12  and  C_13
REMARK    6  A    between atoms: C_13  and  C_15
REMARK                            x       y       z     vdW  Elec       q    Type
REMARK                         _______ _______ _______ _____ _____    ______ ____
ROOT
ATOM      1  N   UNL     1       6.825   7.753  17.052  0.00  0.00    +0.000 N 
ATOM      2  C   UNL     1       7.852   7.987  17.964  0.00  0.00    +0.000 C 
ATOM      3  O   UNL     1       8.343   7.153  18.724  0.00  0.00    +0.000 OA
ATOM      4  H   UNL     1       6.412   8.558  16.587  0.00  0.00    +0.000 HD
ENDROOT
BRANCH   1   9
ATOM      5  C   UNL     1       4.287   5.007  17.141  0.00  0.00    +0.000 A 
ATOM      6  C   UNL     1       4.947   4.003  16.416  0.00  0.00    +0.000 A 
ATOM      7  C   UNL     1       6.224   4.242  15.916  0.00  0.00    +0.000 A 
ATOM      8  C   UNL     1       6.842   5.473  16.138  0.00  0.00    +0.000 A 
ATOM      9  C   UNL     1       6.204   6.494  16.846  0.00  0.00    +0.000 A 
ATOM     10  C   UNL     1       4.911   6.251  17.340  0.00  0.00    +0.000 A 
BRANCH   5  12
ATOM     11  N   UNL     1       1.933   4.538  18.116  0.00  0.00    +0.000 NA
ATOM     12  C   UNL     1       2.983   4.750  17.685  0.00  0.00    +0.000 C 
ENDBRANCH   5  12
ENDBRANCH   1   9
BRANCH   2  13
ATOM     13  C   UNL     1       8.333   9.434  18.065  0.00  0.00    +0.000 C 
BRANCH  13  14
ATOM     14  O   UNL     1       9.381   9.534  19.041  0.00  0.00    +0.000 OA
BRANCH  14  15
ATOM     15  C   UNL     1       9.416  10.716  19.701  0.00  0.00    +0.000 C 
ATOM     16  O   UNL     1       9.007  10.901  20.836  0.00  0.00    +0.000 OA
BRANCH  15  17
ATOM     17  C   UNL     1       9.997  11.788  18.853  0.00  0.00    +0.000 A 
ATOM     18  C   UNL     1      11.197  11.644  18.148  0.00  0.00    +0.000 A 
ATOM     19  C   UNL     1      11.656  12.681  17.340  0.00  0.00    +0.000 A 
ATOM     20  C   UNL     1      10.917  13.859  17.254  0.00  0.00    +0.000 A 
ATOM     21  N   UNL     1       9.737  14.022  17.959  0.00  0.00    +0.000 N 
ATOM     22  O   UNL     1       9.078  15.102  17.869  0.00  0.00    +0.000 OA
ATOM     23  C   UNL     1       9.286  12.986  18.752  0.00  0.00    +0.000 A 
ENDBRANCH  15  17
ENDBRANCH  14  15
ENDBRANCH  13  14
ENDBRANCH   2  13
TORSDOF 6
ENDMDL
MODEL 3
REMARK VINA RESULT:      -7.0      3.888      8.279
REMARK  Name = 
REMARK  6 active torsions:
REMARK  status: ('A' for Active; 'I' for Inactive)
REMARK    1  A    between atoms: C_2  and  C_3
REMARK    2  A    between atoms: C_7  and  N_8
REMARK    3  A    between atoms: C_9  and  C_11
REMARK    4  A    between atoms: C_11  and  O_12
REMARK    5  A    between atoms: O_12  and  C_13
REMARK    6  A    between atoms: C_13  and  C_15
REMARK                            x       y       z     vdW  Elec       q    Type
REMARK                         _______ _______ _______ _____ _____    ______ ____
ROOT
ATOM      1  N   UNL     1       2.551   6.521  20.100  0.00  0.00    +0.000 N 
ATOM      2  C   UNL     1       1.933   5.294  20.335  0.00  0.00    +0.000 C 
ATOM      3  O   UNL     1       0.734   5.122  20.547  0.00  0.00    +0.000 OA
ATOM      4  H   UNL     1       3.567   6.544  20.083  0.00  0.00    +0.000 HD
ENDROOT
BRANCH   1   9
ATOM      5  C   UNL     1       0.643   9.557  21.163  0.00  0.00    +0.000 A 
ATOM      6  C   UNL     1       0.544  10.255  19.950  0.00  0.00    +0.000 A 
ATOM      7  C   UNL     1       1.100   9.710  18.795  0.00  0.00    +0.000 A 
ATOM      8  C   UNL     1       1.748   8.476  18.847  0.00  0.00    +0.000 A 
ATOM      9  C   UNL     1       1.871   7.765  20.044  0.00  0.00    +0.000 A 
ATOM     10  C   UNL     1       1.317   8.324  21.208  0.00  0.00    +0.000 A 
BRANCH   5  12
ATOM     11  N   UNL     1      -0.451  10.537  23.298  0.00  0.00    +0.000 NA
ATOM     12  C   UNL     1       0.041  10.103  22.347  0.00  0.00    +0.000 C 
ENDBRANCH   5  12
ENDBRANCH   1   9
BRANCH   2  13
ATOM     13  C   UNL     1       2.866   4.087  20.414  0.00  0.00    +0.000 C 
BRANCH  13  14
ATOM     14  O   UNL     1       3.505   3.878  19.145  0.00  0.00    +0.000 OA
BRANCH  14  15
ATOM     15  C   UNL     1       4.811   3.530  19.228  0.00  0.00    +0.000 C 
ATOM     16  O   UNL     1       5.241   2.543  19.804  0.00  0.00    +0.000 OA
BRANCH  15  17
ATOM     17  C   UNL     1       5.677   4.526  18.548  0.00  0.00    +0.000 A 
ATOM     18  C   UNL     1       6.551   5.378  19.232  0.00  0.00    +0.000 A 
ATOM     19  C   UNL     1       7.363   6.257  18.520  0.00  0.00    +0.000 A 
ATOM     20  C   UNL     1       7.286   6.285  17.130  0.00  0.00    +0.000 A 
ATOM     21  N   UNL     1       6.413   5.460  16.440  0.00  0.00    +0.000 N 
ATOM     22  O   UNL     1       6.355   5.501  15.174  0.00  0.00    +0.000 OA
ATOM     23  C   UNL     1       5.617   4.587  17.155  0.00  0.00    +0.000 A 
ENDBRANCH  15  17
ENDBRANCH  14  15
ENDBRANCH  13  14
ENDBRANCH   2  13
TORSDOF 6
ENDMDL
MODEL 4
REMARK VINA RESULT:      -7.0      3.474      7.768
REMARK  Name = 
REMARK  6 active torsions:
REMARK  status: ('A' for Active; 'I' for Inactive)
REMARK    1  A    between atoms: C_2  and  C_3
REMARK    2  A    between atoms: C_7  and  N_8
REMARK    3  A    between atoms: C_9  and  C_11
REMARK    4  A    between atoms: C_11  and  O_12
REMARK    5  A    between atoms: O_12  and  C_13
REMARK    6  A    between atoms: C_13  and  C_15
REMARK                            x       y       z     vdW  Elec       q    Type
REMARK                         _______ _______ _______ _____ _____    ______ ____
ROOT
ATOM      1  N   UNL     1       2.859   5.761  20.104  0.00  0.00    +0.000 N 
ATOM      2  C   UNL     1       2.177   4.547  20.065  0.00  0.00    +0.000 C 
ATOM      3  O   UNL     1       0.995   4.395  19.759  0.00  0.00    +0.000 OA
ATOM      4  H   UNL     1       3.789   5.769  20.511  0.00  0.00    +0.000 HD
ENDROOT
BRANCH   1   9
ATOM      5  C   UNL     1       1.016   9.002  20.408  0.00  0.00    +0.000 A 
ATOM      6  C   UNL     1       1.170   9.525  19.114  0.00  0.00    +0.000 A 
ATOM      7  C   UNL     1       1.871   8.797  18.157  0.00  0.00    +0.000 A 
ATOM      8  C   UNL     1       2.414   7.554  18.484  0.00  0.00    +0.000 A 
ATOM      9  C   UNL     1       2.286   7.015  19.767  0.00  0.00    +0.000 A 
ATOM     10  C   UNL     1       1.586   7.759  20.732  0.00  0.00    +0.000 A 
BRANCH   5  12
ATOM     11  N   UNL     1      -0.338  10.323  22.179  0.00  0.00    +0.000 NA
ATOM     12  C   UNL     1       0.265   9.738  21.386  0.00  0.00    +0.000 C 
ENDBRANCH   5  12
ENDBRANCH   1   9
BRANCH   2  13
ATOM     13  C   UNL     1       2.971   3.326  20.528  0.00  0.00    +0.000 C 
BRANCH  13  14
ATOM     14  O   UNL     1       4.222   3.261  19.827  0.00  0.00    +0.000 OA
BRANCH  14  15
ATOM     15  C   UNL     1       4.107   2.998  18.504  0.00  0.00    +0.000 C 
ATOM     16  O   UNL     1       3.429   2.105  18.020  0.00  0.00    +0.000 OA
BRANCH  15  17
ATOM     17  C   UNL     1       4.939   3.925  17.696  0.00  0.00    +0.000 A 
ATOM     18  C   UNL     1       4.743   4.139  16.328  0.00  0.00    +0.000 A 
ATOM     19  C   UNL     1       5.539   5.057  15.647  0.00  0.00    +0.000 A 
ATOM     20  C   UNL     1       6.533   5.745  16.339  0.00  0.00    +0.000 A 
ATOM     21  N   UNL     1       6.751   5.531  17.690  0.00  0.00    +0.000 N 
ATOM     22  O   UNL     1       7.661   6.166  18.303  0.00  0.00    +0.000 OA
ATOM     23  C   UNL     1       5.952   4.624  18.357  0.00  0.00    +0.000 A 
ENDBRANCH  15  17
ENDBRANCH  14  15
ENDBRANCH  13  14
ENDBRANCH   2  13
TORSDOF 6
ENDMDL
MODEL 5
REMARK VINA RESULT:      -7.0      3.632      8.249
REMARK  Name = 
REMARK  6 active torsions:
REMARK  status: ('A' for Active; 'I' for Inactive)
REMARK    1  A    between atoms: C_2  and  C_3
REMARK    2  A    between atoms: C_7  and  N_8
REMARK    3  A    between atoms: C_9  and  C_11
REMARK    4  A    between atoms: C_11  and  O_12
REMARK    5  A    between atoms: O_12  and  C_13
REMARK    6  A    between atoms: C_13  and  C_15
REMARK                            x       y       z     vdW  Elec       q    Type
REMARK                         _______ _______ _______ _____ _____    ______ ____
ROOT
ATOM      1  N   UNL     1       2.577   6.148  19.631  0.00  0.00    +0.000 N 
ATOM      2  C   UNL     1       1.981   4.955  20.035  0.00  0.00    +0.000 C 
ATOM      3  O   UNL     1       0.885   4.848  20.583  0.00  0.00    +0.000 OA
ATOM      4  H   UNL     1       3.545   6.113  19.323  0.00  0.00    +0.000 HD
ENDROOT
BRANCH   1   9
ATOM      5  C   UNL     1       0.938   9.134  21.176  0.00  0.00    +0.000 A 
ATOM      6  C   UNL     1       0.835   9.990  20.070  0.00  0.00    +0.000 A 
ATOM      7  C   UNL     1       1.298   9.567  18.826  0.00  0.00    +0.000 A 
ATOM      8  C   UNL     1       1.859   8.299  18.685  0.00  0.00    +0.000 A 
ATOM      9  C   UNL     1       1.985   7.430  19.772  0.00  0.00    +0.000 A 
ATOM     10  C   UNL     1       1.525   7.865  21.026  0.00  0.00    +0.000 A 
BRANCH   5  12
ATOM     11  N   UNL     1       0.014   9.896  23.474  0.00  0.00    +0.000 NA
ATOM     12  C   UNL     1       0.431   9.556  22.451  0.00  0.00    +0.000 C 
ENDBRANCH   5  12
ENDBRANCH   1   9
BRANCH   2  13
ATOM     13  C   UNL     1       2.824   3.695  19.843  0.00  0.00    +0.000 C 
BRANCH  13  14
ATOM     14  O   UNL     1       3.481   3.735  18.566  0.00  0.00    +0.000 OA
BRANCH  14  15
ATOM     15  C   UNL     1       4.833   3.759  18.636  0.00  0.00    +0.000 C 
ATOM     16  O   UNL     1       5.493   3.458  19.618  0.00  0.00    +0.000 OA
BRANCH  15  17
ATOM     17  C   UNL     1       5.429   4.229  17.360  0.00  0.00    +0.000 A 
ATOM     18  C   UNL     1       5.091   3.695  16.112  0.00  0.00    +0.000 A 
ATOM     19  C   UNL     1       5.662   4.219  14.955  0.00  0.00    +0.000 A 
ATOM     20  C   UNL     1       6.577   5.264  15.057  0.00  0.00    +0.000 A 
ATOM     21  N   UNL     1       6.935   5.791  16.286  0.00  0.00    +0.000 N 
ATOM     22  O   UNL     1       7.770   6.742  16.360  0.00  0.00    +0.000 OA
ATOM     23  C   UNL     1       6.357   5.270  17.427  0.00  0.00    +0.000 A 
ENDBRANCH  15  17
ENDBRANCH  14  15
ENDBRANCH  13  14
ENDBRANCH   2  13
TORSDOF 6
ENDMDL
MODEL 6
REMARK VINA RESULT:      -7.0      1.456      1.599
REMARK  Name = 
REMARK  6 active torsions:
REMARK  status: ('A' for Active; 'I' for Inactive)
REMARK    1  A    between atoms: C_2  and  C_3
REMARK    2  A    between atoms: C_7  and  N_8
REMARK    3  A    between atoms: C_9  and  C_11
REMARK    4  A    between atoms: C_11  and  O_12
REMARK    5  A    between atoms: O_12  and  C_13
REMARK    6  A    between atoms: C_13  and  C_15
REMARK                            x       y       z     vdW  Elec       q    Type
REMARK                         _______ _______ _______ _____ _____    ______ ____
ROOT
ATOM      1  N   UNL     1       6.283   5.176  15.902  0.00  0.00    +0.000 N 
ATOM      2  C   UNL     1       7.022   4.824  17.029  0.00  0.00    +0.000 C 
ATOM      3  O   UNL     1       8.089   4.212  17.028  0.00  0.00    +0.000 OA
ATOM      4  H   UNL     1       5.349   5.550  16.046  0.00  0.00    +0.000 HD
ENDROOT
BRANCH   1   9
ATOM      5  C   UNL     1       6.426   3.585  12.520  0.00  0.00    +0.000 A 
ATOM      6  C   UNL     1       7.420   4.357  11.898  0.00  0.00    +0.000 A 
ATOM      7  C   UNL     1       8.036   5.385  12.607  0.00  0.00    +0.000 A 
ATOM      8  C   UNL     1       7.667   5.643  13.926  0.00  0.00    +0.000 A 
ATOM      9  C   UNL     1       6.673   4.898  14.566  0.00  0.00    +0.000 A 
ATOM     10  C   UNL     1       6.048   3.867  13.844  0.00  0.00    +0.000 A 
BRANCH   5  12
ATOM     11  N   UNL     1       5.324   1.627  11.229  0.00  0.00    +0.000 NA
ATOM     12  C   UNL     1       5.814   2.503  11.801  0.00  0.00    +0.000 C 
ENDBRANCH   5  12
ENDBRANCH   1   9
BRANCH   2  13
ATOM     13  C   UNL     1       6.384   5.168  18.374  0.00  0.00    +0.000 C 
BRANCH  13  14
ATOM     14  O   UNL     1       5.823   3.986  18.967  0.00  0.00    +0.000 OA
BRANCH  14  15
ATOM     15  C   UNL     1       4.668   3.571  18.397  0.00  0.00    +0.000 C 
ATOM     16  O   UNL     1       4.546   3.203  17.239  0.00  0.00    +0.000 OA
BRANCH  15  17
ATOM     17  C   UNL     1       3.537   3.644  19.357  0.00  0.00    +0.000 A 
ATOM     18  C   UNL     1       2.986   2.520  19.980  0.00  0.00    +0.000 A 
ATOM     19  C   UNL     1       1.953   2.674  20.902  0.00  0.00    +0.000 A 
ATOM     20  C   UNL     1       1.473   3.951  21.183  0.00  0.00    +0.000 A 
ATOM     21  N   UNL     1       1.997   5.072  20.561  0.00  0.00    +0.000 N 
ATOM     22  O   UNL     1       1.546   6.227  20.828  0.00  0.00    +0.000 OA
ATOM     23  C   UNL     1       3.025   4.909  19.654  0.00  0.00    +0.000 A 
ENDBRANCH  15  17
ENDBRANCH  14  15
ENDBRANCH  13  14
ENDBRANCH   2  13
TORSDOF 6
ENDMDL
MODEL 7
REMARK VINA RESULT:      -7.0      2.135      2.415
REMARK  Name = 
REMARK  6 active torsions:
REMARK  status: ('A' for Active; 'I' for Inactive)
REMARK    1  A    between atoms: C_2  and  C_3
REMARK    2  A    between atoms: C_7  and  N_8
REMARK    3  A    between atoms: C_9  and  C_11
REMARK    4  A    between atoms: C_11  and  O_12
REMARK    5  A    between atoms: O_12  and  C_13
REMARK    6  A    between atoms: C_13  and  C_15
REMARK                            x       y       z     vdW  Elec       q    Type
REMARK                         _______ _______ _______ _____ _____    ______ ____
ROOT
ATOM      1  N   UNL     1       6.032   5.092  15.850  0.00  0.00    +0.000 N 
ATOM      2  C   UNL     1       5.234   6.181  16.196  0.00  0.00    +0.000 C 
ATOM      3  O   UNL     1       4.840   7.057  15.428  0.00  0.00    +0.000 OA
ATOM      4  H   UNL     1       6.408   4.522  16.602  0.00  0.00    +0.000 HD
ENDROOT
BRANCH   1   9
ATOM      5  C   UNL     1       6.358   3.513  12.475  0.00  0.00    +0.000 A 
ATOM      6  C   UNL     1       7.381   4.289  11.909  0.00  0.00    +0.000 A 
ATOM      7  C   UNL     1       7.956   5.316  12.652  0.00  0.00    +0.000 A 
ATOM      8  C   UNL     1       7.518   5.569  13.951  0.00  0.00    +0.000 A 
ATOM      9  C   UNL     1       6.493   4.819  14.535  0.00  0.00    +0.000 A 
ATOM     10  C   UNL     1       5.909   3.790  13.778  0.00  0.00    +0.000 A 
BRANCH   5  12
ATOM     11  N   UNL     1       5.335   1.562  11.111  0.00  0.00    +0.000 NA
ATOM     12  C   UNL     1       5.787   2.432  11.722  0.00  0.00    +0.000 C 
ENDBRANCH   5  12
ENDBRANCH   1   9
BRANCH   2  13
ATOM     13  C   UNL     1       4.905   6.315  17.682  0.00  0.00    +0.000 C 
BRANCH  13  14
ATOM     14  O   UNL     1       3.497   6.540  17.854  0.00  0.00    +0.000 OA
BRANCH  14  15
ATOM     15  C   UNL     1       2.954   5.890  18.909  0.00  0.00    +0.000 C 
ATOM     16  O   UNL     1       2.431   6.426  19.873  0.00  0.00    +0.000 OA
BRANCH  15  17
ATOM     17  C   UNL     1       3.095   4.419  18.765  0.00  0.00    +0.000 A 
ATOM     18  C   UNL     1       2.392   3.669  17.816  0.00  0.00    +0.000 A 
ATOM     19  C   UNL     1       2.611   2.297  17.714  0.00  0.00    +0.000 A 
ATOM     20  C   UNL     1       3.521   1.685  18.573  0.00  0.00    +0.000 A 
ATOM     21  N   UNL     1       4.211   2.411  19.529  0.00  0.00    +0.000 N 
ATOM     22  O   UNL     1       5.036   1.836  20.302  0.00  0.00    +0.000 OA
ATOM     23  C   UNL     1       3.993   3.772  19.617  0.00  0.00    +0.000 A 
ENDBRANCH  15  17
ENDBRANCH  14  15
ENDBRANCH  13  14
ENDBRANCH   2  13
TORSDOF 6
ENDMDL
MODEL 8
REMARK VINA RESULT:      -7.0      5.771      7.873
REMARK  Name = 
REMARK  6 active torsions:
REMARK  status: ('A' for Active; 'I' for Inactive)
REMARK    1  A    between atoms: C_2  and  C_3
REMARK    2  A    between atoms: C_7  and  N_8
REMARK    3  A    between atoms: C_9  and  C_11
REMARK    4  A    between atoms: C_11  and  O_12
REMARK    5  A    between atoms: O_12  and  C_13
REMARK    6  A    between atoms: C_13  and  C_15
REMARK                            x       y       z     vdW  Elec       q    Type
REMARK                         _______ _______ _______ _____ _____    ______ ____
ROOT
ATOM      1  N   UNL     1       9.241   9.331  19.213  0.00  0.00    +0.000 N 
ATOM      2  C   UNL     1       8.291   9.053  18.233  0.00  0.00    +0.000 C 
ATOM      3  O   UNL     1       7.694   9.886  17.552  0.00  0.00    +0.000 OA
ATOM      4  H   UNL     1       9.552   8.564  19.803  0.00  0.00    +0.000 HD
ENDROOT
BRANCH   1   9
ATOM      5  C   UNL     1      10.749  12.743  18.925  0.00  0.00    +0.000 A 
ATOM      6  C   UNL     1      10.540  13.242  20.219  0.00  0.00    +0.000 A 
ATOM      7  C   UNL     1       9.914  12.444  21.173  0.00  0.00    +0.000 A 
ATOM      8  C   UNL     1       9.499  11.154  20.840  0.00  0.00    +0.000 A 
ATOM      9  C   UNL     1       9.684  10.635  19.556  0.00  0.00    +0.000 A 
ATOM     10  C   UNL     1      10.308  11.449  18.595  0.00  0.00    +0.000 A 
BRANCH   5  12
ATOM     11  N   UNL     1      11.960  14.208  17.164  0.00  0.00    +0.000 NA
ATOM     12  C   UNL     1      11.424  13.553  17.951  0.00  0.00    +0.000 C 
ENDBRANCH   5  12
ENDBRANCH   1   9
BRANCH   2  13
ATOM     13  C   UNL     1       7.918   7.580  18.071  0.00  0.00    +0.000 C 
BRANCH  13  14
ATOM     14  O   UNL     1       7.157   7.397  16.867  0.00  0.00    +0.000 OA
BRANCH  14  15
ATOM     15  C   UNL     1       6.877   6.106  16.575  0.00  0.00    +0.000 C 
ATOM     16  O   UNL     1       7.496   5.412  15.784  0.00  0.00    +0.000 OA
BRANCH  15  17
ATOM     17  C   UNL     1       5.687   5.631  17.326  0.00  0.00    +0.000 A 
ATOM     18  C   UNL     1       4.418   6.206  17.198  0.00  0.00    +0.000 A 
ATOM     19  C   UNL     1       3.341   5.677  17.905  0.00  0.00    +0.000 A 
ATOM     20  C   UNL     1       3.545   4.584  18.744  0.00  0.00    +0.000 A 
ATOM     21  N   UNL     1       4.798   4.014  18.894  0.00  0.00    +0.000 N 
ATOM     22  O   UNL     1       4.966   3.020  19.663  0.00  0.00    +0.000 OA
ATOM     23  C   UNL     1       5.859   4.542  18.183  0.00  0.00    +0.000 A 
ENDBRANCH  15  17
ENDBRANCH  14  15
ENDBRANCH  13  14
ENDBRANCH   2  13
TORSDOF 6
ENDMDL
MODEL 9
REMARK VINA RESULT:      -6.9      1.856      2.150
REMARK  Name = 
REMARK  6 active torsions:
REMARK  status: ('A' for Active; 'I' for Inactive)
REMARK    1  A    between atoms: C_2  and  C_3
REMARK    2  A    between atoms: C_7  and  N_8
REMARK    3  A    between atoms: C_9  and  C_11
REMARK    4  A    between atoms: C_11  and  O_12
REMARK    5  A    between atoms: O_12  and  C_13
REMARK    6  A    between atoms: C_13  and  C_15
REMARK                            x       y       z     vdW  Elec       q    Type
REMARK                         _______ _______ _______ _____ _____    ______ ____
ROOT
ATOM      1  N   UNL     1       5.717   4.974  15.893  0.00  0.00    +0.000 N 
ATOM      2  C   UNL     1       5.048   6.148  16.231  0.00  0.00    +0.000 C 
ATOM      3  O   UNL     1       4.876   7.117  15.494  0.00  0.00    +0.000 OA
ATOM      4  H   UNL     1       5.916   4.311  16.637  0.00  0.00    +0.000 HD
ENDROOT
BRANCH   1   9
ATOM      5  C   UNL     1       6.306   3.439  12.533  0.00  0.00    +0.000 A 
ATOM      6  C   UNL     1       7.389   4.203  12.071  0.00  0.00    +0.000 A 
ATOM      7  C   UNL     1       7.916   5.208  12.878  0.00  0.00    +0.000 A 
ATOM      8  C   UNL     1       7.371   5.450  14.139  0.00  0.00    +0.000 A 
ATOM      9  C   UNL     1       6.285   4.712  14.619  0.00  0.00    +0.000 A 
ATOM     10  C   UNL     1       5.751   3.706  13.797  0.00  0.00    +0.000 A 
BRANCH   5  12
ATOM     11  N   UNL     1       5.370   1.525  11.059  0.00  0.00    +0.000 NA
ATOM     12  C   UNL     1       5.784   2.381  11.715  0.00  0.00    +0.000 C 
ENDBRANCH   5  12
ENDBRANCH   1   9
BRANCH   2  13
ATOM     13  C   UNL     1       4.569   6.244  17.680  0.00  0.00    +0.000 C 
BRANCH  13  14
ATOM     14  O   UNL     1       3.157   6.504  17.712  0.00  0.00    +0.000 OA
BRANCH  14  15
ATOM     15  C   UNL     1       2.610   6.452  18.949  0.00  0.00    +0.000 C 
ATOM     16  O   UNL     1       2.507   7.399  19.714  0.00  0.00    +0.000 OA
BRANCH  15  17
ATOM     17  C   UNL     1       2.164   5.076  19.283  0.00  0.00    +0.000 A 
ATOM     18  C   UNL     1       1.627   4.193  18.340  0.00  0.00    +0.000 A 
ATOM     19  C   UNL     1       1.271   2.902  18.721  0.00  0.00    +0.000 A 
ATOM     20  C   UNL     1       1.443   2.509  20.047  0.00  0.00    +0.000 A 
ATOM     21  N   UNL     1       1.956   3.378  20.995  0.00  0.00    +0.000 N 
ATOM     22  O   UNL     1       2.104   3.003  22.198  0.00  0.00    +0.000 OA
ATOM     23  C   UNL     1       2.313   4.653  20.605  0.00  0.00    +0.000 A 
ENDBRANCH  15  17
ENDBRANCH  14  15
ENDBRANCH  13  14
ENDBRANCH   2  13
TORSDOF 6
ENDMDL
