MODEL 1
REMARK VINA RESULT:      -7.6      0.000      0.000
REMARK  Name = 
REMARK  11 active torsions:
REMARK  status: ('A' for Active; 'I' for Inactive)
REMARK    1  A    between atoms: C_1  and  O_2
REMARK    2  A    between atoms: O_2  and  C_3
REMARK    3  A    between atoms: C_6  and  C_7
REMARK    4  A    between atoms: C_8  and  C_9
REMARK    5  A    between atoms: C_12  and  N_13
REMARK    6  A    between atoms: C_16  and  N_17
REMARK    7  A    between atoms: C_18  and  C_20
REMARK    8  A    between atoms: C_20  and  C_21
REMARK    9  A    between atoms: C_29  and  C_30
REMARK   10  A    between atoms: C_34  and  O_35
REMARK   11  A    between atoms: O_35  and  C_36
REMARK                            x       y       z     vdW  Elec       q    Type
REMARK                         _______ _______ _______ _____ _____    ______ ____
ROOT
ATOM      1  C   UNL     1      -2.821  12.700  20.913  0.00  0.00    +0.000 A 
ATOM      2  C   UNL     1      -1.707  12.442  21.705  0.00  0.00    +0.000 A 
ATOM      3  C   UNL     1      -1.313  12.964  23.036  0.00  0.00    +0.000 C 
ATOM      4  N   UNL     1      -0.867  11.548  21.094  0.00  0.00    +0.000 NA
ATOM      5  C   UNL     1      -1.402  11.279  19.915  0.00  0.00    +0.000 A 
ATOM      6  C   UNL     1      -0.941  10.444  18.841  0.00  0.00    +0.000 A 
ATOM      7  C   UNL     1      -1.703  10.429  17.734  0.00  0.00    +0.000 A 
ATOM      8  C   UNL     1      -2.985  11.168  17.708  0.00  0.00    +0.000 A 
ATOM      9  C   UNL     1      -3.833  11.025  16.468  0.00  0.00    +0.000 C 
ATOM     10  N   UNL     1      -3.435  11.908  18.670  0.00  0.00    +0.000 NA
ATOM     11  N   UNL     1      -2.598  11.959  19.755  0.00  0.00    +0.000 N 
ENDROOT
BRANCH   1  15
ATOM     12  C   UNL     1      -6.421  14.976  21.431  0.00  0.00    +0.000 A 
ATOM     13  C   UNL     1      -5.247  15.595  20.982  0.00  0.00    +0.000 A 
ATOM     14  C   UNL     1      -4.064  14.869  20.841  0.00  0.00    +0.000 A 
ATOM     15  C   UNL     1      -4.019  13.511  21.160  0.00  0.00    +0.000 A 
ATOM     16  C   UNL     1      -5.173  12.927  21.695  0.00  0.00    +0.000 A 
ATOM     17  C   UNL     1      -6.369  13.645  21.858  0.00  0.00    +0.000 A 
BRANCH  12  19
ATOM     18  C   UNL     1      -7.640  16.833  20.642  0.00  0.00    +0.000 C 
ATOM     19  O   UNL     1      -7.599  15.672  21.475  0.00  0.00    +0.000 OA
ENDBRANCH  12  19
BRANCH  17  20
ATOM     20  O   UNL     1      -7.349  12.871  22.416  0.00  0.00    +0.000 OA
ATOM     21  C   UNL     1      -7.653  13.027  23.791  0.00  0.00    +0.000 C 
ENDBRANCH  17  20
ENDBRANCH   1  15
BRANCH   6  22
ATOM     22  N   UNL     1       0.224   9.678  18.949  0.00  0.00    +0.000 N 
ATOM     23  C   UNL     1       0.706   8.987  20.140  0.00  0.00    +0.000 C 
ATOM     24  C   UNL     1       2.196   8.852  19.889  0.00  0.00    +0.000 C 
ATOM     25  C   UNL     1       2.279   8.554  18.396  0.00  0.00    +0.000 C 
ATOM     26  C   UNL     1       1.110   9.373  17.805  0.00  0.00    +0.000 C 
BRANCH  25  27
ATOM     27  N   UNL     1       2.289   7.115  18.118  0.00  0.00    +0.000 N 
ATOM     28  C   UNL     1       3.406   6.354  17.835  0.00  0.00    +0.000 C 
ATOM     29  O   UNL     1       4.553   6.784  17.782  0.00  0.00    +0.000 OA
ATOM     30  H   UNL     1       1.391   6.653  18.099  0.00  0.00    +0.000 HD
BRANCH  28  31
ATOM     31  C   UNL     1       3.112   4.888  17.601  0.00  0.00    +0.000 C 
BRANCH  31  32
ATOM     32  C   UNL     1       2.448   4.234  18.784  0.00  0.00    +0.000 A 
ATOM     33  C   UNL     1       2.899   4.489  20.081  0.00  0.00    +0.000 A 
ATOM     34  C   UNL     1       2.284   3.885  21.178  0.00  0.00    +0.000 A 
ATOM     35  C   UNL     1       1.202   3.027  20.981  0.00  0.00    +0.000 A 
ATOM     36  C   UNL     1       0.729   2.778  19.700  0.00  0.00    +0.000 A 
ATOM     37  C   UNL     1       1.347   3.381  18.604  0.00  0.00    +0.000 A 
ENDBRANCH  31  32
ENDBRANCH  28  31
ENDBRANCH  25  27
ENDBRANCH   6  22
TORSDOF 7
ENDMDL
MODEL 2
REMARK VINA RESULT:      -7.5      5.782      7.456
REMARK  Name = 
REMARK  11 active torsions:
REMARK  status: ('A' for Active; 'I' for Inactive)
REMARK    1  A    between atoms: C_1  and  O_2
REMARK    2  A    between atoms: O_2  and  C_3
REMARK    3  A    between atoms: C_6  and  C_7
REMARK    4  A    between atoms: C_8  and  C_9
REMARK    5  A    between atoms: C_12  and  N_13
REMARK    6  A    between atoms: C_16  and  N_17
REMARK    7  A    between atoms: C_18  and  C_20
REMARK    8  A    between atoms: C_20  and  C_21
REMARK    9  A    between atoms: C_29  and  C_30
REMARK   10  A    between atoms: C_34  and  O_35
REMARK   11  A    between atoms: O_35  and  C_36
REMARK                            x       y       z     vdW  Elec       q    Type
REMARK                         _______ _______ _______ _____ _____    ______ ____
ROOT
ATOM      1  C   UNL     1      -0.272  12.682  19.183  0.00  0.00    +0.000 A 
ATOM      2  C   UNL     1       0.878  11.960  19.485  0.00  0.00    +0.000 A 
ATOM      3  C   UNL     1       1.073  10.528  19.815  0.00  0.00    +0.000 C 
ATOM      4  N   UNL     1       1.986  12.768  19.459  0.00  0.00    +0.000 NA
ATOM      5  C   UNL     1       1.550  13.989  19.199  0.00  0.00    +0.000 A 
ATOM      6  C   UNL     1       2.255  15.236  19.095  0.00  0.00    +0.000 A 
ATOM      7  C   UNL     1       1.500  16.326  18.873  0.00  0.00    +0.000 A 
ATOM      8  C   UNL     1       0.042  16.185  18.658  0.00  0.00    +0.000 A 
ATOM      9  C   UNL     1      -0.724  17.440  18.318  0.00  0.00    +0.000 C 
ATOM     10  N   UNL     1      -0.613  15.071  18.724  0.00  0.00    +0.000 NA
ATOM     11  N   UNL     1       0.176  13.990  19.023  0.00  0.00    +0.000 N 
ENDROOT
BRANCH   1  15
ATOM     12  C   UNL     1      -4.373  11.614  18.511  0.00  0.00    +0.000 A 
ATOM     13  C   UNL     1      -4.002  12.326  19.659  0.00  0.00    +0.000 A 
ATOM     14  C   UNL     1      -2.667  12.649  19.902  0.00  0.00    +0.000 A 
ATOM     15  C   UNL     1      -1.666  12.257  19.012  0.00  0.00    +0.000 A 
ATOM     16  C   UNL     1      -2.038  11.468  17.918  0.00  0.00    +0.000 A 
ATOM     17  C   UNL     1      -3.374  11.119  17.665  0.00  0.00    +0.000 A 
BRANCH  12  19
ATOM     18  C   UNL     1      -6.298  12.343  17.363  0.00  0.00    +0.000 C 
ATOM     19  O   UNL     1      -5.693  11.384  18.233  0.00  0.00    +0.000 OA
ENDBRANCH  12  19
BRANCH  17  20
ATOM     20  O   UNL     1      -3.488  10.329  16.554  0.00  0.00    +0.000 OA
ATOM     21  C   UNL     1      -3.121  10.858  15.292  0.00  0.00    +0.000 C 
ENDBRANCH  17  20
ENDBRANCH   1  15
BRANCH   6  22
ATOM     22  N   UNL     1       3.648  15.308  19.199  0.00  0.00    +0.000 N 
ATOM     23  C   UNL     1       4.465  14.830  20.309  0.00  0.00    +0.000 C 
ATOM     24  C   UNL     1       5.732  15.656  20.194  0.00  0.00    +0.000 C 
ATOM     25  C   UNL     1       5.957  15.753  18.689  0.00  0.00    +0.000 C 
ATOM     26  C   UNL     1       4.523  15.810  18.118  0.00  0.00    +0.000 C 
BRANCH  25  27
ATOM     27  N   UNL     1       6.829  14.685  18.190  0.00  0.00    +0.000 N 
ATOM     28  C   UNL     1       8.182  14.798  17.936  0.00  0.00    +0.000 C 
ATOM     29  O   UNL     1       8.844  15.816  18.099  0.00  0.00    +0.000 OA
ATOM     30  H   UNL     1       6.386  13.801  17.983  0.00  0.00    +0.000 HD
BRANCH  28  31
ATOM     31  C   UNL     1       8.825  13.522  17.437  0.00  0.00    +0.000 C 
BRANCH  31  32
ATOM     32  C   UNL     1       9.085  12.533  18.542  0.00  0.00    +0.000 A 
ATOM     33  C   UNL     1       9.010  11.160  18.298  0.00  0.00    +0.000 A 
ATOM     34  C   UNL     1       9.251  10.242  19.321  0.00  0.00    +0.000 A 
ATOM     35  C   UNL     1       9.584  10.698  20.597  0.00  0.00    +0.000 A 
ATOM     36  C   UNL     1       9.682  12.058  20.852  0.00  0.00    +0.000 A 
ATOM     37  C   UNL     1       9.437  12.975  19.828  0.00  0.00    +0.000 A 
ENDBRANCH  31  32
ENDBRANCH  28  31
ENDBRANCH  25  27
ENDBRANCH   6  22
TORSDOF 7
ENDMDL
MODEL 3
REMARK VINA RESULT:      -7.5      5.846      7.307
REMARK  Name = 
REMARK  11 active torsions:
REMARK  status: ('A' for Active; 'I' for Inactive)
REMARK    1  A    between atoms: C_1  and  O_2
REMARK    2  A    between atoms: O_2  and  C_3
REMARK    3  A    between atoms: C_6  and  C_7
REMARK    4  A    between atoms: C_8  and  C_9
REMARK    5  A    between atoms: C_12  and  N_13
REMARK    6  A    between atoms: C_16  and  N_17
REMARK    7  A    between atoms: C_18  and  C_20
REMARK    8  A    between atoms: C_20  and  C_21
REMARK    9  A    between atoms: C_29  and  C_30
REMARK   10  A    between atoms: C_34  and  O_35
REMARK   11  A    between atoms: O_35  and  C_36
REMARK                            x       y       z     vdW  Elec       q    Type
REMARK                         _______ _______ _______ _____ _____    ______ ____
ROOT
ATOM      1  C   UNL     1      -0.622  13.030  19.434  0.00  0.00    +0.000 A 
ATOM      2  C   UNL     1       0.490  12.238  19.697  0.00  0.00    +0.000 A 
ATOM      3  C   UNL     1       0.603  10.822  20.124  0.00  0.00    +0.000 C 
ATOM      4  N   UNL     1       1.651  12.946  19.516  0.00  0.00    +0.000 NA
ATOM      5  C   UNL     1       1.290  14.177  19.196  0.00  0.00    +0.000 A 
ATOM      6  C   UNL     1       2.077  15.349  18.934  0.00  0.00    +0.000 A 
ATOM      7  C   UNL     1       1.392  16.480  18.688  0.00  0.00    +0.000 A 
ATOM      8  C   UNL     1      -0.086  16.446  18.606  0.00  0.00    +0.000 A 
ATOM      9  C   UNL     1      -0.779  17.732  18.230  0.00  0.00    +0.000 C 
ATOM     10  N   UNL     1      -0.817  15.399  18.814  0.00  0.00    +0.000 NA
ATOM     11  N   UNL     1      -0.090  14.281  19.133  0.00  0.00    +0.000 N 
ENDROOT
BRANCH   1  15
ATOM     12  C   UNL     1      -4.766  11.919  19.525  0.00  0.00    +0.000 A 
ATOM     13  C   UNL     1      -3.970  11.609  18.414  0.00  0.00    +0.000 A 
ATOM     14  C   UNL     1      -2.630  11.994  18.363  0.00  0.00    +0.000 A 
ATOM     15  C   UNL     1      -2.055  12.712  19.412  0.00  0.00    +0.000 A 
ATOM     16  C   UNL     1      -2.883  13.096  20.472  0.00  0.00    +0.000 A 
ATOM     17  C   UNL     1      -4.238  12.731  20.535  0.00  0.00    +0.000 A 
BRANCH  12  19
ATOM     18  C   UNL     1      -6.333  10.320  18.789  0.00  0.00    +0.000 C 
ATOM     19  O   UNL     1      -6.051  11.456  19.609  0.00  0.00    +0.000 OA
ENDBRANCH  12  19
BRANCH  17  20
ATOM     20  O   UNL     1      -4.845  13.237  21.652  0.00  0.00    +0.000 OA
ATOM     21  C   UNL     1      -5.380  14.547  21.612  0.00  0.00    +0.000 C 
ENDBRANCH  17  20
ENDBRANCH   1  15
BRANCH   6  22
ATOM     22  N   UNL     1       3.475  15.312  18.918  0.00  0.00    +0.000 N 
ATOM     23  C   UNL     1       4.354  15.088  20.060  0.00  0.00    +0.000 C 
ATOM     24  C   UNL     1       5.663  15.721  19.626  0.00  0.00    +0.000 C 
ATOM     25  C   UNL     1       5.753  15.369  18.146  0.00  0.00    +0.000 C 
ATOM     26  C   UNL     1       4.280  15.403  17.681  0.00  0.00    +0.000 C 
BRANCH  25  27
ATOM     27  N   UNL     1       6.493  14.125  17.916  0.00  0.00    +0.000 N 
ATOM     28  C   UNL     1       7.863  14.011  17.782  0.00  0.00    +0.000 C 
ATOM     29  O   UNL     1       8.654  14.946  17.840  0.00  0.00    +0.000 OA
ATOM     30  H   UNL     1       5.942  13.284  17.815  0.00  0.00    +0.000 HD
BRANCH  28  31
ATOM     31  C   UNL     1       8.348  12.594  17.565  0.00  0.00    +0.000 C 
BRANCH  31  32
ATOM     32  C   UNL     1       9.579  12.272  18.369  0.00  0.00    +0.000 A 
ATOM     33  C   UNL     1       9.508  12.157  19.759  0.00  0.00    +0.000 A 
ATOM     34  C   UNL     1      10.648  11.858  20.506  0.00  0.00    +0.000 A 
ATOM     35  C   UNL     1      11.869  11.661  19.860  0.00  0.00    +0.000 A 
ATOM     36  C   UNL     1      11.953  11.753  18.477  0.00  0.00    +0.000 A 
ATOM     37  C   UNL     1      10.812  12.054  17.732  0.00  0.00    +0.000 A 
ENDBRANCH  31  32
ENDBRANCH  28  31
ENDBRANCH  25  27
ENDBRANCH   6  22
TORSDOF 7
ENDMDL
MODEL 4
REMARK VINA RESULT:      -7.4      6.251      8.005
REMARK  Name = 
REMARK  11 active torsions:
REMARK  status: ('A' for Active; 'I' for Inactive)
REMARK    1  A    between atoms: C_1  and  O_2
REMARK    2  A    between atoms: O_2  and  C_3
REMARK    3  A    between atoms: C_6  and  C_7
REMARK    4  A    between atoms: C_8  and  C_9
REMARK    5  A    between atoms: C_12  and  N_13
REMARK    6  A    between atoms: C_16  and  N_17
REMARK    7  A    between atoms: C_18  and  C_20
REMARK    8  A    between atoms: C_20  and  C_21
REMARK    9  A    between atoms: C_29  and  C_30
REMARK   10  A    between atoms: C_34  and  O_35
REMARK   11  A    between atoms: O_35  and  C_36
REMARK                            x       y       z     vdW  Elec       q    Type
REMARK                         _______ _______ _______ _____ _____    ______ ____
ROOT
ATOM      1  C   UNL     1      -0.104  12.727  18.826  0.00  0.00    +0.000 A 
ATOM      2  C   UNL     1       1.113  12.082  19.015  0.00  0.00    +0.000 A 
ATOM      3  C   UNL     1       1.438  10.651  19.227  0.00  0.00    +0.000 C 
ATOM      4  N   UNL     1       2.151  12.978  18.996  0.00  0.00    +0.000 NA
ATOM      5  C   UNL     1       1.607  14.175  18.850  0.00  0.00    +0.000 A 
ATOM      6  C   UNL     1       2.206  15.480  18.805  0.00  0.00    +0.000 A 
ATOM      7  C   UNL     1       1.356  16.517  18.704  0.00  0.00    +0.000 A 
ATOM      8  C   UNL     1      -0.095  16.273  18.551  0.00  0.00    +0.000 A 
ATOM      9  C   UNL     1      -0.974  17.481  18.344  0.00  0.00    +0.000 C 
ATOM     10  N   UNL     1      -0.657  15.107  18.565  0.00  0.00    +0.000 NA
ATOM     11  N   UNL     1       0.230  14.076  18.743  0.00  0.00    +0.000 N 
ENDROOT
BRANCH   1  15
ATOM     12  C   UNL     1      -4.133  11.361  18.260  0.00  0.00    +0.000 A 
ATOM     13  C   UNL     1      -3.790  12.118  19.388  0.00  0.00    +0.000 A 
ATOM     14  C   UNL     1      -2.476  12.539  19.596  0.00  0.00    +0.000 A 
ATOM     15  C   UNL     1      -1.469  12.203  18.691  0.00  0.00    +0.000 A 
ATOM     16  C   UNL     1      -1.806  11.370  17.619  0.00  0.00    +0.000 A 
ATOM     17  C   UNL     1      -3.119  10.923  17.401  0.00  0.00    +0.000 A 
BRANCH  12  19
ATOM     18  C   UNL     1      -6.393  11.737  18.814  0.00  0.00    +0.000 C 
ATOM     19  O   UNL     1      -5.439  11.034  18.015  0.00  0.00    +0.000 OA
ENDBRANCH  12  19
BRANCH  17  20
ATOM     20  O   UNL     1      -3.200  10.108  16.305  0.00  0.00    +0.000 OA
ATOM     21  C   UNL     1      -3.246  10.689  15.015  0.00  0.00    +0.000 C 
ENDBRANCH  17  20
ENDBRANCH   1  15
BRANCH   6  22
ATOM     22  N   UNL     1       3.592  15.659  18.846  0.00  0.00    +0.000 N 
ATOM     23  C   UNL     1       4.331  16.539  19.745  0.00  0.00    +0.000 C 
ATOM     24  C   UNL     1       5.628  16.793  18.999  0.00  0.00    +0.000 C 
ATOM     25  C   UNL     1       5.939  15.446  18.358  0.00  0.00    +0.000 C 
ATOM     26  C   UNL     1       4.541  14.882  18.020  0.00  0.00    +0.000 C 
BRANCH  25  27
ATOM     27  N   UNL     1       6.803  14.617  19.202  0.00  0.00    +0.000 N 
ATOM     28  C   UNL     1       8.124  14.876  19.510  0.00  0.00    +0.000 C 
ATOM     29  O   UNL     1       8.758  15.849  19.116  0.00  0.00    +0.000 OA
ATOM     30  H   UNL     1       6.399  13.762  19.560  0.00  0.00    +0.000 HD
BRANCH  28  31
ATOM     31  C   UNL     1       8.762  13.847  20.418  0.00  0.00    +0.000 C 
BRANCH  31  32
ATOM     32  C   UNL     1       9.817  13.031  19.718  0.00  0.00    +0.000 A 
ATOM     33  C   UNL     1      11.006  12.699  20.371  0.00  0.00    +0.000 A 
ATOM     34  C   UNL     1      11.983  11.942  19.725  0.00  0.00    +0.000 A 
ATOM     35  C   UNL     1      11.769  11.502  18.419  0.00  0.00    +0.000 A 
ATOM     36  C   UNL     1      10.584  11.806  17.762  0.00  0.00    +0.000 A 
ATOM     37  C   UNL     1       9.608  12.565  18.409  0.00  0.00    +0.000 A 
ENDBRANCH  31  32
ENDBRANCH  28  31
ENDBRANCH  25  27
ENDBRANCH   6  22
TORSDOF 7
ENDMDL
MODEL 5
REMARK VINA RESULT:      -7.4      5.890      7.706
REMARK  Name = 
REMARK  11 active torsions:
REMARK  status: ('A' for Active; 'I' for Inactive)
REMARK    1  A    between atoms: C_1  and  O_2
REMARK    2  A    between atoms: O_2  and  C_3
REMARK    3  A    between atoms: C_6  and  C_7
REMARK    4  A    between atoms: C_8  and  C_9
REMARK    5  A    between atoms: C_12  and  N_13
REMARK    6  A    between atoms: C_16  and  N_17
REMARK    7  A    between atoms: C_18  and  C_20
REMARK    8  A    between atoms: C_20  and  C_21
REMARK    9  A    between atoms: C_29  and  C_30
REMARK   10  A    between atoms: C_34  and  O_35
REMARK   11  A    between atoms: O_35  and  C_36
REMARK                            x       y       z     vdW  Elec       q    Type
REMARK                         _______ _______ _______ _____ _____    ______ ____
ROOT
ATOM      1  C   UNL     1      -0.286  12.357  18.793  0.00  0.00    +0.000 A 
ATOM      2  C   UNL     1       0.916  11.666  18.896  0.00  0.00    +0.000 A 
ATOM      3  C   UNL     1       1.210  10.212  18.886  0.00  0.00    +0.000 C 
ATOM      4  N   UNL     1       1.970  12.531  19.031  0.00  0.00    +0.000 NA
ATOM      5  C   UNL     1       1.452  13.747  19.068  0.00  0.00    +0.000 A 
ATOM      6  C   UNL     1       2.075  15.030  19.235  0.00  0.00    +0.000 A 
ATOM      7  C   UNL     1       1.247  16.089  19.286  0.00  0.00    +0.000 A 
ATOM      8  C   UNL     1      -0.206  15.902  19.076  0.00  0.00    +0.000 A 
ATOM      9  C   UNL     1      -1.059  17.146  19.049  0.00  0.00    +0.000 C 
ATOM     10  N   UNL     1      -0.790  14.760  18.901  0.00  0.00    +0.000 NA
ATOM     11  N   UNL     1       0.074  13.696  18.927  0.00  0.00    +0.000 N 
ENDROOT
BRANCH   1  15
ATOM     12  C   UNL     1      -4.313  11.152  17.931  0.00  0.00    +0.000 A 
ATOM     13  C   UNL     1      -4.030  11.929  19.062  0.00  0.00    +0.000 A 
ATOM     14  C   UNL     1      -2.720  12.299  19.367  0.00  0.00    +0.000 A 
ATOM     15  C   UNL     1      -1.658  11.889  18.560  0.00  0.00    +0.000 A 
ATOM     16  C   UNL     1      -1.944  11.038  17.487  0.00  0.00    +0.000 A 
ATOM     17  C   UNL     1      -3.254  10.642  17.173  0.00  0.00    +0.000 A 
BRANCH  12  19
ATOM     18  C   UNL     1      -6.591  11.387  18.490  0.00  0.00    +0.000 C 
ATOM     19  O   UNL     1      -5.609  10.875  17.586  0.00  0.00    +0.000 OA
ENDBRANCH  12  19
BRANCH  17  20
ATOM     20  O   UNL     1      -3.281   9.796  16.098  0.00  0.00    +0.000 OA
ATOM     21  C   UNL     1      -2.985  10.306  14.811  0.00  0.00    +0.000 C 
ENDBRANCH  17  20
ENDBRANCH   1  15
BRANCH   6  22
ATOM     22  N   UNL     1       3.463  15.172  19.322  0.00  0.00    +0.000 N 
ATOM     23  C   UNL     1       4.310  14.785  20.446  0.00  0.00    +0.000 C 
ATOM     24  C   UNL     1       5.537  15.662  20.280  0.00  0.00    +0.000 C 
ATOM     25  C   UNL     1       5.746  15.697  18.770  0.00  0.00    +0.000 C 
ATOM     26  C   UNL     1       4.306  15.661  18.211  0.00  0.00    +0.000 C 
BRANCH  25  27
ATOM     27  N   UNL     1       6.662  14.649  18.313  0.00  0.00    +0.000 N 
ATOM     28  C   UNL     1       7.915  14.850  17.768  0.00  0.00    +0.000 C 
ATOM     29  O   UNL     1       8.436  15.946  17.593  0.00  0.00    +0.000 OA
ATOM     30  H   UNL     1       6.326  13.697  18.375  0.00  0.00    +0.000 HD
BRANCH  28  31
ATOM     31  C   UNL     1       8.641  13.574  17.398  0.00  0.00    +0.000 C 
BRANCH  31  32
ATOM     32  C   UNL     1       9.254  12.890  18.591  0.00  0.00    +0.000 A 
ATOM     33  C   UNL     1       9.873  13.636  19.596  0.00  0.00    +0.000 A 
ATOM     34  C   UNL     1      10.441  13.004  20.703  0.00  0.00    +0.000 A 
ATOM     35  C   UNL     1      10.381  11.615  20.814  0.00  0.00    +0.000 A 
ATOM     36  C   UNL     1       9.752  10.860  19.834  0.00  0.00    +0.000 A 
ATOM     37  C   UNL     1       9.187  11.494  18.726  0.00  0.00    +0.000 A 
ENDBRANCH  31  32
ENDBRANCH  28  31
ENDBRANCH  25  27
ENDBRANCH   6  22
TORSDOF 7
ENDMDL
MODEL 6
REMARK VINA RESULT:      -7.4      5.931      7.795
REMARK  Name = 
REMARK  11 active torsions:
REMARK  status: ('A' for Active; 'I' for Inactive)
REMARK    1  A    between atoms: C_1  and  O_2
REMARK    2  A    between atoms: O_2  and  C_3
REMARK    3  A    between atoms: C_6  and  C_7
REMARK    4  A    between atoms: C_8  and  C_9
REMARK    5  A    between atoms: C_12  and  N_13
REMARK    6  A    between atoms: C_16  and  N_17
REMARK    7  A    between atoms: C_18  and  C_20
REMARK    8  A    between atoms: C_20  and  C_21
REMARK    9  A    between atoms: C_29  and  C_30
REMARK   10  A    between atoms: C_34  and  O_35
REMARK   11  A    between atoms: O_35  and  C_36
REMARK                            x       y       z     vdW  Elec       q    Type
REMARK                         _______ _______ _______ _____ _____    ______ ____
ROOT
ATOM      1  C   UNL     1      -0.244  12.584  19.985  0.00  0.00    +0.000 A 
ATOM      2  C   UNL     1       0.684  11.942  20.797  0.00  0.00    +0.000 A 
ATOM      3  C   UNL     1       0.662  10.604  21.437  0.00  0.00    +0.000 C 
ATOM      4  N   UNL     1       1.783  12.734  21.009  0.00  0.00    +0.000 NA
ATOM      5  C   UNL     1       1.542  13.878  20.390  0.00  0.00    +0.000 A 
ATOM      6  C   UNL     1       2.318  15.083  20.306  0.00  0.00    +0.000 A 
ATOM      7  C   UNL     1       1.756  16.104  19.635  0.00  0.00    +0.000 A 
ATOM      8  C   UNL     1       0.454  15.916  18.956  0.00  0.00    +0.000 A 
ATOM      9  C   UNL     1      -0.067  17.074  18.142  0.00  0.00    +0.000 C 
ATOM     10  N   UNL     1      -0.254  14.833  18.997  0.00  0.00    +0.000 NA
ATOM     11  N   UNL     1       0.314  13.837  19.749  0.00  0.00    +0.000 N 
ENDROOT
BRANCH   1  15
ATOM     12  C   UNL     1      -3.950  11.417  18.164  0.00  0.00    +0.000 A 
ATOM     13  C   UNL     1      -3.944  12.139  19.365  0.00  0.00    +0.000 A 
ATOM     14  C   UNL     1      -2.743  12.494  19.980  0.00  0.00    +0.000 A 
ATOM     15  C   UNL     1      -1.519  12.126  19.421  0.00  0.00    +0.000 A 
ATOM     16  C   UNL     1      -1.541  11.327  18.272  0.00  0.00    +0.000 A 
ATOM     17  C   UNL     1      -2.739  10.946  17.646  0.00  0.00    +0.000 A 
BRANCH  12  19
ATOM     18  C   UNL     1      -6.250  10.947  18.379  0.00  0.00    +0.000 C 
ATOM     19  O   UNL     1      -5.128  11.156  17.518  0.00  0.00    +0.000 OA
ENDBRANCH  12  19
BRANCH  17  20
ATOM     20  O   UNL     1      -2.508  10.153  16.556  0.00  0.00    +0.000 OA
ATOM     21  C   UNL     1      -2.860  10.630  15.269  0.00  0.00    +0.000 C 
ENDBRANCH  17  20
ENDBRANCH   1  15
BRANCH   6  22
ATOM     22  N   UNL     1       3.592  15.182  20.873  0.00  0.00    +0.000 N 
ATOM     23  C   UNL     1       3.911  15.228  22.296  0.00  0.00    +0.000 C 
ATOM     24  C   UNL     1       5.266  15.912  22.330  0.00  0.00    +0.000 C 
ATOM     25  C   UNL     1       5.982  15.342  21.111  0.00  0.00    +0.000 C 
ATOM     26  C   UNL     1       4.842  15.157  20.084  0.00  0.00    +0.000 C 
BRANCH  25  27
ATOM     27  N   UNL     1       6.778  14.157  21.440  0.00  0.00    +0.000 N 
ATOM     28  C   UNL     1       7.957  14.148  22.161  0.00  0.00    +0.000 C 
ATOM     29  O   UNL     1       8.499  15.142  22.630  0.00  0.00    +0.000 OA
ATOM     30  H   UNL     1       6.447  13.275  21.074  0.00  0.00    +0.000 HD
BRANCH  28  31
ATOM     31  C   UNL     1       8.552  12.771  22.356  0.00  0.00    +0.000 C 
BRANCH  31  32
ATOM     32  C   UNL     1       9.432  12.352  21.208  0.00  0.00    +0.000 A 
ATOM     33  C   UNL     1      10.572  13.091  20.882  0.00  0.00    +0.000 A 
ATOM     34  C   UNL     1      11.389  12.704  19.820  0.00  0.00    +0.000 A 
ATOM     35  C   UNL     1      11.074  11.562  19.083  0.00  0.00    +0.000 A 
ATOM     36  C   UNL     1       9.956  10.806  19.405  0.00  0.00    +0.000 A 
ATOM     37  C   UNL     1       9.138  11.196  20.467  0.00  0.00    +0.000 A 
ENDBRANCH  31  32
ENDBRANCH  28  31
ENDBRANCH  25  27
ENDBRANCH   6  22
TORSDOF 7
ENDMDL
MODEL 7
REMARK VINA RESULT:      -7.4      5.858      7.390
REMARK  Name = 
REMARK  11 active torsions:
REMARK  status: ('A' for Active; 'I' for Inactive)
REMARK    1  A    between atoms: C_1  and  O_2
REMARK    2  A    between atoms: O_2  and  C_3
REMARK    3  A    between atoms: C_6  and  C_7
REMARK    4  A    between atoms: C_8  and  C_9
REMARK    5  A    between atoms: C_12  and  N_13
REMARK    6  A    between atoms: C_16  and  N_17
REMARK    7  A    between atoms: C_18  and  C_20
REMARK    8  A    between atoms: C_20  and  C_21
REMARK    9  A    between atoms: C_29  and  C_30
REMARK   10  A    between atoms: C_34  and  O_35
REMARK   11  A    between atoms: O_35  and  C_36
REMARK                            x       y       z     vdW  Elec       q    Type
REMARK                         _______ _______ _______ _____ _____    ______ ____
ROOT
ATOM      1  C   UNL     1      -0.702  13.122  19.783  0.00  0.00    +0.000 A 
ATOM      2  C   UNL     1       0.427  12.353  20.040  0.00  0.00    +0.000 A 
ATOM      3  C   UNL     1       0.570  10.964  20.539  0.00  0.00    +0.000 C 
ATOM      4  N   UNL     1       1.572  13.058  19.770  0.00  0.00    +0.000 NA
ATOM      5  C   UNL     1       1.187  14.267  19.399  0.00  0.00    +0.000 A 
ATOM      6  C   UNL     1       1.952  15.428  19.039  0.00  0.00    +0.000 A 
ATOM      7  C   UNL     1       1.246  16.539  18.763  0.00  0.00    +0.000 A 
ATOM      8  C   UNL     1      -0.233  16.492  18.747  0.00  0.00    +0.000 A 
ATOM      9  C   UNL     1      -0.953  17.751  18.332  0.00  0.00    +0.000 C 
ATOM     10  N   UNL     1      -0.945  15.453  19.044  0.00  0.00    +0.000 NA
ATOM     11  N   UNL     1      -0.195  14.359  19.392  0.00  0.00    +0.000 N 
ENDROOT
BRANCH   1  15
ATOM     12  C   UNL     1      -4.921  12.337  19.784  0.00  0.00    +0.000 A 
ATOM     13  C   UNL     1      -4.327  13.036  20.843  0.00  0.00    +0.000 A 
ATOM     14  C   UNL     1      -2.952  13.268  20.867  0.00  0.00    +0.000 A 
ATOM     15  C   UNL     1      -2.132  12.795  19.841  0.00  0.00    +0.000 A 
ATOM     16  C   UNL     1      -2.723  12.020  18.837  0.00  0.00    +0.000 A 
ATOM     17  C   UNL     1      -4.103  11.762  18.804  0.00  0.00    +0.000 A 
BRANCH  12  19
ATOM     18  C   UNL     1      -6.875  11.591  20.872  0.00  0.00    +0.000 C 
ATOM     19  O   UNL     1      -6.281  12.197  19.721  0.00  0.00    +0.000 OA
ENDBRANCH  12  19
BRANCH  17  20
ATOM     20  O   UNL     1      -4.443  10.969  17.743  0.00  0.00    +0.000 OA
ATOM     21  C   UNL     1      -3.728  11.100  16.527  0.00  0.00    +0.000 C 
ENDBRANCH  17  20
ENDBRANCH   1  15
BRANCH   6  22
ATOM     22  N   UNL     1       3.348  15.399  18.964  0.00  0.00    +0.000 N 
ATOM     23  C   UNL     1       4.271  15.043  20.036  0.00  0.00    +0.000 C 
ATOM     24  C   UNL     1       5.562  15.730  19.629  0.00  0.00    +0.000 C 
ATOM     25  C   UNL     1       5.594  15.558  18.115  0.00  0.00    +0.000 C 
ATOM     26  C   UNL     1       4.104  15.641  17.716  0.00  0.00    +0.000 C 
BRANCH  25  27
ATOM     27  N   UNL     1       6.324  14.354  17.709  0.00  0.00    +0.000 N 
ATOM     28  C   UNL     1       7.635  14.057  18.025  0.00  0.00    +0.000 C 
ATOM     29  O   UNL     1       8.373  14.768  18.697  0.00  0.00    +0.000 OA
ATOM     30  H   UNL     1       5.826  13.703  17.117  0.00  0.00    +0.000 HD
BRANCH  28  31
ATOM     31  C   UNL     1       8.119  12.732  17.476  0.00  0.00    +0.000 C 
BRANCH  31  32
ATOM     32  C   UNL     1       9.461  12.331  18.028  0.00  0.00    +0.000 A 
ATOM     33  C   UNL     1      10.638  12.763  17.413  0.00  0.00    +0.000 A 
ATOM     34  C   UNL     1      11.883  12.394  17.923  0.00  0.00    +0.000 A 
ATOM     35  C   UNL     1      11.955  11.595  19.065  0.00  0.00    +0.000 A 
ATOM     36  C   UNL     1      10.796  11.173  19.699  0.00  0.00    +0.000 A 
ATOM     37  C   UNL     1       9.551  11.542  19.186  0.00  0.00    +0.000 A 
ENDBRANCH  31  32
ENDBRANCH  28  31
ENDBRANCH  25  27
ENDBRANCH   6  22
TORSDOF 7
ENDMDL
MODEL 8
REMARK VINA RESULT:      -7.3      5.993      7.671
REMARK  Name = 
REMARK  11 active torsions:
REMARK  status: ('A' for Active; 'I' for Inactive)
REMARK    1  A    between atoms: C_1  and  O_2
REMARK    2  A    between atoms: O_2  and  C_3
REMARK    3  A    between atoms: C_6  and  C_7
REMARK    4  A    between atoms: C_8  and  C_9
REMARK    5  A    between atoms: C_12  and  N_13
REMARK    6  A    between atoms: C_16  and  N_17
REMARK    7  A    between atoms: C_18  and  C_20
REMARK    8  A    between atoms: C_20  and  C_21
REMARK    9  A    between atoms: C_29  and  C_30
REMARK   10  A    between atoms: C_34  and  O_35
REMARK   11  A    between atoms: O_35  and  C_36
REMARK                            x       y       z     vdW  Elec       q    Type
REMARK                         _______ _______ _______ _____ _____    ______ ____
ROOT
ATOM      1  C   UNL     1       0.101  12.722  19.953  0.00  0.00    +0.000 A 
ATOM      2  C   UNL     1       0.948  11.962  20.751  0.00  0.00    +0.000 A 
ATOM      3  C   UNL     1       0.787  10.609  21.335  0.00  0.00    +0.000 C 
ATOM      4  N   UNL     1       2.114  12.637  21.012  0.00  0.00    +0.000 NA
ATOM      5  C   UNL     1       1.994  13.822  20.437  0.00  0.00    +0.000 A 
ATOM      6  C   UNL     1       2.884  14.949  20.414  0.00  0.00    +0.000 A 
ATOM      7  C   UNL     1       2.434  16.045  19.778  0.00  0.00    +0.000 A 
ATOM      8  C   UNL     1       1.134  16.010  19.072  0.00  0.00    +0.000 A 
ATOM      9  C   UNL     1       0.741  17.244  18.299  0.00  0.00    +0.000 C 
ATOM     10  N   UNL     1       0.325  15.000  19.058  0.00  0.00    +0.000 NA
ATOM     11  N   UNL     1       0.781  13.925  19.777  0.00  0.00    +0.000 N 
ENDROOT
BRANCH   1  15
ATOM     12  C   UNL     1      -3.719  11.620  18.338  0.00  0.00    +0.000 A 
ATOM     13  C   UNL     1      -2.547  11.411  17.599  0.00  0.00    +0.000 A 
ATOM     14  C   UNL     1      -1.304  11.796  18.103  0.00  0.00    +0.000 A 
ATOM     15  C   UNL     1      -1.201  12.412  19.351  0.00  0.00    +0.000 A 
ATOM     16  C   UNL     1      -2.386  12.698  20.038  0.00  0.00    +0.000 A 
ATOM     17  C   UNL     1      -3.647  12.333  19.540  0.00  0.00    +0.000 A 
BRANCH  12  19
ATOM     18  C   UNL     1      -5.716  12.123  17.193  0.00  0.00    +0.000 C 
ATOM     19  O   UNL     1      -4.921  11.154  17.879  0.00  0.00    +0.000 OA
ENDBRANCH  12  19
BRANCH  17  20
ATOM     20  O   UNL     1      -4.654  12.734  20.375  0.00  0.00    +0.000 OA
ATOM     21  C   UNL     1      -4.406  12.811  21.767  0.00  0.00    +0.000 C 
ENDBRANCH  17  20
ENDBRANCH   1  15
BRANCH   6  22
ATOM     22  N   UNL     1       4.151  14.903  21.005  0.00  0.00    +0.000 N 
ATOM     23  C   UNL     1       4.451  14.607  22.401  0.00  0.00    +0.000 C 
ATOM     24  C   UNL     1       5.807  15.255  22.613  0.00  0.00    +0.000 C 
ATOM     25  C   UNL     1       6.537  14.987  21.302  0.00  0.00    +0.000 C 
ATOM     26  C   UNL     1       5.411  15.058  20.247  0.00  0.00    +0.000 C 
BRANCH  25  27
ATOM     27  N   UNL     1       7.326  13.753  21.349  0.00  0.00    +0.000 N 
ATOM     28  C   UNL     1       8.642  13.648  21.755  0.00  0.00    +0.000 C 
ATOM     29  O   UNL     1       9.335  14.585  22.137  0.00  0.00    +0.000 OA
ATOM     30  H   UNL     1       6.869  12.912  21.023  0.00  0.00    +0.000 HD
BRANCH  28  31
ATOM     31  C   UNL     1       9.193  12.239  21.710  0.00  0.00    +0.000 C 
BRANCH  31  32
ATOM     32  C   UNL     1      10.019  11.978  20.478  0.00  0.00    +0.000 A 
ATOM     33  C   UNL     1       9.450  11.361  19.361  0.00  0.00    +0.000 A 
ATOM     34  C   UNL     1      10.213  11.119  18.219  0.00  0.00    +0.000 A 
ATOM     35  C   UNL     1      11.553  11.507  18.184  0.00  0.00    +0.000 A 
ATOM     36  C   UNL     1      12.128  12.139  19.278  0.00  0.00    +0.000 A 
ATOM     37  C   UNL     1      11.364  12.378  20.421  0.00  0.00    +0.000 A 
ENDBRANCH  31  32
ENDBRANCH  28  31
ENDBRANCH  25  27
ENDBRANCH   6  22
TORSDOF 7
ENDMDL
MODEL 9
REMARK VINA RESULT:      -7.3      5.731      7.162
REMARK  Name = 
REMARK  11 active torsions:
REMARK  status: ('A' for Active; 'I' for Inactive)
REMARK    1  A    between atoms: C_1  and  O_2
REMARK    2  A    between atoms: O_2  and  C_3
REMARK    3  A    between atoms: C_6  and  C_7
REMARK    4  A    between atoms: C_8  and  C_9
REMARK    5  A    between atoms: C_12  and  N_13
REMARK    6  A    between atoms: C_16  and  N_17
REMARK    7  A    between atoms: C_18  and  C_20
REMARK    8  A    between atoms: C_20  and  C_21
REMARK    9  A    between atoms: C_29  and  C_30
REMARK   10  A    between atoms: C_34  and  O_35
REMARK   11  A    between atoms: O_35  and  C_36
REMARK                            x       y       z     vdW  Elec       q    Type
REMARK                         _______ _______ _______ _____ _____    ______ ____
ROOT
ATOM      1  C   UNL     1      -0.785  13.332  20.338  0.00  0.00    +0.000 A 
ATOM      2  C   UNL     1       0.345  12.570  20.613  0.00  0.00    +0.000 A 
ATOM      3  C   UNL     1       0.492  11.228  21.228  0.00  0.00    +0.000 C 
ATOM      4  N   UNL     1       1.486  13.227  20.230  0.00  0.00    +0.000 NA
ATOM      5  C   UNL     1       1.100  14.405  19.770  0.00  0.00    +0.000 A 
ATOM      6  C   UNL     1       1.864  15.516  19.274  0.00  0.00    +0.000 A 
ATOM      7  C   UNL     1       1.161  16.610  18.930  0.00  0.00    +0.000 A 
ATOM      8  C   UNL     1      -0.317  16.587  18.983  0.00  0.00    +0.000 A 
ATOM      9  C   UNL     1      -1.039  17.817  18.490  0.00  0.00    +0.000 C 
ATOM     10  N   UNL     1      -1.029  15.592  19.404  0.00  0.00    +0.000 NA
ATOM     11  N   UNL     1      -0.280  14.520  19.815  0.00  0.00    +0.000 N 
ENDROOT
BRANCH   1  15
ATOM     12  C   UNL     1      -4.903  12.261  20.890  0.00  0.00    +0.000 A 
ATOM     13  C   UNL     1      -4.301  12.147  19.630  0.00  0.00    +0.000 A 
ATOM     14  C   UNL     1      -2.972  12.523  19.435  0.00  0.00    +0.000 A 
ATOM     15  C   UNL     1      -2.215  13.037  20.489  0.00  0.00    +0.000 A 
ATOM     16  C   UNL     1      -2.854  13.232  21.718  0.00  0.00    +0.000 A 
ATOM     17  C   UNL     1      -4.195  12.874  21.930  0.00  0.00    +0.000 A 
BRANCH  12  19
ATOM     18  C   UNL     1      -6.760  11.135  19.974  0.00  0.00    +0.000 C 
ATOM     19  O   UNL     1      -6.176  11.801  21.095  0.00  0.00    +0.000 OA
ENDBRANCH  12  19
BRANCH  17  20
ATOM     20  O   UNL     1      -4.603  13.177  23.200  0.00  0.00    +0.000 OA
ATOM     21  C   UNL     1      -3.628  13.436  24.194  0.00  0.00    +0.000 C 
ENDBRANCH  17  20
ENDBRANCH   1  15
BRANCH   6  22
ATOM     22  N   UNL     1       3.254  15.456  19.139  0.00  0.00    +0.000 N 
ATOM     23  C   UNL     1       4.220  15.171  20.195  0.00  0.00    +0.000 C 
ATOM     24  C   UNL     1       5.501  15.799  19.677  0.00  0.00    +0.000 C 
ATOM     25  C   UNL     1       5.462  15.505  18.183  0.00  0.00    +0.000 C 
ATOM     26  C   UNL     1       3.956  15.582  17.844  0.00  0.00    +0.000 C 
BRANCH  25  27
ATOM     27  N   UNL     1       6.155  14.258  17.844  0.00  0.00    +0.000 N 
ATOM     28  C   UNL     1       7.520  14.105  17.699  0.00  0.00    +0.000 C 
ATOM     29  O   UNL     1       8.345  15.001  17.838  0.00  0.00    +0.000 OA
ATOM     30  H   UNL     1       5.572  13.451  17.671  0.00  0.00    +0.000 HD
BRANCH  28  31
ATOM     31  C   UNL     1       7.951  12.695  17.358  0.00  0.00    +0.000 C 
BRANCH  31  32
ATOM     32  C   UNL     1       9.267  12.323  17.988  0.00  0.00    +0.000 A 
ATOM     33  C   UNL     1       9.306  11.730  19.252  0.00  0.00    +0.000 A 
ATOM     34  C   UNL     1      10.524  11.383  19.837  0.00  0.00    +0.000 A 
ATOM     35  C   UNL     1      11.715  11.620  19.150  0.00  0.00    +0.000 A 
ATOM     36  C   UNL     1      11.693  12.191  17.885  0.00  0.00    +0.000 A 
ATOM     37  C   UNL     1      10.474  12.539  17.303  0.00  0.00    +0.000 A 
ENDBRANCH  31  32
ENDBRANCH  28  31
ENDBRANCH  25  27
ENDBRANCH   6  22
TORSDOF 7
ENDMDL
