MODEL 1
REMARK VINA RESULT:      -7.4      0.000      0.000
REMARK  Name = 
REMARK  6 active torsions:
REMARK  status: ('A' for Active; 'I' for Inactive)
REMARK    1  A    between atoms: C_1  and  O_2
REMARK    2  A    between atoms: O_2  and  C_3
REMARK    3  A    between atoms: C_6  and  N_7
REMARK    4  A    between atoms: C_8  and  C_10
REMARK    5  A    between atoms: C_20  and  O_21
REMARK    6  A    between atoms: O_21  and  C_22
REMARK                            x       y       z     vdW  Elec       q    Type
REMARK                         _______ _______ _______ _____ _____    ______ ____
ROOT
ATOM      1  N   UNL     1       2.965   6.781  18.859  0.00  0.00    +0.000 N 
ATOM      2  C   UNL     1       2.351   7.940  18.416  0.00  0.00    +0.000 C 
ATOM      3  O   UNL     1       2.453   8.440  17.302  0.00  0.00    +0.000 OA
ATOM      4  H   UNL     1       2.981   6.673  19.868  0.00  0.00    +0.000 HD
ENDROOT
BRANCH   2   5
ATOM      5  C   UNL     1       1.409   8.537  19.440  0.00  0.00    +0.000 C 
ATOM      6  C   UNL     1       1.380  10.062  19.358  0.00  0.00    +0.000 C 
ATOM      7  C   UNL     1       0.598  10.252  20.602  0.00  0.00    +0.000 A 
ATOM      8  C   UNL     1      -0.490  11.054  20.854  0.00  0.00    +0.000 A 
ATOM      9  C   UNL     1      -1.084  10.954  22.114  0.00  0.00    +0.000 A 
ATOM     10  C   UNL     1      -0.520  10.141  23.116  0.00  0.00    +0.000 A 
ATOM     11  C   UNL     1       0.544   9.286  22.822  0.00  0.00    +0.000 A 
ATOM     12  C   UNL     1       0.988   9.273  21.517  0.00  0.00    +0.000 A 
ATOM     13  N   UNL     1       1.709   8.187  20.887  0.00  0.00    +0.000 N 
ATOM     14  H   UNL     1       1.161   7.354  21.132  0.00  0.00    +0.000 HD
ENDBRANCH   2   5
BRANCH   1  18
ATOM     15  C   UNL     1       5.409   4.472  16.320  0.00  0.00    +0.000 A 
ATOM     16  C   UNL     1       4.194   3.951  16.780  0.00  0.00    +0.000 A 
ATOM     17  C   UNL     1       3.380   4.695  17.634  0.00  0.00    +0.000 A 
ATOM     18  C   UNL     1       3.780   5.956  18.068  0.00  0.00    +0.000 A 
ATOM     19  C   UNL     1       5.039   6.427  17.707  0.00  0.00    +0.000 A 
ATOM     20  C   UNL     1       5.852   5.706  16.819  0.00  0.00    +0.000 A 
BRANCH  15  22
ATOM     21  C   UNL     1       5.953   4.085  14.046  0.00  0.00    +0.000 C 
ATOM     22  O   UNL     1       6.178   3.780  15.421  0.00  0.00    +0.000 OA
ENDBRANCH  15  22
BRANCH  20  23
ATOM     23  O   UNL     1       7.023   6.367  16.547  0.00  0.00    +0.000 OA
ATOM     24  C   UNL     1       7.467   7.359  17.460  0.00  0.00    +0.000 C 
ENDBRANCH  20  23
ENDBRANCH   1  18
TORSDOF 4
ENDMDL
MODEL 2
REMARK VINA RESULT:      -7.3      1.274      1.357
REMARK  Name = 
REMARK  6 active torsions:
REMARK  status: ('A' for Active; 'I' for Inactive)
REMARK    1  A    between atoms: C_1  and  O_2
REMARK    2  A    between atoms: O_2  and  C_3
REMARK    3  A    between atoms: C_6  and  N_7
REMARK    4  A    between atoms: C_8  and  C_10
REMARK    5  A    between atoms: C_20  and  O_21
REMARK    6  A    between atoms: O_21  and  C_22
REMARK                            x       y       z     vdW  Elec       q    Type
REMARK                         _______ _______ _______ _____ _____    ______ ____
ROOT
ATOM      1  N   UNL     1       3.232   6.881  18.153  0.00  0.00    +0.000 N 
ATOM      2  C   UNL     1       2.701   6.495  19.372  0.00  0.00    +0.000 C 
ATOM      3  O   UNL     1       3.027   5.516  20.032  0.00  0.00    +0.000 OA
ATOM      4  H   UNL     1       2.664   7.547  17.638  0.00  0.00    +0.000 HD
ENDROOT
BRANCH   2   5
ATOM      5  C   UNL     1       1.689   7.482  19.914  0.00  0.00    +0.000 C 
ATOM      6  C   UNL     1       1.774   8.828  19.198  0.00  0.00    +0.000 C 
ATOM      7  C   UNL     1       0.866   9.538  20.130  0.00  0.00    +0.000 A 
ATOM      8  C   UNL     1      -0.187  10.384  19.874  0.00  0.00    +0.000 A 
ATOM      9  C   UNL     1      -0.930  10.835  20.967  0.00  0.00    +0.000 A 
ATOM     10  C   UNL     1      -0.543  10.516  22.283  0.00  0.00    +0.000 A 
ATOM     11  C   UNL     1       0.487   9.604  22.520  0.00  0.00    +0.000 A 
ATOM     12  C   UNL     1       1.079   9.034  21.414  0.00  0.00    +0.000 A 
ATOM     13  N   UNL     1       1.793   7.775  21.400  0.00  0.00    +0.000 N 
ATOM     14  H   UNL     1       1.164   7.130  21.895  0.00  0.00    +0.000 HD
ENDBRANCH   2   5
BRANCH   1  18
ATOM     15  C   UNL     1       6.385   5.079  16.016  0.00  0.00    +0.000 A 
ATOM     16  C   UNL     1       5.190   4.378  16.219  0.00  0.00    +0.000 A 
ATOM     17  C   UNL     1       4.142   4.953  16.937  0.00  0.00    +0.000 A 
ATOM     18  C   UNL     1       4.281   6.222  17.493  0.00  0.00    +0.000 A 
ATOM     19  C   UNL     1       5.508   6.872  17.394  0.00  0.00    +0.000 A 
ATOM     20  C   UNL     1       6.558   6.322  16.642  0.00  0.00    +0.000 A 
BRANCH  15  22
ATOM     21  C   UNL     1       7.273   4.764  13.842  0.00  0.00    +0.000 C 
ATOM     22  O   UNL     1       7.390   4.553  15.248  0.00  0.00    +0.000 OA
ENDBRANCH  15  22
BRANCH  20  23
ATOM     23  O   UNL     1       7.657   7.144  16.623  0.00  0.00    +0.000 OA
ATOM     24  C   UNL     1       7.851   8.039  17.707  0.00  0.00    +0.000 C 
ENDBRANCH  20  23
ENDBRANCH   1  18
TORSDOF 4
ENDMDL
MODEL 3
REMARK VINA RESULT:      -7.3      1.132      2.173
REMARK  Name = 
REMARK  6 active torsions:
REMARK  status: ('A' for Active; 'I' for Inactive)
REMARK    1  A    between atoms: C_1  and  O_2
REMARK    2  A    between atoms: O_2  and  C_3
REMARK    3  A    between atoms: C_6  and  N_7
REMARK    4  A    between atoms: C_8  and  C_10
REMARK    5  A    between atoms: C_20  and  O_21
REMARK    6  A    between atoms: O_21  and  C_22
REMARK                            x       y       z     vdW  Elec       q    Type
REMARK                         _______ _______ _______ _____ _____    ______ ____
ROOT
ATOM      1  N   UNL     1       2.506   7.237  18.834  0.00  0.00    +0.000 N 
ATOM      2  C   UNL     1       1.981   8.453  18.430  0.00  0.00    +0.000 C 
ATOM      3  O   UNL     1       2.143   8.992  17.341  0.00  0.00    +0.000 OA
ATOM      4  H   UNL     1       2.491   7.085  19.837  0.00  0.00    +0.000 HD
ENDROOT
BRANCH   2   5
ATOM      5  C   UNL     1       1.058   9.069  19.459  0.00  0.00    +0.000 C 
ATOM      6  C   UNL     1       1.217  10.587  19.524  0.00  0.00    +0.000 C 
ATOM      7  C   UNL     1       0.389  10.760  20.741  0.00  0.00    +0.000 A 
ATOM      8  C   UNL     1      -0.609  11.665  21.016  0.00  0.00    +0.000 A 
ATOM      9  C   UNL     1      -1.286  11.527  22.230  0.00  0.00    +0.000 A 
ATOM     10  C   UNL     1      -0.884  10.563  23.174  0.00  0.00    +0.000 A 
ATOM     11  C   UNL     1       0.085   9.612  22.851  0.00  0.00    +0.000 A 
ATOM     12  C   UNL     1       0.603   9.661  21.574  0.00  0.00    +0.000 A 
ATOM     13  N   UNL     1       1.225   8.555  20.879  0.00  0.00    +0.000 N 
ATOM     14  H   UNL     1       0.567   7.778  21.014  0.00  0.00    +0.000 HD
ENDBRANCH   2   5
BRANCH   1  18
ATOM     15  C   UNL     1       4.876   4.569  16.594  0.00  0.00    +0.000 A 
ATOM     16  C   UNL     1       5.211   5.927  16.641  0.00  0.00    +0.000 A 
ATOM     17  C   UNL     1       4.429   6.827  17.365  0.00  0.00    +0.000 A 
ATOM     18  C   UNL     1       3.282   6.393  18.024  0.00  0.00    +0.000 A 
ATOM     19  C   UNL     1       2.881   5.068  17.882  0.00  0.00    +0.000 A 
ATOM     20  C   UNL     1       3.679   4.143  17.189  0.00  0.00    +0.000 A 
BRANCH  15  22
ATOM     21  C   UNL     1       6.216   4.092  14.699  0.00  0.00    +0.000 C 
ATOM     22  O   UNL     1       5.679   3.666  15.950  0.00  0.00    +0.000 OA
ENDBRANCH  15  22
BRANCH  20  23
ATOM     23  O   UNL     1       3.137   2.882  17.214  0.00  0.00    +0.000 OA
ATOM     24  C   UNL     1       3.394   2.059  18.341  0.00  0.00    +0.000 C 
ENDBRANCH  20  23
ENDBRANCH   1  18
TORSDOF 4
ENDMDL
MODEL 4
REMARK VINA RESULT:      -7.1      1.736      2.960
REMARK  Name = 
REMARK  6 active torsions:
REMARK  status: ('A' for Active; 'I' for Inactive)
REMARK    1  A    between atoms: C_1  and  O_2
REMARK    2  A    between atoms: O_2  and  C_3
REMARK    3  A    between atoms: C_6  and  N_7
REMARK    4  A    between atoms: C_8  and  C_10
REMARK    5  A    between atoms: C_20  and  O_21
REMARK    6  A    between atoms: O_21  and  C_22
REMARK                            x       y       z     vdW  Elec       q    Type
REMARK                         _______ _______ _______ _____ _____    ______ ____
ROOT
ATOM      1  N   UNL     1       2.308   7.779  19.073  0.00  0.00    +0.000 N 
ATOM      2  C   UNL     1       1.816   8.964  18.552  0.00  0.00    +0.000 C 
ATOM      3  O   UNL     1       1.863   9.320  17.380  0.00  0.00    +0.000 OA
ATOM      4  H   UNL     1       2.421   7.779  20.082  0.00  0.00    +0.000 HD
ENDROOT
BRANCH   2   5
ATOM      5  C   UNL     1       1.085   9.802  19.578  0.00  0.00    +0.000 C 
ATOM      6  C   UNL     1       0.493   8.940  20.692  0.00  0.00    +0.000 C 
ATOM      7  C   UNL     1      -0.300  10.033  21.304  0.00  0.00    +0.000 A 
ATOM      8  C   UNL     1      -0.438  10.400  22.622  0.00  0.00    +0.000 A 
ATOM      9  C   UNL     1      -1.189  11.545  22.895  0.00  0.00    +0.000 A 
ATOM     10  C   UNL     1      -1.862  12.229  21.864  0.00  0.00    +0.000 A 
ATOM     11  C   UNL     1      -1.657  11.882  20.528  0.00  0.00    +0.000 A 
ATOM     12  C   UNL     1      -0.763  10.862  20.281  0.00  0.00    +0.000 A 
ATOM     13  N   UNL     1      -0.052  10.653  19.038  0.00  0.00    +0.000 N 
ATOM     14  H   UNL     1       0.326  11.581  18.812  0.00  0.00    +0.000 HD
ENDBRANCH   2   5
BRANCH   1  18
ATOM     15  C   UNL     1       4.103   4.585  16.992  0.00  0.00    +0.000 A 
ATOM     16  C   UNL     1       4.756   5.821  17.070  0.00  0.00    +0.000 A 
ATOM     17  C   UNL     1       4.170   6.893  17.742  0.00  0.00    +0.000 A 
ATOM     18  C   UNL     1       2.909   6.761  18.316  0.00  0.00    +0.000 A 
ATOM     19  C   UNL     1       2.206   5.573  18.138  0.00  0.00    +0.000 A 
ATOM     20  C   UNL     1       2.799   4.473  17.498  0.00  0.00    +0.000 A 
BRANCH  15  22
ATOM     21  C   UNL     1       5.907   3.777  15.686  0.00  0.00    +0.000 C 
ATOM     22  O   UNL     1       4.704   3.505  16.401  0.00  0.00    +0.000 OA
ENDBRANCH  15  22
BRANCH  20  23
ATOM     23  O   UNL     1       1.964   3.383  17.477  0.00  0.00    +0.000 OA
ATOM     24  C   UNL     1       1.273   3.039  18.668  0.00  0.00    +0.000 C 
ENDBRANCH  20  23
ENDBRANCH   1  18
TORSDOF 4
ENDMDL
MODEL 5
REMARK VINA RESULT:      -7.1      1.493      2.029
REMARK  Name = 
REMARK  6 active torsions:
REMARK  status: ('A' for Active; 'I' for Inactive)
REMARK    1  A    between atoms: C_1  and  O_2
REMARK    2  A    between atoms: O_2  and  C_3
REMARK    3  A    between atoms: C_6  and  N_7
REMARK    4  A    between atoms: C_8  and  C_10
REMARK    5  A    between atoms: C_20  and  O_21
REMARK    6  A    between atoms: O_21  and  C_22
REMARK                            x       y       z     vdW  Elec       q    Type
REMARK                         _______ _______ _______ _____ _____    ______ ____
ROOT
ATOM      1  N   UNL     1       2.383   7.075  19.773  0.00  0.00    +0.000 N 
ATOM      2  C   UNL     1       1.998   8.278  19.206  0.00  0.00    +0.000 C 
ATOM      3  O   UNL     1       2.150   8.615  18.038  0.00  0.00    +0.000 OA
ATOM      4  H   UNL     1       2.421   7.082  20.788  0.00  0.00    +0.000 HD
ENDROOT
BRANCH   2   5
ATOM      5  C   UNL     1       1.244   9.170  20.169  0.00  0.00    +0.000 C 
ATOM      6  C   UNL     1       0.390   8.358  21.140  0.00  0.00    +0.000 C 
ATOM      7  C   UNL     1      -0.332   9.525  21.699  0.00  0.00    +0.000 A 
ATOM      8  C   UNL     1      -0.608   9.859  23.004  0.00  0.00    +0.000 A 
ATOM      9  C   UNL     1      -1.233  11.086  23.235  0.00  0.00    +0.000 A 
ATOM     10  C   UNL     1      -1.656  11.894  22.162  0.00  0.00    +0.000 A 
ATOM     11  C   UNL     1      -1.309  11.571  20.849  0.00  0.00    +0.000 A 
ATOM     12  C   UNL     1      -0.530  10.448  20.671  0.00  0.00    +0.000 A 
ATOM     13  N   UNL     1       0.318  10.189  19.527  0.00  0.00    +0.000 N 
ATOM     14  H   UNL     1       0.843  11.064  19.407  0.00  0.00    +0.000 HD
ENDBRANCH   2   5
BRANCH   1  18
ATOM     15  C   UNL     1       4.331   4.042  17.592  0.00  0.00    +0.000 A 
ATOM     16  C   UNL     1       2.981   4.319  17.347  0.00  0.00    +0.000 A 
ATOM     17  C   UNL     1       2.316   5.309  18.070  0.00  0.00    +0.000 A 
ATOM     18  C   UNL     1       2.977   6.014  19.072  0.00  0.00    +0.000 A 
ATOM     19  C   UNL     1       4.283   5.660  19.399  0.00  0.00    +0.000 A 
ATOM     20  C   UNL     1       4.976   4.693  18.654  0.00  0.00    +0.000 A 
BRANCH  15  22
ATOM     21  C   UNL     1       5.722   3.650  15.714  0.00  0.00    +0.000 C 
ATOM     22  O   UNL     1       5.012   3.126  16.835  0.00  0.00    +0.000 OA
ENDBRANCH  15  22
BRANCH  20  23
ATOM     23  O   UNL     1       6.265   4.533  19.099  0.00  0.00    +0.000 OA
ATOM     24  C   UNL     1       7.248   5.463  18.671  0.00  0.00    +0.000 C 
ENDBRANCH  20  23
ENDBRANCH   1  18
TORSDOF 4
ENDMDL
MODEL 6
REMARK VINA RESULT:      -7.0      2.430      3.279
REMARK  Name = 
REMARK  6 active torsions:
REMARK  status: ('A' for Active; 'I' for Inactive)
REMARK    1  A    between atoms: C_1  and  O_2
REMARK    2  A    between atoms: O_2  and  C_3
REMARK    3  A    between atoms: C_6  and  N_7
REMARK    4  A    between atoms: C_8  and  C_10
REMARK    5  A    between atoms: C_20  and  O_21
REMARK    6  A    between atoms: O_21  and  C_22
REMARK                            x       y       z     vdW  Elec       q    Type
REMARK                         _______ _______ _______ _____ _____    ______ ____
ROOT
ATOM      1  N   UNL     1       1.611   6.585  20.929  0.00  0.00    +0.000 N 
ATOM      2  C   UNL     1       1.755   7.726  20.158  0.00  0.00    +0.000 C 
ATOM      3  O   UNL     1       2.257   7.792  19.042  0.00  0.00    +0.000 OA
ATOM      4  H   UNL     1       1.427   6.763  21.912  0.00  0.00    +0.000 HD
ENDROOT
BRANCH   2   5
ATOM      5  C   UNL     1       1.125   8.949  20.788  0.00  0.00    +0.000 C 
ATOM      6  C   UNL     1      -0.059   8.578  21.678  0.00  0.00    +0.000 C 
ATOM      7  C   UNL     1      -0.520   9.972  21.882  0.00  0.00    +0.000 A 
ATOM      8  C   UNL     1      -0.901  10.624  23.031  0.00  0.00    +0.000 A 
ATOM      9  C   UNL     1      -1.202  11.984  22.929  0.00  0.00    +0.000 A 
ATOM     10  C   UNL     1      -1.214  12.628  21.678  0.00  0.00    +0.000 A 
ATOM     11  C   UNL     1      -0.761  11.969  20.534  0.00  0.00    +0.000 A 
ATOM     12  C   UNL     1      -0.296  10.682  20.701  0.00  0.00    +0.000 A 
ATOM     13  N   UNL     1       0.623  10.001  19.814  0.00  0.00    +0.000 N 
ATOM     14  H   UNL     1       1.376  10.684  19.669  0.00  0.00    +0.000 HD
ENDBRANCH   2   5
BRANCH   1  18
ATOM     15  C   UNL     1       2.805   2.801  19.512  0.00  0.00    +0.000 A 
ATOM     16  C   UNL     1       1.477   3.012  19.902  0.00  0.00    +0.000 A 
ATOM     17  C   UNL     1       1.068   4.254  20.388  0.00  0.00    +0.000 A 
ATOM     18  C   UNL     1       1.983   5.294  20.525  0.00  0.00    +0.000 A 
ATOM     19  C   UNL     1       3.327   5.052  20.251  0.00  0.00    +0.000 A 
ATOM     20  C   UNL     1       3.746   3.820  19.725  0.00  0.00    +0.000 A 
BRANCH  15  22
ATOM     21  C   UNL     1       3.501   1.637  17.569  0.00  0.00    +0.000 C 
ATOM     22  O   UNL     1       3.198   1.610  18.963  0.00  0.00    +0.000 OA
ENDBRANCH  15  22
BRANCH  20  23
ATOM     23  O   UNL     1       5.095   3.805  19.471  0.00  0.00    +0.000 OA
ATOM     24  C   UNL     1       5.613   4.726  18.524  0.00  0.00    +0.000 C 
ENDBRANCH  20  23
ENDBRANCH   1  18
TORSDOF 4
ENDMDL
MODEL 7
REMARK VINA RESULT:      -7.0      1.599      2.735
REMARK  Name = 
REMARK  6 active torsions:
REMARK  status: ('A' for Active; 'I' for Inactive)
REMARK    1  A    between atoms: C_1  and  O_2
REMARK    2  A    between atoms: O_2  and  C_3
REMARK    3  A    between atoms: C_6  and  N_7
REMARK    4  A    between atoms: C_8  and  C_10
REMARK    5  A    between atoms: C_20  and  O_21
REMARK    6  A    between atoms: O_21  and  C_22
REMARK                            x       y       z     vdW  Elec       q    Type
REMARK                         _______ _______ _______ _____ _____    ______ ____
ROOT
ATOM      1  N   UNL     1       2.556   7.400  18.735  0.00  0.00    +0.000 N 
ATOM      2  C   UNL     1       2.057   7.122  19.997  0.00  0.00    +0.000 C 
ATOM      3  O   UNL     1       2.156   6.061  20.602  0.00  0.00    +0.000 OA
ATOM      4  H   UNL     1       2.152   8.221  18.295  0.00  0.00    +0.000 HD
ENDROOT
BRANCH   2   5
ATOM      5  C   UNL     1       1.421   8.325  20.659  0.00  0.00    +0.000 C 
ATOM      6  C   UNL     1       0.231   7.926  21.529  0.00  0.00    +0.000 C 
ATOM      7  C   UNL     1      -0.234   9.313  21.771  0.00  0.00    +0.000 A 
ATOM      8  C   UNL     1      -0.624   9.929  22.936  0.00  0.00    +0.000 A 
ATOM      9  C   UNL     1      -0.926  11.291  22.873  0.00  0.00    +0.000 A 
ATOM     10  C   UNL     1      -0.931  11.973  21.641  0.00  0.00    +0.000 A 
ATOM     11  C   UNL     1      -0.469  11.348  20.481  0.00  0.00    +0.000 A 
ATOM     12  C   UNL     1      -0.003  10.058  20.614  0.00  0.00    +0.000 A 
ATOM     13  N   UNL     1       0.923   9.405  19.713  0.00  0.00    +0.000 N 
ATOM     14  H   UNL     1       1.676  10.093  19.593  0.00  0.00    +0.000 HD
ENDBRANCH   2   5
BRANCH   1  18
ATOM     15  C   UNL     1       4.845   4.583  16.595  0.00  0.00    +0.000 A 
ATOM     16  C   UNL     1       5.239   5.926  16.622  0.00  0.00    +0.000 A 
ATOM     17  C   UNL     1       4.485   6.875  17.312  0.00  0.00    +0.000 A 
ATOM     18  C   UNL     1       3.309   6.506  17.958  0.00  0.00    +0.000 A 
ATOM     19  C   UNL     1       2.852   5.197  17.835  0.00  0.00    +0.000 A 
ATOM     20  C   UNL     1       3.619   4.223  17.175  0.00  0.00    +0.000 A 
BRANCH  15  22
ATOM     21  C   UNL     1       6.107   3.967  14.687  0.00  0.00    +0.000 C 
ATOM     22  O   UNL     1       5.619   3.632  15.985  0.00  0.00    +0.000 OA
ENDBRANCH  15  22
BRANCH  20  23
ATOM     23  O   UNL     1       3.021   2.989  17.215  0.00  0.00    +0.000 OA
ATOM     24  C   UNL     1       3.208   2.184  18.369  0.00  0.00    +0.000 C 
ENDBRANCH  20  23
ENDBRANCH   1  18
TORSDOF 4
ENDMDL
MODEL 8
REMARK VINA RESULT:      -6.9      2.633      8.290
REMARK  Name = 
REMARK  6 active torsions:
REMARK  status: ('A' for Active; 'I' for Inactive)
REMARK    1  A    between atoms: C_1  and  O_2
REMARK    2  A    between atoms: O_2  and  C_3
REMARK    3  A    between atoms: C_6  and  N_7
REMARK    4  A    between atoms: C_8  and  C_10
REMARK    5  A    between atoms: C_20  and  O_21
REMARK    6  A    between atoms: O_21  and  C_22
REMARK                            x       y       z     vdW  Elec       q    Type
REMARK                         _______ _______ _______ _____ _____    ______ ____
ROOT
ATOM      1  N   UNL     1       2.057   8.152  20.185  0.00  0.00    +0.000 N 
ATOM      2  C   UNL     1       2.116   6.769  20.146  0.00  0.00    +0.000 C 
ATOM      3  O   UNL     1       1.387   5.990  20.749  0.00  0.00    +0.000 OA
ATOM      4  H   UNL     1       2.893   8.618  19.845  0.00  0.00    +0.000 HD
ENDROOT
BRANCH   2   5
ATOM      5  C   UNL     1       3.151   6.249  19.170  0.00  0.00    +0.000 C 
ATOM      6  C   UNL     1       3.264   7.145  17.938  0.00  0.00    +0.000 C 
ATOM      7  C   UNL     1       4.129   6.216  17.173  0.00  0.00    +0.000 A 
ATOM      8  C   UNL     1       5.276   6.459  16.454  0.00  0.00    +0.000 A 
ATOM      9  C   UNL     1       5.937   5.357  15.907  0.00  0.00    +0.000 A 
ATOM     10  C   UNL     1       5.386   4.064  16.003  0.00  0.00    +0.000 A 
ATOM     11  C   UNL     1       4.259   3.829  16.792  0.00  0.00    +0.000 A 
ATOM     12  C   UNL     1       3.737   4.910  17.469  0.00  0.00    +0.000 A 
ATOM     13  N   UNL     1       2.918   4.838  18.660  0.00  0.00    +0.000 N 
ATOM     14  H   UNL     1       3.430   4.191  19.272  0.00  0.00    +0.000 HD
ENDBRANCH   2   5
BRANCH   1  18
ATOM     15  C   UNL     1      -0.712  10.568  22.246  0.00  0.00    +0.000 A 
ATOM     16  C   UNL     1       0.096   9.672  22.956  0.00  0.00    +0.000 A 
ATOM     17  C   UNL     1       1.007   8.854  22.289  0.00  0.00    +0.000 A 
ATOM     18  C   UNL     1       1.103   8.891  20.901  0.00  0.00    +0.000 A 
ATOM     19  C   UNL     1       0.220   9.693  20.183  0.00  0.00    +0.000 A 
ATOM     20  C   UNL     1      -0.676  10.550  20.843  0.00  0.00    +0.000 A 
BRANCH  15  22
ATOM     21  C   UNL     1      -1.112  12.782  22.988  0.00  0.00    +0.000 C 
ATOM     22  O   UNL     1      -1.554  11.429  22.898  0.00  0.00    +0.000 OA
ENDBRANCH  15  22
BRANCH  20  23
ATOM     23  O   UNL     1      -1.415  11.296  19.959  0.00  0.00    +0.000 OA
ATOM     24  C   UNL     1      -0.740  11.937  18.888  0.00  0.00    +0.000 C 
ENDBRANCH  20  23
ENDBRANCH   1  18
TORSDOF 4
ENDMDL
MODEL 9
REMARK VINA RESULT:      -6.8      2.109      2.827
REMARK  Name = 
REMARK  6 active torsions:
REMARK  status: ('A' for Active; 'I' for Inactive)
REMARK    1  A    between atoms: C_1  and  O_2
REMARK    2  A    between atoms: O_2  and  C_3
REMARK    3  A    between atoms: C_6  and  N_7
REMARK    4  A    between atoms: C_8  and  C_10
REMARK    5  A    between atoms: C_20  and  O_21
REMARK    6  A    between atoms: O_21  and  C_22
REMARK                            x       y       z     vdW  Elec       q    Type
REMARK                         _______ _______ _______ _____ _____    ______ ____
ROOT
ATOM      1  N   UNL     1       2.051   7.501  19.267  0.00  0.00    +0.000 N 
ATOM      2  C   UNL     1       2.014   8.566  18.383  0.00  0.00    +0.000 C 
ATOM      3  O   UNL     1       2.433   8.574  17.232  0.00  0.00    +0.000 OA
ATOM      4  H   UNL     1       1.910   7.756  20.239  0.00  0.00    +0.000 HD
ENDROOT
BRANCH   2   5
ATOM      5  C   UNL     1       1.288   9.772  18.942  0.00  0.00    +0.000 C 
ATOM      6  C   UNL     1       0.609   9.455  20.273  0.00  0.00    +0.000 C 
ATOM      7  C   UNL     1      -0.149  10.726  20.346  0.00  0.00    +0.000 A 
ATOM      8  C   UNL     1      -0.318  11.600  21.394  0.00  0.00    +0.000 A 
ATOM      9  C   UNL     1      -1.019  12.781  21.139  0.00  0.00    +0.000 A 
ATOM     10  C   UNL     1      -1.615  13.010  19.884  0.00  0.00    +0.000 A 
ATOM     11  C   UNL     1      -1.376  12.144  18.815  0.00  0.00    +0.000 A 
ATOM     12  C   UNL     1      -0.527  11.084  19.052  0.00  0.00    +0.000 A 
ATOM     13  N   UNL     1       0.219  10.366  18.041  0.00  0.00    +0.000 N 
ATOM     14  H   UNL     1       0.654  11.110  17.482  0.00  0.00    +0.000 HD
ENDBRANCH   2   5
BRANCH   1  18
ATOM     15  C   UNL     1       3.701   3.769  18.217  0.00  0.00    +0.000 A 
ATOM     16  C   UNL     1       2.366   4.053  17.905  0.00  0.00    +0.000 A 
ATOM     17  C   UNL     1       1.799   5.277  18.259  0.00  0.00    +0.000 A 
ATOM     18  C   UNL     1       2.544   6.223  18.959  0.00  0.00    +0.000 A 
ATOM     19  C   UNL     1       3.832   5.898  19.373  0.00  0.00    +0.000 A 
ATOM     20  C   UNL     1       4.428   4.685  18.991  0.00  0.00    +0.000 A 
BRANCH  15  22
ATOM     21  C   UNL     1       3.647   1.400  18.231  0.00  0.00    +0.000 C 
ATOM     22  O   UNL     1       4.288   2.601  17.806  0.00  0.00    +0.000 OA
ENDBRANCH  15  22
BRANCH  20  23
ATOM     23  O   UNL     1       5.717   4.583  19.452  0.00  0.00    +0.000 OA
ATOM     24  C   UNL     1       6.720   5.377  18.836  0.00  0.00    +0.000 C 
ENDBRANCH  20  23
ENDBRANCH   1  18
TORSDOF 4
ENDMDL
