MODEL 1
REMARK VINA RESULT:      -8.3      0.000      0.000
REMARK  Name = 
REMARK  7 active torsions:
REMARK  status: ('A' for Active; 'I' for Inactive)
REMARK    1  A    between atoms: C_1  and  C_2
REMARK    2  A    between atoms: N_13  and  C_14
REMARK    3  A    between atoms: N_17  and  C_18
REMARK    4  A    between atoms: N_19  and  C_20
REMARK    5  A    between atoms: C_20  and  C_21
REMARK    6  A    between atoms: C_21  and  S_22
REMARK    7  A    between atoms: S_22  and  C_23
REMARK                            x       y       z     vdW  Elec       q    Type
REMARK                         _______ _______ _______ _____ _____    ______ ____
ROOT
ATOM      1  C   UNL     1       3.463   2.739  18.330  0.00  0.00    +0.000 C 
ATOM      2  C   UNL     1       2.114   2.554  19.035  0.00  0.00    +0.000 C 
ATOM      3  C   UNL     1       2.287   1.858  20.397  0.00  0.00    +0.000 C 
ATOM      4  C   UNL     1       2.784   2.801  21.497  0.00  0.00    +0.000 C 
ATOM      5  C   UNL     1       2.020   4.130  21.511  0.00  0.00    +0.000 C 
ATOM      6  N   UNL     1       2.103   4.737  20.165  0.00  0.00    +0.000 N 
ATOM      7  C   UNL     1       1.898   6.086  20.095  0.00  0.00    +0.000 A 
ATOM      8  N   UNL     1       1.250   6.823  20.982  0.00  0.00    +0.000 NA
ATOM      9  C   UNL     1       1.252   8.079  20.474  0.00  0.00    +0.000 A 
ATOM     10  C   UNL     1       1.938   8.168  19.305  0.00  0.00    +0.000 A 
ATOM     11  C   UNL     1       2.050   9.382  18.568  0.00  0.00    +0.000 A 
ATOM     12  O   UNL     1       2.612   9.465  17.479  0.00  0.00    +0.000 OA
ATOM     13  N   UNL     1       1.446  10.470  19.202  0.00  0.00    +0.000 N 
ATOM     14  C   UNL     1       1.539  11.774  18.571  0.00  0.00    +0.000 C 
ATOM     15  C   UNL     1       0.695  10.409  20.387  0.00  0.00    +0.000 A 
ATOM     16  O   UNL     1       0.130  11.410  20.832  0.00  0.00    +0.000 OA
ATOM     17  N   UNL     1       0.610   9.170  21.023  0.00  0.00    +0.000 N 
ATOM     18  C   UNL     1      -0.176   9.027  22.235  0.00  0.00    +0.000 C 
ATOM     19  N   UNL     1       2.400   6.889  19.065  0.00  0.00    +0.000 N 
ATOM     20  C   UNL     1       1.378   3.898  19.186  0.00  0.00    +0.000 C 
ENDROOT
BRANCH  19  21
ATOM     21  C   UNL     1       3.127   6.449  17.876  0.00  0.00    +0.000 C 
BRANCH  21  22
ATOM     22  C   UNL     1       4.553   6.972  17.692  0.00  0.00    +0.000 C 
BRANCH  22  23
ATOM     23  S   UNL     1       5.814   5.651  17.845  0.00  0.00    +0.000 S 
BRANCH  23  24
ATOM     24  C   UNL     1       6.077   5.128  16.187  0.00  0.00    +0.000 A 
ATOM     25  N   UNL     1       7.001   5.660  15.420  0.00  0.00    +0.000 NA
ATOM     26  C   UNL     1       6.974   5.058  14.165  0.00  0.00    +0.000 A 
ATOM     27  C   UNL     1       7.846   5.328  13.089  0.00  0.00    +0.000 A 
ATOM     28  C   UNL     1       7.755   4.589  11.902  0.00  0.00    +0.000 A 
ATOM     29  C   UNL     1       6.784   3.604  11.761  0.00  0.00    +0.000 A 
ATOM     30  C   UNL     1       5.870   3.349  12.790  0.00  0.00    +0.000 A 
ATOM     31  C   UNL     1       5.989   4.082  13.987  0.00  0.00    +0.000 A 
ATOM     32  S   UNL     1       5.050   3.980  15.428  0.00  0.00    +0.000 S 
ENDBRANCH  23  24
ENDBRANCH  22  23
ENDBRANCH  21  22
ENDBRANCH  19  21
TORSDOF 4
ENDMDL
MODEL 2
REMARK VINA RESULT:      -8.3      0.786      1.149
REMARK  Name = 
REMARK  7 active torsions:
REMARK  status: ('A' for Active; 'I' for Inactive)
REMARK    1  A    between atoms: C_1  and  C_2
REMARK    2  A    between atoms: N_13  and  C_14
REMARK    3  A    between atoms: N_17  and  C_18
REMARK    4  A    between atoms: N_19  and  C_20
REMARK    5  A    between atoms: C_20  and  C_21
REMARK    6  A    between atoms: C_21  and  S_22
REMARK    7  A    between atoms: S_22  and  C_23
REMARK                            x       y       z     vdW  Elec       q    Type
REMARK                         _______ _______ _______ _____ _____    ______ ____
ROOT
ATOM      1  C   UNL     1       3.062   3.007  18.034  0.00  0.00    +0.000 C 
ATOM      2  C   UNL     1       1.824   2.801  18.915  0.00  0.00    +0.000 C 
ATOM      3  C   UNL     1       2.179   2.049  20.210  0.00  0.00    +0.000 C 
ATOM      4  C   UNL     1       2.838   2.943  21.266  0.00  0.00    +0.000 C 
ATOM      5  C   UNL     1       2.099   4.275  21.439  0.00  0.00    +0.000 C 
ATOM      6  N   UNL     1       1.998   4.936  20.121  0.00  0.00    +0.000 N 
ATOM      7  C   UNL     1       1.801   6.289  20.134  0.00  0.00    +0.000 A 
ATOM      8  N   UNL     1       1.294   6.992  21.132  0.00  0.00    +0.000 NA
ATOM      9  C   UNL     1       1.239   8.268  20.679  0.00  0.00    +0.000 A 
ATOM     10  C   UNL     1       1.754   8.400  19.429  0.00  0.00    +0.000 A 
ATOM     11  C   UNL     1       1.775   9.643  18.732  0.00  0.00    +0.000 A 
ATOM     12  O   UNL     1       2.179   9.767  17.579  0.00  0.00    +0.000 OA
ATOM     13  N   UNL     1       1.279  10.707  19.489  0.00  0.00    +0.000 N 
ATOM     14  C   UNL     1       1.298  12.036  18.903  0.00  0.00    +0.000 C 
ATOM     15  C   UNL     1       0.703  10.603  20.765  0.00  0.00    +0.000 A 
ATOM     16  O   UNL     1       0.218  11.588  21.324  0.00  0.00    +0.000 OA
ATOM     17  N   UNL     1       0.694   9.340  21.357  0.00  0.00    +0.000 N 
ATOM     18  C   UNL     1       0.086   9.152  22.661  0.00  0.00    +0.000 C 
ATOM     19  N   UNL     1       2.162   7.129  19.076  0.00  0.00    +0.000 N 
ATOM     20  C   UNL     1       1.132   4.142  19.222  0.00  0.00    +0.000 C 
ENDROOT
BRANCH  19  21
ATOM     21  C   UNL     1       2.709   6.735  17.780  0.00  0.00    +0.000 C 
BRANCH  21  22
ATOM     22  C   UNL     1       4.159   7.120  17.483  0.00  0.00    +0.000 C 
BRANCH  22  23
ATOM     23  S   UNL     1       5.333   5.747  17.795  0.00  0.00    +0.000 S 
BRANCH  23  24
ATOM     24  C   UNL     1       5.785   5.207  16.183  0.00  0.00    +0.000 A 
ATOM     25  N   UNL     1       4.992   4.467  15.442  0.00  0.00    +0.000 NA
ATOM     26  C   UNL     1       5.612   4.188  14.227  0.00  0.00    +0.000 A 
ATOM     27  C   UNL     1       5.055   3.463  13.152  0.00  0.00    +0.000 A 
ATOM     28  C   UNL     1       5.764   3.321  11.952  0.00  0.00    +0.000 A 
ATOM     29  C   UNL     1       7.036   3.868  11.818  0.00  0.00    +0.000 A 
ATOM     30  C   UNL     1       7.636   4.546  12.885  0.00  0.00    +0.000 A 
ATOM     31  C   UNL     1       6.903   4.702  14.077  0.00  0.00    +0.000 A 
ATOM     32  S   UNL     1       7.347   5.504  15.537  0.00  0.00    +0.000 S 
ENDBRANCH  23  24
ENDBRANCH  22  23
ENDBRANCH  21  22
ENDBRANCH  19  21
TORSDOF 4
ENDMDL
MODEL 3
REMARK VINA RESULT:      -7.1      4.415      8.284
REMARK  Name = 
REMARK  7 active torsions:
REMARK  status: ('A' for Active; 'I' for Inactive)
REMARK    1  A    between atoms: C_1  and  C_2
REMARK    2  A    between atoms: N_13  and  C_14
REMARK    3  A    between atoms: N_17  and  C_18
REMARK    4  A    between atoms: N_19  and  C_20
REMARK    5  A    between atoms: C_20  and  C_21
REMARK    6  A    between atoms: C_21  and  S_22
REMARK    7  A    between atoms: S_22  and  C_23
REMARK                            x       y       z     vdW  Elec       q    Type
REMARK                         _______ _______ _______ _____ _____    ______ ____
ROOT
ATOM      1  C   UNL     1      -1.331  11.182  23.146  0.00  0.00    +0.000 C 
ATOM      2  C   UNL     1      -2.526  11.989  22.623  0.00  0.00    +0.000 C 
ATOM      3  C   UNL     1      -3.194  12.793  23.752  0.00  0.00    +0.000 C 
ATOM      4  C   UNL     1      -2.431  14.072  24.114  0.00  0.00    +0.000 C 
ATOM      5  C   UNL     1      -2.015  14.869  22.872  0.00  0.00    +0.000 C 
ATOM      6  N   UNL     1      -1.240  13.982  21.979  0.00  0.00    +0.000 N 
ATOM      7  C   UNL     1      -0.413  14.597  21.081  0.00  0.00    +0.000 A 
ATOM      8  N   UNL     1      -0.524  15.842  20.647  0.00  0.00    +0.000 NA
ATOM      9  C   UNL     1       0.472  15.993  19.740  0.00  0.00    +0.000 A 
ATOM     10  C   UNL     1       1.251  14.887  19.630  0.00  0.00    +0.000 A 
ATOM     11  C   UNL     1       2.341  14.799  18.717  0.00  0.00    +0.000 A 
ATOM     12  O   UNL     1       3.015  13.784  18.561  0.00  0.00    +0.000 OA
ATOM     13  N   UNL     1       2.562  15.982  18.008  0.00  0.00    +0.000 N 
ATOM     14  C   UNL     1       3.680  16.032  17.083  0.00  0.00    +0.000 C 
ATOM     15  C   UNL     1       1.755  17.130  18.064  0.00  0.00    +0.000 A 
ATOM     16  O   UNL     1       1.982  18.101  17.340  0.00  0.00    +0.000 OA
ATOM     17  N   UNL     1       0.688  17.113  18.962  0.00  0.00    +0.000 N 
ATOM     18  C   UNL     1      -0.206  18.253  19.051  0.00  0.00    +0.000 C 
ATOM     19  N   UNL     1       0.714  13.983  20.526  0.00  0.00    +0.000 N 
ATOM     20  C   UNL     1      -2.110  12.905  21.457  0.00  0.00    +0.000 C 
ENDROOT
BRANCH  19  21
ATOM     21  C   UNL     1       1.153  12.602  20.717  0.00  0.00    +0.000 C 
BRANCH  21  22
ATOM     22  C   UNL     1       0.894  11.619  19.574  0.00  0.00    +0.000 C 
BRANCH  22  23
ATOM     23  S   UNL     1       0.199  10.026  20.158  0.00  0.00    +0.000 S 
BRANCH  23  24
ATOM     24  C   UNL     1       1.299   8.822  19.500  0.00  0.00    +0.000 A 
ATOM     25  N   UNL     1       1.676   7.765  20.183  0.00  0.00    +0.000 NA
ATOM     26  C   UNL     1       2.549   6.997  19.416  0.00  0.00    +0.000 A 
ATOM     27  C   UNL     1       3.126   5.765  19.790  0.00  0.00    +0.000 A 
ATOM     28  C   UNL     1       3.930   5.058  18.886  0.00  0.00    +0.000 A 
ATOM     29  C   UNL     1       4.193   5.578  17.623  0.00  0.00    +0.000 A 
ATOM     30  C   UNL     1       3.678   6.823  17.244  0.00  0.00    +0.000 A 
ATOM     31  C   UNL     1       2.852   7.512  18.152  0.00  0.00    +0.000 A 
ATOM     32  S   UNL     1       2.052   9.028  17.970  0.00  0.00    +0.000 S 
ENDBRANCH  23  24
ENDBRANCH  22  23
ENDBRANCH  21  22
ENDBRANCH  19  21
TORSDOF 4
ENDMDL
MODEL 4
REMARK VINA RESULT:      -7.0      6.203      9.545
REMARK  Name = 
REMARK  7 active torsions:
REMARK  status: ('A' for Active; 'I' for Inactive)
REMARK    1  A    between atoms: C_1  and  C_2
REMARK    2  A    between atoms: N_13  and  C_14
REMARK    3  A    between atoms: N_17  and  C_18
REMARK    4  A    between atoms: N_19  and  C_20
REMARK    5  A    between atoms: C_20  and  C_21
REMARK    6  A    between atoms: C_21  and  S_22
REMARK    7  A    between atoms: S_22  and  C_23
REMARK                            x       y       z     vdW  Elec       q    Type
REMARK                         _______ _______ _______ _____ _____    ______ ____
ROOT
ATOM      1  C   UNL     1      -4.246  10.819  17.929  0.00  0.00    +0.000 C 
ATOM      2  C   UNL     1      -5.560  11.608  17.894  0.00  0.00    +0.000 C 
ATOM      3  C   UNL     1      -6.758  10.714  18.260  0.00  0.00    +0.000 C 
ATOM      4  C   UNL     1      -6.891  10.471  19.767  0.00  0.00    +0.000 C 
ATOM      5  C   UNL     1      -6.741  11.765  20.577  0.00  0.00    +0.000 C 
ATOM      6  N   UNL     1      -5.456  12.401  20.218  0.00  0.00    +0.000 N 
ATOM      7  C   UNL     1      -4.938  13.277  21.130  0.00  0.00    +0.000 A 
ATOM      8  N   UNL     1      -5.616  13.917  22.069  0.00  0.00    +0.000 NA
ATOM      9  C   UNL     1      -4.707  14.706  22.691  0.00  0.00    +0.000 A 
ATOM     10  C   UNL     1      -3.450  14.540  22.204  0.00  0.00    +0.000 A 
ATOM     11  C   UNL     1      -2.334  15.286  22.681  0.00  0.00    +0.000 A 
ATOM     12  O   UNL     1      -1.204  15.193  22.208  0.00  0.00    +0.000 OA
ATOM     13  N   UNL     1      -2.655  16.144  23.735  0.00  0.00    +0.000 N 
ATOM     14  C   UNL     1      -1.587  16.920  24.341  0.00  0.00    +0.000 C 
ATOM     15  C   UNL     1      -3.946  16.372  24.238  0.00  0.00    +0.000 A 
ATOM     16  O   UNL     1      -4.144  17.210  25.120  0.00  0.00    +0.000 OA
ATOM     17  N   UNL     1      -4.984  15.622  23.687  0.00  0.00    +0.000 N 
ATOM     18  C   UNL     1      -6.349  15.828  24.135  0.00  0.00    +0.000 C 
ATOM     19  N   UNL     1      -3.575  13.583  21.215  0.00  0.00    +0.000 N 
ATOM     20  C   UNL     1      -5.489  12.846  18.807  0.00  0.00    +0.000 C 
ENDROOT
BRANCH  19  21
ATOM     21  C   UNL     1      -2.508  13.120  20.332  0.00  0.00    +0.000 C 
BRANCH  21  22
ATOM     22  C   UNL     1      -1.693  11.909  20.792  0.00  0.00    +0.000 C 
BRANCH  22  23
ATOM     23  S   UNL     1       0.115  12.187  20.666  0.00  0.00    +0.000 S 
BRANCH  23  24
ATOM     24  C   UNL     1       0.757  10.597  20.275  0.00  0.00    +0.000 A 
ATOM     25  N   UNL     1       1.187  10.289  19.073  0.00  0.00    +0.000 NA
ATOM     26  C   UNL     1       1.629   8.968  19.056  0.00  0.00    +0.000 A 
ATOM     27  C   UNL     1       2.205   8.293  17.959  0.00  0.00    +0.000 A 
ATOM     28  C   UNL     1       2.679   6.983  18.105  0.00  0.00    +0.000 A 
ATOM     29  C   UNL     1       2.557   6.323  19.323  0.00  0.00    +0.000 A 
ATOM     30  C   UNL     1       1.942   6.947  20.415  0.00  0.00    +0.000 A 
ATOM     31  C   UNL     1       1.493   8.274  20.262  0.00  0.00    +0.000 A 
ATOM     32  S   UNL     1       0.736   9.311  21.411  0.00  0.00    +0.000 S 
ENDBRANCH  23  24
ENDBRANCH  22  23
ENDBRANCH  21  22
ENDBRANCH  19  21
TORSDOF 4
ENDMDL
MODEL 5
REMARK VINA RESULT:      -7.0      4.663      8.066
REMARK  Name = 
REMARK  7 active torsions:
REMARK  status: ('A' for Active; 'I' for Inactive)
REMARK    1  A    between atoms: C_1  and  C_2
REMARK    2  A    between atoms: N_13  and  C_14
REMARK    3  A    between atoms: N_17  and  C_18
REMARK    4  A    between atoms: N_19  and  C_20
REMARK    5  A    between atoms: C_20  and  C_21
REMARK    6  A    between atoms: C_21  and  S_22
REMARK    7  A    between atoms: S_22  and  C_23
REMARK                            x       y       z     vdW  Elec       q    Type
REMARK                         _______ _______ _______ _____ _____    ______ ____
ROOT
ATOM      1  C   UNL     1      -1.144   9.675  17.465  0.00  0.00    +0.000 C 
ATOM      2  C   UNL     1      -1.986  10.764  16.791  0.00  0.00    +0.000 C 
ATOM      3  C   UNL     1      -3.344  10.211  16.323  0.00  0.00    +0.000 C 
ATOM      4  C   UNL     1      -4.360  10.065  17.461  0.00  0.00    +0.000 C 
ATOM      5  C   UNL     1      -4.410  11.310  18.355  0.00  0.00    +0.000 C 
ATOM      6  N   UNL     1      -3.045  11.593  18.848  0.00  0.00    +0.000 N 
ATOM      7  C   UNL     1      -2.955  12.346  19.985  0.00  0.00    +0.000 A 
ATOM      8  N   UNL     1      -3.881  13.169  20.450  0.00  0.00    +0.000 NA
ATOM      9  C   UNL     1      -3.337  13.730  21.556  0.00  0.00    +0.000 A 
ATOM     10  C   UNL     1      -2.103  13.238  21.839  0.00  0.00    +0.000 A 
ATOM     11  C   UNL     1      -1.322  13.700  22.938  0.00  0.00    +0.000 A 
ATOM     12  O   UNL     1      -0.180  13.311  23.169  0.00  0.00    +0.000 OA
ATOM     13  N   UNL     1      -1.981  14.650  23.721  0.00  0.00    +0.000 N 
ATOM     14  C   UNL     1      -1.305  15.158  24.901  0.00  0.00    +0.000 C 
ATOM     15  C   UNL     1      -3.237  15.211  23.439  0.00  0.00    +0.000 A 
ATOM     16  O   UNL     1      -3.706  16.105  24.147  0.00  0.00    +0.000 OA
ATOM     17  N   UNL     1      -3.915  14.723  22.323  0.00  0.00    +0.000 N 
ATOM     18  C   UNL     1      -5.203  15.279  21.953  0.00  0.00    +0.000 C 
ATOM     19  N   UNL     1      -1.856  12.306  20.850  0.00  0.00    +0.000 N 
ATOM     20  C   UNL     1      -2.170  11.979  17.719  0.00  0.00    +0.000 C 
ENDROOT
BRANCH  19  21
ATOM     21  C   UNL     1      -0.614  11.559  20.667  0.00  0.00    +0.000 C 
BRANCH  21  22
ATOM     22  C   UNL     1      -0.613  10.087  21.084  0.00  0.00    +0.000 C 
BRANCH  22  23
ATOM     23  S   UNL     1       1.000   9.548  21.768  0.00  0.00    +0.000 S 
BRANCH  23  24
ATOM     24  C   UNL     1       1.395   8.114  20.830  0.00  0.00    +0.000 A 
ATOM     25  N   UNL     1       1.326   6.903  21.334  0.00  0.00    +0.000 NA
ATOM     26  C   UNL     1       1.701   5.971  20.370  0.00  0.00    +0.000 A 
ATOM     27  C   UNL     1       1.706   4.568  20.521  0.00  0.00    +0.000 A 
ATOM     28  C   UNL     1       2.034   3.741  19.439  0.00  0.00    +0.000 A 
ATOM     29  C   UNL     1       2.387   4.295  18.213  0.00  0.00    +0.000 A 
ATOM     30  C   UNL     1       2.442   5.684  18.047  0.00  0.00    +0.000 A 
ATOM     31  C   UNL     1       2.087   6.503  19.136  0.00  0.00    +0.000 A 
ATOM     32  S   UNL     1       2.023   8.223  19.236  0.00  0.00    +0.000 S 
ENDBRANCH  23  24
ENDBRANCH  22  23
ENDBRANCH  21  22
ENDBRANCH  19  21
TORSDOF 4
ENDMDL
MODEL 6
REMARK VINA RESULT:      -6.9      8.232     11.189
REMARK  Name = 
REMARK  7 active torsions:
REMARK  status: ('A' for Active; 'I' for Inactive)
REMARK    1  A    between atoms: C_1  and  C_2
REMARK    2  A    between atoms: N_13  and  C_14
REMARK    3  A    between atoms: N_17  and  C_18
REMARK    4  A    between atoms: N_19  and  C_20
REMARK    5  A    between atoms: C_20  and  C_21
REMARK    6  A    between atoms: C_21  and  S_22
REMARK    7  A    between atoms: S_22  and  C_23
REMARK                            x       y       z     vdW  Elec       q    Type
REMARK                         _______ _______ _______ _____ _____    ______ ____
ROOT
ATOM      1  C   UNL     1       1.642  15.267  22.127  0.00  0.00    +0.000 C 
ATOM      2  C   UNL     1       0.996  16.647  21.959  0.00  0.00    +0.000 C 
ATOM      3  C   UNL     1       1.246  17.213  20.550  0.00  0.00    +0.000 C 
ATOM      4  C   UNL     1       0.328  16.603  19.484  0.00  0.00    +0.000 C 
ATOM      5  C   UNL     1      -1.135  16.550  19.942  0.00  0.00    +0.000 C 
ATOM      6  N   UNL     1      -1.202  15.825  21.228  0.00  0.00    +0.000 N 
ATOM      7  C   UNL     1      -2.413  15.282  21.556  0.00  0.00    +0.000 A 
ATOM      8  N   UNL     1      -3.589  15.661  21.086  0.00  0.00    +0.000 NA
ATOM      9  C   UNL     1      -4.496  14.884  21.726  0.00  0.00    +0.000 A 
ATOM     10  C   UNL     1      -3.917  13.977  22.553  0.00  0.00    +0.000 A 
ATOM     11  C   UNL     1      -4.671  13.073  23.355  0.00  0.00    +0.000 A 
ATOM     12  O   UNL     1      -4.164  12.291  24.155  0.00  0.00    +0.000 OA
ATOM     13  N   UNL     1      -6.049  13.172  23.149  0.00  0.00    +0.000 N 
ATOM     14  C   UNL     1      -6.920  12.264  23.873  0.00  0.00    +0.000 C 
ATOM     15  C   UNL     1      -6.686  14.121  22.335  0.00  0.00    +0.000 A 
ATOM     16  O   UNL     1      -7.916  14.184  22.277  0.00  0.00    +0.000 OA
ATOM     17  N   UNL     1      -5.868  14.990  21.612  0.00  0.00    +0.000 N 
ATOM     18  C   UNL     1      -6.459  16.018  20.775  0.00  0.00    +0.000 C 
ATOM     19  N   UNL     1      -2.559  14.194  22.424  0.00  0.00    +0.000 N 
ATOM     20  C   UNL     1      -0.508  16.599  22.282  0.00  0.00    +0.000 C 
ENDROOT
BRANCH  19  21
ATOM     21  C   UNL     1      -1.507  13.520  23.182  0.00  0.00    +0.000 C 
BRANCH  21  22
ATOM     22  C   UNL     1      -1.087  12.126  22.711  0.00  0.00    +0.000 C 
BRANCH  22  23
ATOM     23  S   UNL     1       0.076  12.181  21.295  0.00  0.00    +0.000 S 
BRANCH  23  24
ATOM     24  C   UNL     1      -0.898  11.648  19.931  0.00  0.00    +0.000 A 
ATOM     25  N   UNL     1      -2.137  12.047  19.754  0.00  0.00    +0.000 NA
ATOM     26  C   UNL     1      -2.658  11.462  18.603  0.00  0.00    +0.000 A 
ATOM     27  C   UNL     1      -3.940  11.686  18.059  0.00  0.00    +0.000 A 
ATOM     28  C   UNL     1      -4.309  11.087  16.847  0.00  0.00    +0.000 A 
ATOM     29  C   UNL     1      -3.426  10.242  16.184  0.00  0.00    +0.000 A 
ATOM     30  C   UNL     1      -2.167   9.958  16.725  0.00  0.00    +0.000 A 
ATOM     31  C   UNL     1      -1.800  10.586  17.932  0.00  0.00    +0.000 A 
ATOM     32  S   UNL     1      -0.328  10.469  18.821  0.00  0.00    +0.000 S 
ENDBRANCH  23  24
ENDBRANCH  22  23
ENDBRANCH  21  22
ENDBRANCH  19  21
TORSDOF 4
ENDMDL
MODEL 7
REMARK VINA RESULT:      -6.8      4.902      9.016
REMARK  Name = 
REMARK  7 active torsions:
REMARK  status: ('A' for Active; 'I' for Inactive)
REMARK    1  A    between atoms: C_1  and  C_2
REMARK    2  A    between atoms: N_13  and  C_14
REMARK    3  A    between atoms: N_17  and  C_18
REMARK    4  A    between atoms: N_19  and  C_20
REMARK    5  A    between atoms: C_20  and  C_21
REMARK    6  A    between atoms: C_21  and  S_22
REMARK    7  A    between atoms: S_22  and  C_23
REMARK                            x       y       z     vdW  Elec       q    Type
REMARK                         _______ _______ _______ _____ _____    ______ ____
ROOT
ATOM      1  C   UNL     1      -2.649  12.236  23.049  0.00  0.00    +0.000 C 
ATOM      2  C   UNL     1      -3.574  12.625  21.890  0.00  0.00    +0.000 C 
ATOM      3  C   UNL     1      -4.722  13.531  22.372  0.00  0.00    +0.000 C 
ATOM      4  C   UNL     1      -4.294  14.987  22.579  0.00  0.00    +0.000 C 
ATOM      5  C   UNL     1      -3.460  15.519  21.406  0.00  0.00    +0.000 C 
ATOM      6  N   UNL     1      -2.310  14.615  21.196  0.00  0.00    +0.000 N 
ATOM      7  C   UNL     1      -1.236  15.144  20.535  0.00  0.00    +0.000 A 
ATOM      8  N   UNL     1      -1.257  16.191  19.728  0.00  0.00    +0.000 NA
ATOM      9  C   UNL     1       0.011  16.313  19.268  0.00  0.00    +0.000 A 
ATOM     10  C   UNL     1       0.854  15.397  19.811  0.00  0.00    +0.000 A 
ATOM     11  C   UNL     1       2.231  15.310  19.455  0.00  0.00    +0.000 A 
ATOM     12  O   UNL     1       2.991  14.448  19.889  0.00  0.00    +0.000 OA
ATOM     13  N   UNL     1       2.630  16.298  18.552  0.00  0.00    +0.000 N 
ATOM     14  C   UNL     1       4.026  16.344  18.154  0.00  0.00    +0.000 C 
ATOM     15  C   UNL     1       1.782  17.235  17.940  0.00  0.00    +0.000 A 
ATOM     16  O   UNL     1       2.211  18.020  17.092  0.00  0.00    +0.000 OA
ATOM     17  N   UNL     1       0.441  17.224  18.323  0.00  0.00    +0.000 N 
ATOM     18  C   UNL     1      -0.500  18.142  17.708  0.00  0.00    +0.000 C 
ATOM     19  N   UNL     1       0.068  14.654  20.670  0.00  0.00    +0.000 N 
ATOM     20  C   UNL     1      -2.784  13.288  20.747  0.00  0.00    +0.000 C 
ENDROOT
BRANCH  19  21
ATOM     21  C   UNL     1       0.499  13.485  21.432  0.00  0.00    +0.000 C 
BRANCH  21  22
ATOM     22  C   UNL     1       1.002  12.277  20.639  0.00  0.00    +0.000 C 
BRANCH  22  23
ATOM     23  S   UNL     1      -0.124  10.836  20.758  0.00  0.00    +0.000 S 
BRANCH  23  24
ATOM     24  C   UNL     1       0.855   9.490  20.189  0.00  0.00    +0.000 A 
ATOM     25  N   UNL     1       1.368   9.456  18.980  0.00  0.00    +0.000 NA
ATOM     26  C   UNL     1       2.084   8.274  18.808  0.00  0.00    +0.000 A 
ATOM     27  C   UNL     1       2.817   7.901  17.661  0.00  0.00    +0.000 A 
ATOM     28  C   UNL     1       3.558   6.712  17.651  0.00  0.00    +0.000 A 
ATOM     29  C   UNL     1       3.555   5.873  18.760  0.00  0.00    +0.000 A 
ATOM     30  C   UNL     1       2.795   6.190  19.892  0.00  0.00    +0.000 A 
ATOM     31  C   UNL     1       2.074   7.400  19.898  0.00  0.00    +0.000 A 
ATOM     32  S   UNL     1       1.086   8.077  21.136  0.00  0.00    +0.000 S 
ENDBRANCH  23  24
ENDBRANCH  22  23
ENDBRANCH  21  22
ENDBRANCH  19  21
TORSDOF 4
ENDMDL
MODEL 8
REMARK VINA RESULT:      -6.8      6.165      9.550
REMARK  Name = 
REMARK  7 active torsions:
REMARK  status: ('A' for Active; 'I' for Inactive)
REMARK    1  A    between atoms: C_1  and  C_2
REMARK    2  A    between atoms: N_13  and  C_14
REMARK    3  A    between atoms: N_17  and  C_18
REMARK    4  A    between atoms: N_19  and  C_20
REMARK    5  A    between atoms: C_20  and  C_21
REMARK    6  A    between atoms: C_21  and  S_22
REMARK    7  A    between atoms: S_22  and  C_23
REMARK                            x       y       z     vdW  Elec       q    Type
REMARK                         _______ _______ _______ _____ _____    ______ ____
ROOT
ATOM      1  C   UNL     1      -4.216  10.970  17.830  0.00  0.00    +0.000 C 
ATOM      2  C   UNL     1      -5.530  11.760  17.839  0.00  0.00    +0.000 C 
ATOM      3  C   UNL     1      -6.719  10.863  18.225  0.00  0.00    +0.000 C 
ATOM      4  C   UNL     1      -6.813  10.602  19.732  0.00  0.00    +0.000 C 
ATOM      5  C   UNL     1      -6.640  11.885  20.554  0.00  0.00    +0.000 C 
ATOM      6  N   UNL     1      -5.364  12.525  20.169  0.00  0.00    +0.000 N 
ATOM      7  C   UNL     1      -4.821  13.389  21.079  0.00  0.00    +0.000 A 
ATOM      8  N   UNL     1      -5.474  14.018  22.042  0.00  0.00    +0.000 NA
ATOM      9  C   UNL     1      -4.548  14.798  22.650  0.00  0.00    +0.000 A 
ATOM     10  C   UNL     1      -3.305  14.637  22.128  0.00  0.00    +0.000 A 
ATOM     11  C   UNL     1      -2.175  15.376  22.585  0.00  0.00    +0.000 A 
ATOM     12  O   UNL     1      -1.058  15.287  22.082  0.00  0.00    +0.000 OA
ATOM     13  N   UNL     1      -2.467  16.221  23.658  0.00  0.00    +0.000 N 
ATOM     14  C   UNL     1      -1.383  16.988  24.245  0.00  0.00    +0.000 C 
ATOM     15  C   UNL     1      -3.744  16.444  24.197  0.00  0.00    +0.000 A 
ATOM     16  O   UNL     1      -3.918  17.271  25.094  0.00  0.00    +0.000 OA
ATOM     17  N   UNL     1      -4.798  15.702  23.664  0.00  0.00    +0.000 N 
ATOM     18  C   UNL     1      -6.150  15.904  24.150  0.00  0.00    +0.000 C 
ATOM     19  N   UNL     1      -3.456  13.693  21.132  0.00  0.00    +0.000 N 
ATOM     20  C   UNL     1      -5.433  12.987  18.766  0.00  0.00    +0.000 C 
ENDROOT
BRANCH  19  21
ATOM     21  C   UNL     1      -2.413  13.239  20.215  0.00  0.00    +0.000 C 
BRANCH  21  22
ATOM     22  C   UNL     1      -1.825  11.847  20.455  0.00  0.00    +0.000 C 
BRANCH  22  23
ATOM     23  S   UNL     1      -0.098  11.906  21.067  0.00  0.00    +0.000 S 
BRANCH  23  24
ATOM     24  C   UNL     1       0.660  10.506  20.321  0.00  0.00    +0.000 A 
ATOM     25  N   UNL     1       0.917   9.405  20.990  0.00  0.00    +0.000 NA
ATOM     26  C   UNL     1       1.521   8.475  20.149  0.00  0.00    +0.000 A 
ATOM     27  C   UNL     1       1.900   7.159  20.493  0.00  0.00    +0.000 A 
ATOM     28  C   UNL     1       2.432   6.300  19.522  0.00  0.00    +0.000 A 
ATOM     29  C   UNL     1       2.621   6.745  18.218  0.00  0.00    +0.000 A 
ATOM     30  C   UNL     1       2.305   8.060  17.860  0.00  0.00    +0.000 A 
ATOM     31  C   UNL     1       1.748   8.906  18.839  0.00  0.00    +0.000 A 
ATOM     32  S   UNL     1       1.231  10.544  18.702  0.00  0.00    +0.000 S 
ENDBRANCH  23  24
ENDBRANCH  22  23
ENDBRANCH  21  22
ENDBRANCH  19  21
TORSDOF 4
ENDMDL
MODEL 9
REMARK VINA RESULT:      -6.8      5.310      9.447
REMARK  Name = 
REMARK  7 active torsions:
REMARK  status: ('A' for Active; 'I' for Inactive)
REMARK    1  A    between atoms: C_1  and  C_2
REMARK    2  A    between atoms: N_13  and  C_14
REMARK    3  A    between atoms: N_17  and  C_18
REMARK    4  A    between atoms: N_19  and  C_20
REMARK    5  A    between atoms: C_20  and  C_21
REMARK    6  A    between atoms: C_21  and  S_22
REMARK    7  A    between atoms: S_22  and  C_23
REMARK                            x       y       z     vdW  Elec       q    Type
REMARK                         _______ _______ _______ _____ _____    ______ ____
ROOT
ATOM      1  C   UNL     1       2.137  13.314  20.904  0.00  0.00    +0.000 C 
ATOM      2  C   UNL     1       1.978  14.832  21.049  0.00  0.00    +0.000 C 
ATOM      3  C   UNL     1       2.158  15.544  19.697  0.00  0.00    +0.000 C 
ATOM      4  C   UNL     1       0.920  15.454  18.799  0.00  0.00    +0.000 C 
ATOM      5  C   UNL     1      -0.373  15.769  19.561  0.00  0.00    +0.000 C 
ATOM      6  N   UNL     1      -0.460  14.875  20.735  0.00  0.00    +0.000 N 
ATOM      7  C   UNL     1      -1.708  14.679  21.258  0.00  0.00    +0.000 A 
ATOM      8  N   UNL     1      -2.749  15.482  21.110  0.00  0.00    +0.000 NA
ATOM      9  C   UNL     1      -3.741  14.917  21.839  0.00  0.00    +0.000 A 
ATOM     10  C   UNL     1      -3.370  13.739  22.403  0.00  0.00    +0.000 A 
ATOM     11  C   UNL     1      -4.236  12.978  23.240  0.00  0.00    +0.000 A 
ATOM     12  O   UNL     1      -3.895  11.944  23.808  0.00  0.00    +0.000 OA
ATOM     13  N   UNL     1      -5.513  13.532  23.359  0.00  0.00    +0.000 N 
ATOM     14  C   UNL     1      -6.502  12.818  24.147  0.00  0.00    +0.000 C 
ATOM     15  C   UNL     1      -5.921  14.765  22.826  0.00  0.00    +0.000 A 
ATOM     16  O   UNL     1      -7.047  15.211  23.051  0.00  0.00    +0.000 OA
ATOM     17  N   UNL     1      -4.994  15.458  22.047  0.00  0.00    +0.000 N 
ATOM     18  C   UNL     1      -5.336  16.754  21.490  0.00  0.00    +0.000 C 
ATOM     19  N   UNL     1      -2.062  13.548  22.001  0.00  0.00    +0.000 N 
ATOM     20  C   UNL     1       0.624  15.189  21.691  0.00  0.00    +0.000 C 
ENDROOT
BRANCH  19  21
ATOM     21  C   UNL     1      -1.188  12.456  22.420  0.00  0.00    +0.000 C 
BRANCH  21  22
ATOM     22  C   UNL     1      -1.028  11.276  21.458  0.00  0.00    +0.000 C 
BRANCH  22  23
ATOM     23  S   UNL     1      -0.320   9.794  22.272  0.00  0.00    +0.000 S 
BRANCH  23  24
ATOM     24  C   UNL     1       0.662   9.054  21.013  0.00  0.00    +0.000 A 
ATOM     25  N   UNL     1       1.263   7.898  21.180  0.00  0.00    +0.000 NA
ATOM     26  C   UNL     1       1.970   7.567  20.026  0.00  0.00    +0.000 A 
ATOM     27  C   UNL     1       2.701   6.380  19.806  0.00  0.00    +0.000 A 
ATOM     28  C   UNL     1       3.303   6.141  18.564  0.00  0.00    +0.000 A 
ATOM     29  C   UNL     1       3.212   7.083  17.545  0.00  0.00    +0.000 A 
ATOM     30  C   UNL     1       2.539   8.293  17.751  0.00  0.00    +0.000 A 
ATOM     31  C   UNL     1       1.918   8.511  18.996  0.00  0.00    +0.000 A 
ATOM     32  S   UNL     1       0.999   9.865  19.538  0.00  0.00    +0.000 S 
ENDBRANCH  23  24
ENDBRANCH  22  23
ENDBRANCH  21  22
ENDBRANCH  19  21
TORSDOF 4
ENDMDL
