MODEL 1
REMARK VINA RESULT:      -7.2      0.000      0.000
REMARK  Name = 
REMARK  8 active torsions:
REMARK  status: ('A' for Active; 'I' for Inactive)
REMARK    1  A    between atoms: C_1  and  O_2
REMARK    2  A    between atoms: O_2  and  C_3
REMARK    3  A    between atoms: C_6  and  C_7
REMARK    4  A    between atoms: C_7  and  C_8
REMARK    5  A    between atoms: C_7  and  C_11
REMARK    6  A    between atoms: C_8  and  C_9
REMARK    7  A    between atoms: C_9  and  N_10
REMARK    8  A    between atoms: C_11  and  C_12
REMARK                            x       y       z     vdW  Elec       q    Type
REMARK                         _______ _______ _______ _____ _____    ______ ____
ROOT
ATOM      1  C   UNL     1       3.381   6.379  18.108  0.00  0.00    +0.000 C 
ENDROOT
BRANCH   1   5
ATOM      2  C   UNL     1       5.956   4.417  15.187  0.00  0.00    +0.000 A 
ATOM      3  C   UNL     1       5.757   5.797  15.159  0.00  0.00    +0.000 A 
ATOM      4  C   UNL     1       4.950   6.422  16.116  0.00  0.00    +0.000 A 
ATOM      5  C   UNL     1       4.303   5.673  17.111  0.00  0.00    +0.000 A 
ATOM      6  C   UNL     1       4.489   4.283  17.110  0.00  0.00    +0.000 A 
ATOM      7  C   UNL     1       5.319   3.662  16.169  0.00  0.00    +0.000 A 
BRANCH   2   9
ATOM      8  C   UNL     1       6.091   3.629  12.956  0.00  0.00    +0.000 C 
ATOM      9  O   UNL     1       6.744   3.919  14.186  0.00  0.00    +0.000 OA
ENDBRANCH   2   9
ENDBRANCH   1   5
BRANCH   1  10
ATOM     10  C   UNL     1       3.311   7.882  17.730  0.00  0.00    +0.000 C 
BRANCH  10  11
ATOM     11  C   UNL     1       1.914   8.495  17.871  0.00  0.00    +0.000 C 
BRANCH  11  12
ATOM     12  N   UNL     1       1.936   9.912  17.526  0.00  0.00    +0.000 NA
ATOM     13  H   UNL     1       1.755  10.476  18.355  0.00  0.00    +0.000 HD
ATOM     14  H   UNL     1       1.181  10.113  16.870  0.00  0.00    +0.000 HD
ENDBRANCH  11  12
ENDBRANCH  10  11
ENDBRANCH   1  10
BRANCH   1  15
ATOM     15  C   UNL     1       1.962   5.760  18.230  0.00  0.00    +0.000 C 
BRANCH  15  16
ATOM     16  C   UNL     1       1.805   4.664  19.259  0.00  0.00    +0.000 A 
ATOM     17  C   UNL     1       1.269   3.420  18.907  0.00  0.00    +0.000 A 
ATOM     18  C   UNL     1       1.168   2.401  19.854  0.00  0.00    +0.000 A 
ATOM     19  C   UNL     1       1.600   2.613  21.162  0.00  0.00    +0.000 A 
ATOM     20  C   UNL     1       2.140   3.847  21.522  0.00  0.00    +0.000 A 
ATOM     21  C   UNL     1       2.245   4.865  20.575  0.00  0.00    +0.000 A 
ENDBRANCH  15  16
ENDBRANCH   1  15
TORSDOF 7
ENDMDL
MODEL 2
REMARK VINA RESULT:      -7.0      2.674      6.715
REMARK  Name = 
REMARK  8 active torsions:
REMARK  status: ('A' for Active; 'I' for Inactive)
REMARK    1  A    between atoms: C_1  and  O_2
REMARK    2  A    between atoms: O_2  and  C_3
REMARK    3  A    between atoms: C_6  and  C_7
REMARK    4  A    between atoms: C_7  and  C_8
REMARK    5  A    between atoms: C_7  and  C_11
REMARK    6  A    between atoms: C_8  and  C_9
REMARK    7  A    between atoms: C_9  and  N_10
REMARK    8  A    between atoms: C_11  and  C_12
REMARK                            x       y       z     vdW  Elec       q    Type
REMARK                         _______ _______ _______ _____ _____    ______ ____
ROOT
ATOM      1  C   UNL     1       4.798   5.223  16.293  0.00  0.00    +0.000 C 
ENDROOT
BRANCH   1   5
ATOM      2  C   UNL     1       2.090   3.253  19.086  0.00  0.00    +0.000 A 
ATOM      3  C   UNL     1       3.058   2.529  18.391  0.00  0.00    +0.000 A 
ATOM      4  C   UNL     1       3.941   3.174  17.516  0.00  0.00    +0.000 A 
ATOM      5  C   UNL     1       3.857   4.557  17.300  0.00  0.00    +0.000 A 
ATOM      6  C   UNL     1       2.860   5.268  17.983  0.00  0.00    +0.000 A 
ATOM      7  C   UNL     1       1.995   4.627  18.879  0.00  0.00    +0.000 A 
BRANCH   2   9
ATOM      8  C   UNL     1       1.322   2.803  21.282  0.00  0.00    +0.000 C 
ATOM      9  O   UNL     1       1.271   2.511  19.891  0.00  0.00    +0.000 OA
ENDBRANCH   2   9
ENDBRANCH   1   5
BRANCH   1  10
ATOM     10  C   UNL     1       5.202   6.615  16.848  0.00  0.00    +0.000 C 
BRANCH  10  11
ATOM     11  C   UNL     1       6.543   6.625  17.589  0.00  0.00    +0.000 C 
BRANCH  11  12
ATOM     12  N   UNL     1       7.470   7.562  16.963  0.00  0.00    +0.000 NA
ATOM     13  H   UNL     1       7.877   8.174  17.668  0.00  0.00    +0.000 HD
ATOM     14  H   UNL     1       6.959   8.165  16.318  0.00  0.00    +0.000 HD
ENDBRANCH  11  12
ENDBRANCH  10  11
ENDBRANCH   1  10
BRANCH   1  15
ATOM     15  C   UNL     1       6.047   4.382  15.917  0.00  0.00    +0.000 C 
BRANCH  15  16
ATOM     16  C   UNL     1       6.424   4.376  14.454  0.00  0.00    +0.000 A 
ATOM     17  C   UNL     1       7.456   5.190  13.974  0.00  0.00    +0.000 A 
ATOM     18  C   UNL     1       7.824   5.146  12.630  0.00  0.00    +0.000 A 
ATOM     19  C   UNL     1       7.166   4.288  11.749  0.00  0.00    +0.000 A 
ATOM     20  C   UNL     1       6.140   3.469  12.218  0.00  0.00    +0.000 A 
ATOM     21  C   UNL     1       5.774   3.510  13.563  0.00  0.00    +0.000 A 
ENDBRANCH  15  16
ENDBRANCH   1  15
TORSDOF 7
ENDMDL
MODEL 3
REMARK VINA RESULT:      -6.9      2.707      6.592
REMARK  Name = 
REMARK  8 active torsions:
REMARK  status: ('A' for Active; 'I' for Inactive)
REMARK    1  A    between atoms: C_1  and  O_2
REMARK    2  A    between atoms: O_2  and  C_3
REMARK    3  A    between atoms: C_6  and  C_7
REMARK    4  A    between atoms: C_7  and  C_8
REMARK    5  A    between atoms: C_7  and  C_11
REMARK    6  A    between atoms: C_8  and  C_9
REMARK    7  A    between atoms: C_9  and  N_10
REMARK    8  A    between atoms: C_11  and  C_12
REMARK                            x       y       z     vdW  Elec       q    Type
REMARK                         _______ _______ _______ _____ _____    ______ ____
ROOT
ATOM      1  C   UNL     1       4.771   5.109  16.325  0.00  0.00    +0.000 C 
ENDROOT
BRANCH   1   5
ATOM      2  C   UNL     1       1.898   3.250  19.026  0.00  0.00    +0.000 A 
ATOM      3  C   UNL     1       1.890   4.626  18.805  0.00  0.00    +0.000 A 
ATOM      4  C   UNL     1       2.799   5.212  17.915  0.00  0.00    +0.000 A 
ATOM      5  C   UNL     1       3.754   4.432  17.246  0.00  0.00    +0.000 A 
ATOM      6  C   UNL     1       3.769   3.053  17.501  0.00  0.00    +0.000 A 
ATOM      7  C   UNL     1       2.842   2.464  18.369  0.00  0.00    +0.000 A 
BRANCH   2   9
ATOM      8  C   UNL     1       1.405   2.756  21.292  0.00  0.00    +0.000 C 
ATOM      9  O   UNL     1       0.980   2.798  19.935  0.00  0.00    +0.000 OA
ENDBRANCH   2   9
ENDBRANCH   1   5
BRANCH   1  10
ATOM     10  C   UNL     1       5.195   6.455  16.970  0.00  0.00    +0.000 C 
BRANCH  10  11
ATOM     11  C   UNL     1       6.613   6.449  17.550  0.00  0.00    +0.000 C 
BRANCH  11  12
ATOM     12  N   UNL     1       7.414   7.517  16.963  0.00  0.00    +0.000 NA
ATOM     13  H   UNL     1       8.299   7.143  16.624  0.00  0.00    +0.000 HD
ATOM     14  H   UNL     1       7.646   8.202  17.682  0.00  0.00    +0.000 HD
ENDBRANCH  11  12
ENDBRANCH  10  11
ENDBRANCH   1  10
BRANCH   1  15
ATOM     15  C   UNL     1       6.007   4.239  15.972  0.00  0.00    +0.000 C 
BRANCH  15  16
ATOM     16  C   UNL     1       6.434   4.255  14.522  0.00  0.00    +0.000 A 
ATOM     17  C   UNL     1       5.788   3.454  13.574  0.00  0.00    +0.000 A 
ATOM     18  C   UNL     1       6.161   3.508  12.231  0.00  0.00    +0.000 A 
ATOM     19  C   UNL     1       7.184   4.362  11.820  0.00  0.00    +0.000 A 
ATOM     20  C   UNL     1       7.831   5.168  12.755  0.00  0.00    +0.000 A 
ATOM     21  C   UNL     1       7.455   5.118  14.098  0.00  0.00    +0.000 A 
ENDBRANCH  15  16
ENDBRANCH   1  15
TORSDOF 7
ENDMDL
MODEL 4
REMARK VINA RESULT:      -6.9      3.621      6.436
REMARK  Name = 
REMARK  8 active torsions:
REMARK  status: ('A' for Active; 'I' for Inactive)
REMARK    1  A    between atoms: C_1  and  O_2
REMARK    2  A    between atoms: O_2  and  C_3
REMARK    3  A    between atoms: C_6  and  C_7
REMARK    4  A    between atoms: C_7  and  C_8
REMARK    5  A    between atoms: C_7  and  C_11
REMARK    6  A    between atoms: C_8  and  C_9
REMARK    7  A    between atoms: C_9  and  N_10
REMARK    8  A    between atoms: C_11  and  C_12
REMARK                            x       y       z     vdW  Elec       q    Type
REMARK                         _______ _______ _______ _____ _____    ______ ____
ROOT
ATOM      1  C   UNL     1       2.973   5.060  18.252  0.00  0.00    +0.000 C 
ENDROOT
BRANCH   1   5
ATOM      2  C   UNL     1       1.512   8.939  19.604  0.00  0.00    +0.000 A 
ATOM      3  C   UNL     1       1.611   7.862  20.483  0.00  0.00    +0.000 A 
ATOM      4  C   UNL     1       2.106   6.627  20.047  0.00  0.00    +0.000 A 
ATOM      5  C   UNL     1       2.491   6.438  18.712  0.00  0.00    +0.000 A 
ATOM      6  C   UNL     1       2.359   7.522  17.832  0.00  0.00    +0.000 A 
ATOM      7  C   UNL     1       1.891   8.764  18.275  0.00  0.00    +0.000 A 
BRANCH   2   9
ATOM      8  C   UNL     1       0.815  11.175  19.242  0.00  0.00    +0.000 C 
ATOM      9  O   UNL     1       0.991  10.085  20.139  0.00  0.00    +0.000 OA
ENDBRANCH   2   9
ENDBRANCH   1   5
BRANCH   1  10
ATOM     10  C   UNL     1       1.754   4.272  17.706  0.00  0.00    +0.000 C 
BRANCH  10  11
ATOM     11  C   UNL     1       1.519   2.927  18.401  0.00  0.00    +0.000 C 
BRANCH  11  12
ATOM     12  N   UNL     1       2.369   1.892  17.822  0.00  0.00    +0.000 NA
ATOM     13  H   UNL     1       2.336   1.051  18.396  0.00  0.00    +0.000 HD
ATOM     14  H   UNL     1       3.339   2.207  17.827  0.00  0.00    +0.000 HD
ENDBRANCH  11  12
ENDBRANCH  10  11
ENDBRANCH   1  10
BRANCH   1  15
ATOM     15  C   UNL     1       4.134   5.088  17.222  0.00  0.00    +0.000 C 
BRANCH  15  16
ATOM     16  C   UNL     1       5.444   5.657  17.718  0.00  0.00    +0.000 A 
ATOM     17  C   UNL     1       6.063   5.142  18.863  0.00  0.00    +0.000 A 
ATOM     18  C   UNL     1       7.293   5.645  19.288  0.00  0.00    +0.000 A 
ATOM     19  C   UNL     1       7.918   6.667  18.574  0.00  0.00    +0.000 A 
ATOM     20  C   UNL     1       7.312   7.183  17.430  0.00  0.00    +0.000 A 
ATOM     21  C   UNL     1       6.084   6.678  17.002  0.00  0.00    +0.000 A 
ENDBRANCH  15  16
ENDBRANCH   1  15
TORSDOF 7
ENDMDL
MODEL 5
REMARK VINA RESULT:      -6.9      2.880      6.702
REMARK  Name = 
REMARK  8 active torsions:
REMARK  status: ('A' for Active; 'I' for Inactive)
REMARK    1  A    between atoms: C_1  and  O_2
REMARK    2  A    between atoms: O_2  and  C_3
REMARK    3  A    between atoms: C_6  and  C_7
REMARK    4  A    between atoms: C_7  and  C_8
REMARK    5  A    between atoms: C_7  and  C_11
REMARK    6  A    between atoms: C_8  and  C_9
REMARK    7  A    between atoms: C_9  and  N_10
REMARK    8  A    between atoms: C_11  and  C_12
REMARK                            x       y       z     vdW  Elec       q    Type
REMARK                         _______ _______ _______ _____ _____    ______ ____
ROOT
ATOM      1  C   UNL     1       6.113   5.759  16.741  0.00  0.00    +0.000 C 
ENDROOT
BRANCH   1   5
ATOM      2  C   UNL     1       2.248   4.325  18.163  0.00  0.00    +0.000 A 
ATOM      3  C   UNL     1       3.228   3.436  17.725  0.00  0.00    +0.000 A 
ATOM      4  C   UNL     1       4.476   3.903  17.295  0.00  0.00    +0.000 A 
ATOM      5  C   UNL     1       4.761   5.276  17.271  0.00  0.00    +0.000 A 
ATOM      6  C   UNL     1       3.755   6.161  17.687  0.00  0.00    +0.000 A 
ATOM      7  C   UNL     1       2.518   5.692  18.143  0.00  0.00    +0.000 A 
BRANCH   2   9
ATOM      8  C   UNL     1       0.878   3.535  19.928  0.00  0.00    +0.000 C 
ATOM      9  O   UNL     1       1.063   3.753  18.534  0.00  0.00    +0.000 OA
ENDBRANCH   2   9
ENDBRANCH   1   5
BRANCH   1  10
ATOM     10  C   UNL     1       6.860   6.482  17.893  0.00  0.00    +0.000 C 
BRANCH  10  11
ATOM     11  C   UNL     1       7.872   5.598  18.629  0.00  0.00    +0.000 C 
BRANCH  11  12
ATOM     12  N   UNL     1       7.592   5.579  20.061  0.00  0.00    +0.000 NA
ATOM     13  H   UNL     1       8.454   5.714  20.587  0.00  0.00    +0.000 HD
ATOM     14  H   UNL     1       7.234   4.661  20.324  0.00  0.00    +0.000 HD
ENDBRANCH  11  12
ENDBRANCH  10  11
ENDBRANCH   1  10
BRANCH   1  15
ATOM     15  C   UNL     1       6.994   4.651  16.104  0.00  0.00    +0.000 C 
BRANCH  15  16
ATOM     16  C   UNL     1       6.938   4.546  14.598  0.00  0.00    +0.000 A 
ATOM     17  C   UNL     1       7.781   5.320  13.792  0.00  0.00    +0.000 A 
ATOM     18  C   UNL     1       7.752   5.184  12.404  0.00  0.00    +0.000 A 
ATOM     19  C   UNL     1       6.881   4.275  11.806  0.00  0.00    +0.000 A 
ATOM     20  C   UNL     1       6.041   3.495  12.599  0.00  0.00    +0.000 A 
ATOM     21  C   UNL     1       6.072   3.627  13.987  0.00  0.00    +0.000 A 
ENDBRANCH  15  16
ENDBRANCH   1  15
TORSDOF 7
ENDMDL
MODEL 6
REMARK VINA RESULT:      -6.8      3.716      6.436
REMARK  Name = 
REMARK  8 active torsions:
REMARK  status: ('A' for Active; 'I' for Inactive)
REMARK    1  A    between atoms: C_1  and  O_2
REMARK    2  A    between atoms: O_2  and  C_3
REMARK    3  A    between atoms: C_6  and  C_7
REMARK    4  A    between atoms: C_7  and  C_8
REMARK    5  A    between atoms: C_7  and  C_11
REMARK    6  A    between atoms: C_8  and  C_9
REMARK    7  A    between atoms: C_9  and  N_10
REMARK    8  A    between atoms: C_11  and  C_12
REMARK                            x       y       z     vdW  Elec       q    Type
REMARK                         _______ _______ _______ _____ _____    ______ ____
ROOT
ATOM      1  C   UNL     1       3.132   5.184  18.353  0.00  0.00    +0.000 C 
ENDROOT
BRANCH   1   5
ATOM      2  C   UNL     1       1.429   9.009  19.570  0.00  0.00    +0.000 A 
ATOM      3  C   UNL     1       1.850   8.794  18.259  0.00  0.00    +0.000 A 
ATOM      4  C   UNL     1       2.371   7.554  17.870  0.00  0.00    +0.000 A 
ATOM      5  C   UNL     1       2.505   6.508  18.795  0.00  0.00    +0.000 A 
ATOM      6  C   UNL     1       2.104   6.748  20.118  0.00  0.00    +0.000 A 
ATOM      7  C   UNL     1       1.557   7.979  20.499  0.00  0.00    +0.000 A 
BRANCH   2   9
ATOM      8  C   UNL     1      -0.266  10.627  19.214  0.00  0.00    +0.000 C 
ATOM      9  O   UNL     1       0.962  10.267  19.836  0.00  0.00    +0.000 OA
ENDBRANCH   2   9
ENDBRANCH   1   5
BRANCH   1  10
ATOM     10  C   UNL     1       1.994   4.229  17.906  0.00  0.00    +0.000 C 
BRANCH  10  11
ATOM     11  C   UNL     1       2.483   2.862  17.419  0.00  0.00    +0.000 C 
BRANCH  11  12
ATOM     12  N   UNL     1       2.143   1.820  18.382  0.00  0.00    +0.000 NA
ATOM     13  H   UNL     1       2.943   1.207  18.531  0.00  0.00    +0.000 HD
ATOM     14  H   UNL     1       1.399   1.236  18.001  0.00  0.00    +0.000 HD
ENDBRANCH  11  12
ENDBRANCH  10  11
ENDBRANCH   1  10
BRANCH   1  15
ATOM     15  C   UNL     1       4.222   5.316  17.256  0.00  0.00    +0.000 C 
BRANCH  15  16
ATOM     16  C   UNL     1       5.573   5.809  17.722  0.00  0.00    +0.000 A 
ATOM     17  C   UNL     1       6.197   6.892  17.093  0.00  0.00    +0.000 A 
ATOM     18  C   UNL     1       7.424   7.367  17.557  0.00  0.00    +0.000 A 
ATOM     19  C   UNL     1       8.040   6.766  18.654  0.00  0.00    +0.000 A 
ATOM     20  C   UNL     1       7.424   5.690  19.291  0.00  0.00    +0.000 A 
ATOM     21  C   UNL     1       6.195   5.217  18.829  0.00  0.00    +0.000 A 
ENDBRANCH  15  16
ENDBRANCH   1  15
TORSDOF 7
ENDMDL
MODEL 7
REMARK VINA RESULT:      -6.8      1.006      1.018
REMARK  Name = 
REMARK  8 active torsions:
REMARK  status: ('A' for Active; 'I' for Inactive)
REMARK    1  A    between atoms: C_1  and  O_2
REMARK    2  A    between atoms: O_2  and  C_3
REMARK    3  A    between atoms: C_6  and  C_7
REMARK    4  A    between atoms: C_7  and  C_8
REMARK    5  A    between atoms: C_7  and  C_11
REMARK    6  A    between atoms: C_8  and  C_9
REMARK    7  A    between atoms: C_9  and  N_10
REMARK    8  A    between atoms: C_11  and  C_12
REMARK                            x       y       z     vdW  Elec       q    Type
REMARK                         _______ _______ _______ _____ _____    ______ ____
ROOT
ATOM      1  C   UNL     1       3.090   6.798  18.397  0.00  0.00    +0.000 C 
ENDROOT
BRANCH   1   5
ATOM      2  C   UNL     1       6.541   5.167  16.290  0.00  0.00    +0.000 A 
ATOM      3  C   UNL     1       5.689   6.082  15.674  0.00  0.00    +0.000 A 
ATOM      4  C   UNL     1       4.598   6.622  16.366  0.00  0.00    +0.000 A 
ATOM      5  C   UNL     1       4.323   6.235  17.687  0.00  0.00    +0.000 A 
ATOM      6  C   UNL     1       5.171   5.292  18.284  0.00  0.00    +0.000 A 
ATOM      7  C   UNL     1       6.278   4.774  17.600  0.00  0.00    +0.000 A 
BRANCH   2   9
ATOM      8  C   UNL     1       7.343   4.748  14.100  0.00  0.00    +0.000 C 
ATOM      9  O   UNL     1       7.555   4.692  15.505  0.00  0.00    +0.000 OA
ENDBRANCH   2   9
ENDBRANCH   1   5
BRANCH   1  10
ATOM     10  C   UNL     1       2.825   8.229  17.857  0.00  0.00    +0.000 C 
BRANCH  10  11
ATOM     11  C   UNL     1       1.632   8.931  18.513  0.00  0.00    +0.000 C 
BRANCH  11  12
ATOM     12  N   UNL     1       1.323  10.177  17.820  0.00  0.00    +0.000 NA
ATOM     13  H   UNL     1       2.183  10.620  17.499  0.00  0.00    +0.000 HD
ATOM     14  H   UNL     1       0.888  10.830  18.472  0.00  0.00    +0.000 HD
ENDBRANCH  11  12
ENDBRANCH  10  11
ENDBRANCH   1  10
BRANCH   1  15
ATOM     15  C   UNL     1       1.819   5.912  18.294  0.00  0.00    +0.000 C 
BRANCH  15  16
ATOM     16  C   UNL     1       1.752   4.741  19.247  0.00  0.00    +0.000 A 
ATOM     17  C   UNL     1       1.377   3.470  18.797  0.00  0.00    +0.000 A 
ATOM     18  C   UNL     1       1.359   2.386  19.675  0.00  0.00    +0.000 A 
ATOM     19  C   UNL     1       1.715   2.560  21.012  0.00  0.00    +0.000 A 
ATOM     20  C   UNL     1       2.094   3.821  21.469  0.00  0.00    +0.000 A 
ATOM     21  C   UNL     1       2.117   4.904  20.591  0.00  0.00    +0.000 A 
ENDBRANCH  15  16
ENDBRANCH   1  15
TORSDOF 7
ENDMDL
MODEL 8
REMARK VINA RESULT:      -6.8      0.921      1.439
REMARK  Name = 
REMARK  8 active torsions:
REMARK  status: ('A' for Active; 'I' for Inactive)
REMARK    1  A    between atoms: C_1  and  O_2
REMARK    2  A    between atoms: O_2  and  C_3
REMARK    3  A    between atoms: C_6  and  C_7
REMARK    4  A    between atoms: C_7  and  C_8
REMARK    5  A    between atoms: C_7  and  C_11
REMARK    6  A    between atoms: C_8  and  C_9
REMARK    7  A    between atoms: C_9  and  N_10
REMARK    8  A    between atoms: C_11  and  C_12
REMARK                            x       y       z     vdW  Elec       q    Type
REMARK                         _______ _______ _______ _____ _____    ______ ____
ROOT
ATOM      1  C   UNL     1       3.263   6.581  18.249  0.00  0.00    +0.000 C 
ENDROOT
BRANCH   1   5
ATOM      2  C   UNL     1       6.607   5.158  15.840  0.00  0.00    +0.000 A 
ATOM      3  C   UNL     1       6.690   6.355  16.550  0.00  0.00    +0.000 A 
ATOM      4  C   UNL     1       5.622   6.791  17.343  0.00  0.00    +0.000 A 
ATOM      5  C   UNL     1       4.434   6.048  17.421  0.00  0.00    +0.000 A 
ATOM      6  C   UNL     1       4.354   4.861  16.678  0.00  0.00    +0.000 A 
ATOM      7  C   UNL     1       5.433   4.411  15.908  0.00  0.00    +0.000 A 
BRANCH   2   9
ATOM      8  C   UNL     1       7.526   4.892  13.671  0.00  0.00    +0.000 C 
ATOM      9  O   UNL     1       7.703   4.850  15.082  0.00  0.00    +0.000 OA
ENDBRANCH   2   9
ENDBRANCH   1   5
BRANCH   1  10
ATOM     10  C   UNL     1       2.978   8.042  17.811  0.00  0.00    +0.000 C 
BRANCH  10  11
ATOM     11  C   UNL     1       1.816   8.701  18.560  0.00  0.00    +0.000 C 
BRANCH  11  12
ATOM     12  N   UNL     1       1.303   9.843  17.811  0.00  0.00    +0.000 NA
ATOM     13  H   UNL     1       1.671  10.710  18.200  0.00  0.00    +0.000 HD
ATOM     14  H   UNL     1       0.289   9.889  17.913  0.00  0.00    +0.000 HD
ENDBRANCH  11  12
ENDBRANCH  10  11
ENDBRANCH   1  10
BRANCH   1  15
ATOM     15  C   UNL     1       1.977   5.713  18.188  0.00  0.00    +0.000 C 
BRANCH  15  16
ATOM     16  C   UNL     1       1.846   4.649  19.254  0.00  0.00    +0.000 A 
ATOM     17  C   UNL     1       2.329   4.867  20.549  0.00  0.00    +0.000 A 
ATOM     18  C   UNL     1       2.165   3.895  21.537  0.00  0.00    +0.000 A 
ATOM     19  C   UNL     1       1.519   2.696  21.241  0.00  0.00    +0.000 A 
ATOM     20  C   UNL     1       1.030   2.471  19.955  0.00  0.00    +0.000 A 
ATOM     21  C   UNL     1       1.190   3.443  18.968  0.00  0.00    +0.000 A 
ENDBRANCH  15  16
ENDBRANCH   1  15
TORSDOF 7
ENDMDL
MODEL 9
REMARK VINA RESULT:      -6.7      2.216      5.211
REMARK  Name = 
REMARK  8 active torsions:
REMARK  status: ('A' for Active; 'I' for Inactive)
REMARK    1  A    between atoms: C_1  and  O_2
REMARK    2  A    between atoms: O_2  and  C_3
REMARK    3  A    between atoms: C_6  and  C_7
REMARK    4  A    between atoms: C_7  and  C_8
REMARK    5  A    between atoms: C_7  and  C_11
REMARK    6  A    between atoms: C_8  and  C_9
REMARK    7  A    between atoms: C_9  and  N_10
REMARK    8  A    between atoms: C_11  and  C_12
REMARK                            x       y       z     vdW  Elec       q    Type
REMARK                         _______ _______ _______ _____ _____    ______ ____
ROOT
ATOM      1  C   UNL     1       2.633   7.321  17.839  0.00  0.00    +0.000 C 
ENDROOT
BRANCH   1   5
ATOM      2  C   UNL     1       1.921   3.465  19.745  0.00  0.00    +0.000 A 
ATOM      3  C   UNL     1       2.283   4.583  20.496  0.00  0.00    +0.000 A 
ATOM      4  C   UNL     1       2.484   5.823  19.879  0.00  0.00    +0.000 A 
ATOM      5  C   UNL     1       2.350   5.966  18.490  0.00  0.00    +0.000 A 
ATOM      6  C   UNL     1       2.013   4.827  17.744  0.00  0.00    +0.000 A 
ATOM      7  C   UNL     1       1.785   3.593  18.365  0.00  0.00    +0.000 A 
BRANCH   2   9
ATOM      8  C   UNL     1       1.507   2.447  21.845  0.00  0.00    +0.000 C 
ATOM      9  O   UNL     1       1.777   2.305  20.455  0.00  0.00    +0.000 OA
ENDBRANCH   2   9
ENDBRANCH   1   5
BRANCH   1  10
ATOM     10  C   UNL     1       1.986   8.428  18.712  0.00  0.00    +0.000 C 
BRANCH  10  11
ATOM     11  C   UNL     1       1.167   9.450  17.916  0.00  0.00    +0.000 C 
BRANCH  11  12
ATOM     12  N   UNL     1       1.997  10.587  17.532  0.00  0.00    +0.000 NA
ATOM     13  H   UNL     1       2.983  10.344  17.613  0.00  0.00    +0.000 HD
ATOM     14  H   UNL     1       1.836  11.359  18.178  0.00  0.00    +0.000 HD
ENDBRANCH  11  12
ENDBRANCH  10  11
ENDBRANCH   1  10
BRANCH   1  15
ATOM     15  C   UNL     1       4.135   7.615  17.577  0.00  0.00    +0.000 C 
BRANCH  15  16
ATOM     16  C   UNL     1       4.973   6.436  17.139  0.00  0.00    +0.000 A 
ATOM     17  C   UNL     1       5.035   6.059  15.793  0.00  0.00    +0.000 A 
ATOM     18  C   UNL     1       5.845   4.996  15.394  0.00  0.00    +0.000 A 
ATOM     19  C   UNL     1       6.601   4.297  16.334  0.00  0.00    +0.000 A 
ATOM     20  C   UNL     1       6.549   4.667  17.677  0.00  0.00    +0.000 A 
ATOM     21  C   UNL     1       5.743   5.733  18.077  0.00  0.00    +0.000 A 
ENDBRANCH  15  16
ENDBRANCH   1  15
TORSDOF 7
ENDMDL
