MODEL 1
REMARK VINA RESULT:      -7.3      0.000      0.000
REMARK  Name = 
REMARK  3 active torsions:
REMARK  status: ('A' for Active; 'I' for Inactive)
REMARK    1  A    between atoms: C_2  and  C_3
REMARK    2  A    between atoms: C_2  and  C_13
REMARK    3  A    between atoms: C_3  and  N_4
REMARK                            x       y       z     vdW  Elec       q    Type
REMARK                         _______ _______ _______ _____ _____    ______ ____
ROOT
ATOM      1  O   UNL     1       1.713   3.395  16.861  0.00  0.00    +0.000 OA
ATOM      2  C   UNL     1       2.621   3.862  17.541  0.00  0.00    +0.000 C 
ENDROOT
BRANCH   2   3
ATOM      3  C   UNL     1       2.315   4.888  18.567  0.00  0.00    +0.000 A 
ATOM      4  C   UNL     1       2.066   4.564  19.906  0.00  0.00    +0.000 A 
ATOM      5  C   UNL     1       1.761   5.579  20.818  0.00  0.00    +0.000 A 
ATOM      6  C   UNL     1       1.717   6.909  20.395  0.00  0.00    +0.000 A 
ATOM      7  C   UNL     1       2.018   7.223  19.071  0.00  0.00    +0.000 A 
ATOM      8  C   UNL     1       2.290   6.219  18.149  0.00  0.00    +0.000 A 
ATOM      9  O   UNL     1       2.089   8.509  18.612  0.00  0.00    +0.000 OA
ATOM     10  C   UNL     1       1.195   9.338  19.341  0.00  0.00    +0.000 C 
ATOM     11  C   UNL     1       1.343   9.184  20.849  0.00  0.00    +0.000 C 
ATOM     12  O   UNL     1       1.345   7.835  21.326  0.00  0.00    +0.000 OA
ENDBRANCH   2   3
BRANCH   2  13
ATOM     13  C   UNL     1       4.073   3.449  17.380  0.00  0.00    +0.000 C 
BRANCH  13  14
ATOM     14  N   UNL     1       5.042   4.535  17.429  0.00  0.00    +0.000 N 
ATOM     15  N   UNL     1       5.085   5.411  16.367  0.00  0.00    +0.000 NA
ATOM     16  C   UNL     1       5.928   6.385  16.435  0.00  0.00    +0.000 A 
ATOM     17  C   UNL     1       6.865   6.623  17.539  0.00  0.00    +0.000 A 
ATOM     18 CL   UNL     1       7.896   7.981  17.407  0.00  0.00    +0.000 Cl
ATOM     19  C   UNL     1       6.834   5.751  18.550  0.00  0.00    +0.000 A 
ATOM     20 CL   UNL     1       7.896   5.864  19.911  0.00  0.00    +0.000 Cl
ATOM     21  C   UNL     1       5.882   4.606  18.530  0.00  0.00    +0.000 A 
ATOM     22  O   UNL     1       5.859   3.779  19.440  0.00  0.00    +0.000 OA
ENDBRANCH  13  14
ENDBRANCH   2  13
TORSDOF 3
ENDMDL
MODEL 2
REMARK VINA RESULT:      -7.0      1.497      1.753
REMARK  Name = 
REMARK  3 active torsions:
REMARK  status: ('A' for Active; 'I' for Inactive)
REMARK    1  A    between atoms: C_2  and  C_3
REMARK    2  A    between atoms: C_2  and  C_13
REMARK    3  A    between atoms: C_3  and  N_4
REMARK                            x       y       z     vdW  Elec       q    Type
REMARK                         _______ _______ _______ _____ _____    ______ ____
ROOT
ATOM      1  O   UNL     1       1.543   2.919  18.895  0.00  0.00    +0.000 OA
ATOM      2  C   UNL     1       2.459   3.669  19.218  0.00  0.00    +0.000 C 
ENDROOT
BRANCH   2   3
ATOM      3  C   UNL     1       2.167   5.091  19.524  0.00  0.00    +0.000 A 
ATOM      4  C   UNL     1       1.737   5.517  20.786  0.00  0.00    +0.000 A 
ATOM      5  C   UNL     1       1.458   6.871  21.001  0.00  0.00    +0.000 A 
ATOM      6  C   UNL     1       1.620   7.791  19.963  0.00  0.00    +0.000 A 
ATOM      7  C   UNL     1       2.098   7.361  18.727  0.00  0.00    +0.000 A 
ATOM      8  C   UNL     1       2.348   6.014  18.493  0.00  0.00    +0.000 A 
ATOM      9  O   UNL     1       2.373   8.220  17.699  0.00  0.00    +0.000 OA
ATOM     10  C   UNL     1       1.509   9.348  17.761  0.00  0.00    +0.000 C 
ATOM     11  C   UNL     1       1.473   9.988  19.142  0.00  0.00    +0.000 C 
ATOM     12  O   UNL     1       1.262   9.081  20.229  0.00  0.00    +0.000 OA
ENDBRANCH   2   3
BRANCH   2  13
ATOM     13  C   UNL     1       3.905   3.218  19.312  0.00  0.00    +0.000 C 
BRANCH  13  14
ATOM     14  N   UNL     1       4.788   3.726  18.270  0.00  0.00    +0.000 N 
ATOM     15  N   UNL     1       4.607   3.260  16.986  0.00  0.00    +0.000 NA
ATOM     16  C   UNL     1       5.376   3.737  16.068  0.00  0.00    +0.000 A 
ATOM     17  C   UNL     1       6.447   4.718  16.282  0.00  0.00    +0.000 A 
ATOM     18 CL   UNL     1       7.344   5.203  14.908  0.00  0.00    +0.000 Cl
ATOM     19  C   UNL     1       6.632   5.141  17.533  0.00  0.00    +0.000 A 
ATOM     20 CL   UNL     1       7.873   6.267  17.964  0.00  0.00    +0.000 Cl
ATOM     21  C   UNL     1       5.775   4.627  18.638  0.00  0.00    +0.000 A 
ATOM     22  O   UNL     1       5.948   4.987  19.802  0.00  0.00    +0.000 OA
ENDBRANCH  13  14
ENDBRANCH   2  13
TORSDOF 3
ENDMDL
MODEL 3
REMARK VINA RESULT:      -7.0      1.563      2.330
REMARK  Name = 
REMARK  3 active torsions:
REMARK  status: ('A' for Active; 'I' for Inactive)
REMARK    1  A    between atoms: C_2  and  C_3
REMARK    2  A    between atoms: C_2  and  C_13
REMARK    3  A    between atoms: C_3  and  N_4
REMARK                            x       y       z     vdW  Elec       q    Type
REMARK                         _______ _______ _______ _____ _____    ______ ____
ROOT
ATOM      1  O   UNL     1       1.579   3.327  19.572  0.00  0.00    +0.000 OA
ATOM      2  C   UNL     1       2.510   4.126  19.545  0.00  0.00    +0.000 C 
ENDROOT
BRANCH   2   3
ATOM      3  C   UNL     1       2.226   5.578  19.446  0.00  0.00    +0.000 A 
ATOM      4  C   UNL     1       2.452   6.311  18.275  0.00  0.00    +0.000 A 
ATOM      5  C   UNL     1       2.184   7.684  18.256  0.00  0.00    +0.000 A 
ATOM      6  C   UNL     1       1.682   8.313  19.397  0.00  0.00    +0.000 A 
ATOM      7  C   UNL     1       1.412   7.562  20.539  0.00  0.00    +0.000 A 
ATOM      8  C   UNL     1       1.706   6.204  20.579  0.00  0.00    +0.000 A 
ATOM      9  O   UNL     1       0.831   8.094  21.656  0.00  0.00    +0.000 OA
ATOM     10  C   UNL     1       1.189   9.463  21.788  0.00  0.00    +0.000 C 
ATOM     11  C   UNL     1       0.968  10.257  20.508  0.00  0.00    +0.000 C 
ATOM     12  O   UNL     1       1.510   9.666  19.323  0.00  0.00    +0.000 OA
ENDBRANCH   2   3
BRANCH   2  13
ATOM     13  C   UNL     1       3.966   3.702  19.599  0.00  0.00    +0.000 C 
BRANCH  13  14
ATOM     14  N   UNL     1       4.766   4.061  18.435  0.00  0.00    +0.000 N 
ATOM     15  N   UNL     1       4.505   3.412  17.248  0.00  0.00    +0.000 NA
ATOM     16  C   UNL     1       5.201   3.758  16.218  0.00  0.00    +0.000 A 
ATOM     17  C   UNL     1       6.265   4.768  16.212  0.00  0.00    +0.000 A 
ATOM     18 CL   UNL     1       7.056   5.057  14.722  0.00  0.00    +0.000 Cl
ATOM     19  C   UNL     1       6.528   5.370  17.373  0.00  0.00    +0.000 A 
ATOM     20 CL   UNL     1       7.775   6.556  17.548  0.00  0.00    +0.000 Cl
ATOM     21  C   UNL     1       5.759   5.014  18.599  0.00  0.00    +0.000 A 
ATOM     22  O   UNL     1       6.005   5.540  19.683  0.00  0.00    +0.000 OA
ENDBRANCH  13  14
ENDBRANCH   2  13
TORSDOF 3
ENDMDL
MODEL 4
REMARK VINA RESULT:      -6.9      3.121      5.873
REMARK  Name = 
REMARK  3 active torsions:
REMARK  status: ('A' for Active; 'I' for Inactive)
REMARK    1  A    between atoms: C_2  and  C_3
REMARK    2  A    between atoms: C_2  and  C_13
REMARK    3  A    between atoms: C_3  and  N_4
REMARK                            x       y       z     vdW  Elec       q    Type
REMARK                         _______ _______ _______ _____ _____    ______ ____
ROOT
ATOM      1  O   UNL     1       4.836   2.905  20.037  0.00  0.00    +0.000 OA
ATOM      2  C   UNL     1       4.386   3.589  19.123  0.00  0.00    +0.000 C 
ENDROOT
BRANCH   2   3
ATOM      3  C   UNL     1       5.302   4.114  18.082  0.00  0.00    +0.000 A 
ATOM      4  C   UNL     1       6.271   5.088  18.353  0.00  0.00    +0.000 A 
ATOM      5  C   UNL     1       7.088   5.556  17.320  0.00  0.00    +0.000 A 
ATOM      6  C   UNL     1       6.946   5.044  16.029  0.00  0.00    +0.000 A 
ATOM      7  C   UNL     1       6.014   4.037  15.784  0.00  0.00    +0.000 A 
ATOM      8  C   UNL     1       5.174   3.588  16.796  0.00  0.00    +0.000 A 
ATOM      9  O   UNL     1       5.888   3.423  14.569  0.00  0.00    +0.000 OA
ATOM     10  C   UNL     1       6.231   4.327  13.527  0.00  0.00    +0.000 C 
ATOM     11  C   UNL     1       7.567   5.020  13.762  0.00  0.00    +0.000 C 
ATOM     12  O   UNL     1       7.732   5.599  15.061  0.00  0.00    +0.000 OA
ENDBRANCH   2   3
BRANCH   2  13
ATOM     13  C   UNL     1       2.915   3.944  19.001  0.00  0.00    +0.000 C 
BRANCH  13  14
ATOM     14  N   UNL     1       2.615   5.369  18.983  0.00  0.00    +0.000 N 
ATOM     15  N   UNL     1       2.828   6.059  17.809  0.00  0.00    +0.000 NA
ATOM     16  C   UNL     1       2.534   7.315  17.797  0.00  0.00    +0.000 A 
ATOM     17  C   UNL     1       2.012   8.076  18.938  0.00  0.00    +0.000 A 
ATOM     18 CL   UNL     1       1.697   9.739  18.686  0.00  0.00    +0.000 Cl
ATOM     19  C   UNL     1       1.836   7.404  20.077  0.00  0.00    +0.000 A 
ATOM     20 CL   UNL     1       1.266   8.158  21.526  0.00  0.00    +0.000 Cl
ATOM     21  C   UNL     1       2.159   5.952  20.155  0.00  0.00    +0.000 A 
ATOM     22  O   UNL     1       2.027   5.323  21.204  0.00  0.00    +0.000 OA
ENDBRANCH  13  14
ENDBRANCH   2  13
TORSDOF 3
ENDMDL
MODEL 5
REMARK VINA RESULT:      -6.9      3.428      4.985
REMARK  Name = 
REMARK  3 active torsions:
REMARK  status: ('A' for Active; 'I' for Inactive)
REMARK    1  A    between atoms: C_2  and  C_3
REMARK    2  A    between atoms: C_2  and  C_13
REMARK    3  A    between atoms: C_3  and  N_4
REMARK                            x       y       z     vdW  Elec       q    Type
REMARK                         _______ _______ _______ _____ _____    ______ ____
ROOT
ATOM      1  O   UNL     1       7.686   4.381  18.426  0.00  0.00    +0.000 OA
ATOM      2  C   UNL     1       6.792   4.964  17.820  0.00  0.00    +0.000 C 
ENDROOT
BRANCH   2   3
ATOM      3  C   UNL     1       5.418   4.977  18.378  0.00  0.00    +0.000 A 
ATOM      4  C   UNL     1       4.543   6.055  18.199  0.00  0.00    +0.000 A 
ATOM      5  C   UNL     1       3.268   6.013  18.772  0.00  0.00    +0.000 A 
ATOM      6  C   UNL     1       2.868   4.895  19.506  0.00  0.00    +0.000 A 
ATOM      7  C   UNL     1       3.730   3.807  19.632  0.00  0.00    +0.000 A 
ATOM      8  C   UNL     1       5.011   3.852  19.095  0.00  0.00    +0.000 A 
ATOM      9  O   UNL     1       3.369   2.643  20.253  0.00  0.00    +0.000 OA
ATOM     10  C   UNL     1       2.425   2.911  21.282  0.00  0.00    +0.000 C 
ATOM     11  C   UNL     1       1.264   3.775  20.808  0.00  0.00    +0.000 C 
ATOM     12  O   UNL     1       1.636   4.956  20.091  0.00  0.00    +0.000 OA
ENDBRANCH   2   3
BRANCH   2  13
ATOM     13  C   UNL     1       7.015   5.676  16.498  0.00  0.00    +0.000 C 
BRANCH  13  14
ATOM     14  N   UNL     1       6.557   4.959  15.316  0.00  0.00    +0.000 N 
ATOM     15  N   UNL     1       5.451   4.147  15.441  0.00  0.00    +0.000 NA
ATOM     16  C   UNL     1       5.038   3.539  14.382  0.00  0.00    +0.000 A 
ATOM     17  C   UNL     1       5.663   3.622  13.057  0.00  0.00    +0.000 A 
ATOM     18 CL   UNL     1       4.939   2.721  11.796  0.00  0.00    +0.000 Cl
ATOM     19  C   UNL     1       6.750   4.389  12.953  0.00  0.00    +0.000 A 
ATOM     20 CL   UNL     1       7.629   4.567  11.473  0.00  0.00    +0.000 Cl
ATOM     21  C   UNL     1       7.276   5.117  14.141  0.00  0.00    +0.000 A 
ATOM     22  O   UNL     1       8.291   5.808  14.070  0.00  0.00    +0.000 OA
ENDBRANCH  13  14
ENDBRANCH   2  13
TORSDOF 3
ENDMDL
MODEL 6
REMARK VINA RESULT:      -6.9      3.254      6.204
REMARK  Name = 
REMARK  3 active torsions:
REMARK  status: ('A' for Active; 'I' for Inactive)
REMARK    1  A    between atoms: C_2  and  C_3
REMARK    2  A    between atoms: C_2  and  C_13
REMARK    3  A    between atoms: C_3  and  N_4
REMARK                            x       y       z     vdW  Elec       q    Type
REMARK                         _______ _______ _______ _____ _____    ______ ____
ROOT
ATOM      1  O   UNL     1       5.035   3.210  19.872  0.00  0.00    +0.000 OA
ATOM      2  C   UNL     1       4.554   3.785  18.900  0.00  0.00    +0.000 C 
ENDROOT
BRANCH   2   3
ATOM      3  C   UNL     1       5.449   4.277  17.825  0.00  0.00    +0.000 A 
ATOM      4  C   UNL     1       6.380   5.302  18.031  0.00  0.00    +0.000 A 
ATOM      5  C   UNL     1       7.178   5.735  16.967  0.00  0.00    +0.000 A 
ATOM      6  C   UNL     1       7.054   5.137  15.711  0.00  0.00    +0.000 A 
ATOM      7  C   UNL     1       6.160   4.083  15.533  0.00  0.00    +0.000 A 
ATOM      8  C   UNL     1       5.339   3.667  16.575  0.00  0.00    +0.000 A 
ATOM      9  O   UNL     1       6.056   3.389  14.360  0.00  0.00    +0.000 OA
ATOM     10  C   UNL     1       6.364   4.237  13.262  0.00  0.00    +0.000 C 
ATOM     11  C   UNL     1       7.673   4.994  13.449  0.00  0.00    +0.000 C 
ATOM     12  O   UNL     1       7.817   5.660  14.707  0.00  0.00    +0.000 OA
ENDBRANCH   2   3
BRANCH   2  13
ATOM     13  C   UNL     1       3.066   4.035  18.738  0.00  0.00    +0.000 C 
BRANCH  13  14
ATOM     14  N   UNL     1       2.583   5.303  19.267  0.00  0.00    +0.000 N 
ATOM     15  N   UNL     1       2.050   5.311  20.538  0.00  0.00    +0.000 NA
ATOM     16  C   UNL     1       1.651   6.444  21.006  0.00  0.00    +0.000 A 
ATOM     17  C   UNL     1       1.695   7.724  20.289  0.00  0.00    +0.000 A 
ATOM     18 CL   UNL     1       1.104   9.100  21.114  0.00  0.00    +0.000 Cl
ATOM     19  C   UNL     1       2.187   7.699  19.049  0.00  0.00    +0.000 A 
ATOM     20 CL   UNL     1       2.276   9.110  18.052  0.00  0.00    +0.000 Cl
ATOM     21  C   UNL     1       2.664   6.421  18.451  0.00  0.00    +0.000 A 
ATOM     22  O   UNL     1       3.097   6.375  17.301  0.00  0.00    +0.000 OA
ENDBRANCH  13  14
ENDBRANCH   2  13
TORSDOF 3
ENDMDL
MODEL 7
REMARK VINA RESULT:      -6.8      2.993      4.318
REMARK  Name = 
REMARK  3 active torsions:
REMARK  status: ('A' for Active; 'I' for Inactive)
REMARK    1  A    between atoms: C_2  and  C_3
REMARK    2  A    between atoms: C_2  and  C_13
REMARK    3  A    between atoms: C_3  and  N_4
REMARK                            x       y       z     vdW  Elec       q    Type
REMARK                         _______ _______ _______ _____ _____    ______ ____
ROOT
ATOM      1  O   UNL     1       4.159   7.211  17.565  0.00  0.00    +0.000 OA
ATOM      2  C   UNL     1       3.020   6.967  17.952  0.00  0.00    +0.000 C 
ENDROOT
BRANCH   2   3
ATOM      3  C   UNL     1       2.219   8.038  18.591  0.00  0.00    +0.000 A 
ATOM      4  C   UNL     1       1.844   9.205  17.914  0.00  0.00    +0.000 A 
ATOM      5  C   UNL     1       1.108  10.187  18.585  0.00  0.00    +0.000 A 
ATOM      6  C   UNL     1       0.739   9.996  19.917  0.00  0.00    +0.000 A 
ATOM      7  C   UNL     1       1.073   8.807  20.564  0.00  0.00    +0.000 A 
ATOM      8  C   UNL     1       1.833   7.839  19.917  0.00  0.00    +0.000 A 
ATOM      9  O   UNL     1       0.661   8.513  21.833  0.00  0.00    +0.000 OA
ATOM     10  C   UNL     1       0.525   9.707  22.593  0.00  0.00    +0.000 C 
ATOM     11  C   UNL     1      -0.299  10.770  21.879  0.00  0.00    +0.000 C 
ATOM     12  O   UNL     1       0.081  11.027  20.523  0.00  0.00    +0.000 OA
ENDBRANCH   2   3
BRANCH   2  13
ATOM     13  C   UNL     1       2.376   5.598  17.821  0.00  0.00    +0.000 C 
BRANCH  13  14
ATOM     14  N   UNL     1       2.964   4.549  18.642  0.00  0.00    +0.000 N 
ATOM     15  N   UNL     1       4.224   4.101  18.312  0.00  0.00    +0.000 NA
ATOM     16  C   UNL     1       4.746   3.190  19.062  0.00  0.00    +0.000 A 
ATOM     17  C   UNL     1       4.097   2.574  20.226  0.00  0.00    +0.000 A 
ATOM     18 CL   UNL     1       4.985   1.380  21.070  0.00  0.00    +0.000 Cl
ATOM     19  C   UNL     1       2.866   2.996  20.520  0.00  0.00    +0.000 A 
ATOM     20 CL   UNL     1       1.947   2.347  21.834  0.00  0.00    +0.000 Cl
ATOM     21  C   UNL     1       2.209   4.045  19.690  0.00  0.00    +0.000 A 
ATOM     22  O   UNL     1       1.065   4.426  19.931  0.00  0.00    +0.000 OA
ENDBRANCH  13  14
ENDBRANCH   2  13
TORSDOF 3
ENDMDL
MODEL 8
REMARK VINA RESULT:      -6.8      1.449      1.855
REMARK  Name = 
REMARK  3 active torsions:
REMARK  status: ('A' for Active; 'I' for Inactive)
REMARK    1  A    between atoms: C_2  and  C_3
REMARK    2  A    between atoms: C_2  and  C_13
REMARK    3  A    between atoms: C_3  and  N_4
REMARK                            x       y       z     vdW  Elec       q    Type
REMARK                         _______ _______ _______ _____ _____    ______ ____
ROOT
ATOM      1  O   UNL     1       1.770   2.698  18.068  0.00  0.00    +0.000 OA
ATOM      2  C   UNL     1       2.657   3.389  18.559  0.00  0.00    +0.000 C 
ENDROOT
BRANCH   2   3
ATOM      3  C   UNL     1       2.334   4.747  19.060  0.00  0.00    +0.000 A 
ATOM      4  C   UNL     1       1.929   4.987  20.379  0.00  0.00    +0.000 A 
ATOM      5  C   UNL     1       1.617   6.290  20.780  0.00  0.00    +0.000 A 
ATOM      6  C   UNL     1       1.723   7.345  19.872  0.00  0.00    +0.000 A 
ATOM      7  C   UNL     1       2.178   7.100  18.577  0.00  0.00    +0.000 A 
ATOM      8  C   UNL     1       2.459   5.805  18.159  0.00  0.00    +0.000 A 
ATOM      9  O   UNL     1       2.398   8.097  17.668  0.00  0.00    +0.000 OA
ATOM     10  C   UNL     1       1.506   9.178  17.902  0.00  0.00    +0.000 C 
ATOM     11  C   UNL     1       1.491   9.627  19.357  0.00  0.00    +0.000 C 
ATOM     12  O   UNL     1       1.337   8.576  20.317  0.00  0.00    +0.000 OA
ENDBRANCH   2   3
BRANCH   2  13
ATOM     13  C   UNL     1       4.099   2.928  18.674  0.00  0.00    +0.000 C 
BRANCH  13  14
ATOM     14  N   UNL     1       5.104   3.968  18.503  0.00  0.00    +0.000 N 
ATOM     15  N   UNL     1       5.556   4.620  19.630  0.00  0.00    +0.000 NA
ATOM     16  C   UNL     1       6.466   5.520  19.470  0.00  0.00    +0.000 A 
ATOM     17  C   UNL     1       7.044   5.924  18.182  0.00  0.00    +0.000 A 
ATOM     18 CL   UNL     1       8.239   7.147  18.216  0.00  0.00    +0.000 Cl
ATOM     19  C   UNL     1       6.579   5.306  17.095  0.00  0.00    +0.000 A 
ATOM     20 CL   UNL     1       7.124   5.689  15.499  0.00  0.00    +0.000 Cl
ATOM     21  C   UNL     1       5.527   4.257  17.215  0.00  0.00    +0.000 A 
ATOM     22  O   UNL     1       5.069   3.696  16.222  0.00  0.00    +0.000 OA
ENDBRANCH  13  14
ENDBRANCH   2  13
TORSDOF 3
ENDMDL
MODEL 9
REMARK VINA RESULT:      -6.8      4.518      7.233
REMARK  Name = 
REMARK  3 active torsions:
REMARK  status: ('A' for Active; 'I' for Inactive)
REMARK    1  A    between atoms: C_2  and  C_3
REMARK    2  A    between atoms: C_2  and  C_13
REMARK    3  A    between atoms: C_3  and  N_4
REMARK                            x       y       z     vdW  Elec       q    Type
REMARK                         _______ _______ _______ _____ _____    ______ ____
ROOT
ATOM      1  O   UNL     1       1.808   8.110  19.951  0.00  0.00    +0.000 OA
ATOM      2  C   UNL     1       2.121   8.147  18.764  0.00  0.00    +0.000 C 
ENDROOT
BRANCH   2   3
ATOM      3  C   UNL     1       2.826   6.992  18.157  0.00  0.00    +0.000 A 
ATOM      4  C   UNL     1       2.343   5.681  18.250  0.00  0.00    +0.000 A 
ATOM      5  C   UNL     1       3.070   4.635  17.673  0.00  0.00    +0.000 A 
ATOM      6  C   UNL     1       4.263   4.901  16.999  0.00  0.00    +0.000 A 
ATOM      7  C   UNL     1       4.705   6.216  16.869  0.00  0.00    +0.000 A 
ATOM      8  C   UNL     1       4.008   7.260  17.466  0.00  0.00    +0.000 A 
ATOM      9  O   UNL     1       5.810   6.558  16.141  0.00  0.00    +0.000 OA
ATOM     10  C   UNL     1       6.760   5.501  16.168  0.00  0.00    +0.000 C 
ATOM     11  C   UNL     1       6.150   4.150  15.816  0.00  0.00    +0.000 C 
ATOM     12  O   UNL     1       4.950   3.821  16.523  0.00  0.00    +0.000 OA
ENDBRANCH   2   3
BRANCH   2  13
ATOM     13  C   UNL     1       1.832   9.337  17.869  0.00  0.00    +0.000 C 
BRANCH  13  14
ATOM     14  N   UNL     1       0.580  10.033  18.136  0.00  0.00    +0.000 N 
ATOM     15  N   UNL     1      -0.579   9.499  17.616  0.00  0.00    +0.000 NA
ATOM     16  C   UNL     1      -1.684  10.108  17.881  0.00  0.00    +0.000 A 
ATOM     17  C   UNL     1      -1.807  11.337  18.674  0.00  0.00    +0.000 A 
ATOM     18 CL   UNL     1      -3.383  11.968  18.892  0.00  0.00    +0.000 Cl
ATOM     19  C   UNL     1      -0.676  11.861  19.149  0.00  0.00    +0.000 A 
ATOM     20 CL   UNL     1      -0.640  13.325  20.069  0.00  0.00    +0.000 Cl
ATOM     21  C   UNL     1       0.633  11.204  18.876  0.00  0.00    +0.000 A 
ATOM     22  O   UNL     1       1.688  11.686  19.285  0.00  0.00    +0.000 OA
ENDBRANCH  13  14
ENDBRANCH   2  13
TORSDOF 3
ENDMDL
