MODEL 1
REMARK VINA RESULT:      -7.3      0.000      0.000
REMARK  Name = 
REMARK  13 active torsions:
REMARK  status: ('A' for Active; 'I' for Inactive)
REMARK    1  A    between atoms: C_1  and  C_2
REMARK    2  A    between atoms: C_5  and  C_6
REMARK    3  A    between atoms: C_6  and  C_7
REMARK    4  A    between atoms: C_7  and  N_8
REMARK    5  A    between atoms: C_10  and  C_11
REMARK    6  A    between atoms: C_11  and  S_12
REMARK    7  A    between atoms: S_12  and  C_13
REMARK    8  A    between atoms: C_13  and  N_15
REMARK    9  A    between atoms: C_19  and  O_21
REMARK   10  A    between atoms: O_21  and  C_22
REMARK   11  A    between atoms: C_22  and  C_23
REMARK   12  A    between atoms: C_22  and  C_24
REMARK   13  A    between atoms: C_22  and  C_25
REMARK                            x       y       z     vdW  Elec       q    Type
REMARK                         _______ _______ _______ _____ _____    ______ ____
ROOT
ATOM      1  S   UNL     1       4.357   4.319  19.526  0.00  0.00    +0.000 S 
ENDROOT
BRANCH   1   2
ATOM      2  C   UNL     1       2.866   4.838  18.727  0.00  0.00    +0.000 C 
ATOM      3  S   UNL     1       2.096   3.837  17.604  0.00  0.00    +0.000 S 
BRANCH   2   4
ATOM      4  N   UNL     1       2.423   6.144  19.063  0.00  0.00    +0.000 N 
ATOM      5  C   UNL     1       1.610   6.355  20.283  0.00  0.00    +0.000 C 
ATOM      6  C   UNL     1       1.722   7.774  20.834  0.00  0.00    +0.000 C 
ATOM      7  N   UNL     1       1.411   8.755  19.806  0.00  0.00    +0.000 N 
ATOM      8  C   UNL     1       0.422   9.691  20.051  0.00  0.00    +0.000 C 
ATOM      9  O   UNL     1      -0.188   9.704  21.120  0.00  0.00    +0.000 OA
ATOM     10  C   UNL     1       2.233   8.652  18.608  0.00  0.00    +0.000 C 
ATOM     11  C   UNL     1       2.239   7.215  18.041  0.00  0.00    +0.000 C 
BRANCH   8  12
ATOM     12  O   UNL     1       0.180  10.540  19.022  0.00  0.00    +0.000 OA
BRANCH  12  13
ATOM     13  C   UNL     1       0.599  11.937  19.176  0.00  0.00    +0.000 C 
ATOM     14  C   UNL     1       1.988  12.179  18.563  0.00  0.00    +0.000 C 
ATOM     15  C   UNL     1      -0.414  12.811  18.411  0.00  0.00    +0.000 C 
ATOM     16  C   UNL     1       0.544  12.367  20.651  0.00  0.00    +0.000 C 
ENDBRANCH  12  13
ENDBRANCH   8  12
ENDBRANCH   2   4
ENDBRANCH   1   2
BRANCH   1  17
ATOM     17  C   UNL     1       5.550   4.146  18.166  0.00  0.00    +0.000 C 
BRANCH  17  20
ATOM     18  N   UNL     1       7.633   7.124  18.045  0.00  0.00    +0.000 N 
ATOM     19  C   UNL     1       7.208   6.041  18.758  0.00  0.00    +0.000 A 
ATOM     20  C   UNL     1       6.315   5.404  17.922  0.00  0.00    +0.000 A 
ATOM     21  N   UNL     1       6.195   6.146  16.772  0.00  0.00    +0.000 NA
ATOM     22  N   UNL     1       7.011   7.187  16.855  0.00  0.00    +0.000 NA
BRANCH  18  23
ATOM     23  C   UNL     1       8.576   8.163  18.423  0.00  0.00    +0.000 C 
BRANCH  23  24
ATOM     24  C   UNL     1       8.173   9.545  17.912  0.00  0.00    +0.000 C 
BRANCH  24  29
ATOM     25  C   UNL     1      10.971  14.022  20.357  0.00  0.00    +0.000 C 
ATOM     26  C   UNL     1      10.287  12.859  19.701  0.00  0.00    +0.000 A 
ATOM     27  C   UNL     1       9.715  12.985  18.432  0.00  0.00    +0.000 A 
ATOM     28  C   UNL     1       9.058  11.902  17.843  0.00  0.00    +0.000 A 
ATOM     29  C   UNL     1       8.956  10.679  18.517  0.00  0.00    +0.000 A 
ATOM     30  C   UNL     1       9.546  10.547  19.778  0.00  0.00    +0.000 A 
ATOM     31  C   UNL     1      10.204  11.630  20.367  0.00  0.00    +0.000 A 
ENDBRANCH  24  29
ENDBRANCH  23  24
ENDBRANCH  18  23
ENDBRANCH  17  20
ENDBRANCH   1  17
TORSDOF 9
ENDMDL
MODEL 2
REMARK VINA RESULT:      -7.2      0.741      1.179
REMARK  Name = 
REMARK  13 active torsions:
REMARK  status: ('A' for Active; 'I' for Inactive)
REMARK    1  A    between atoms: C_1  and  C_2
REMARK    2  A    between atoms: C_5  and  C_6
REMARK    3  A    between atoms: C_6  and  C_7
REMARK    4  A    between atoms: C_7  and  N_8
REMARK    5  A    between atoms: C_10  and  C_11
REMARK    6  A    between atoms: C_11  and  S_12
REMARK    7  A    between atoms: S_12  and  C_13
REMARK    8  A    between atoms: C_13  and  N_15
REMARK    9  A    between atoms: C_19  and  O_21
REMARK   10  A    between atoms: O_21  and  C_22
REMARK   11  A    between atoms: C_22  and  C_23
REMARK   12  A    between atoms: C_22  and  C_24
REMARK   13  A    between atoms: C_22  and  C_25
REMARK                            x       y       z     vdW  Elec       q    Type
REMARK                         _______ _______ _______ _____ _____    ______ ____
ROOT
ATOM      1  S   UNL     1       3.605   4.661  17.413  0.00  0.00    +0.000 S 
ENDROOT
BRANCH   1   2
ATOM      2  C   UNL     1       2.975   4.911  19.047  0.00  0.00    +0.000 C 
ATOM      3  S   UNL     1       2.939   3.640  20.162  0.00  0.00    +0.000 S 
BRANCH   2   4
ATOM      4  N   UNL     1       2.472   6.211  19.309  0.00  0.00    +0.000 N 
ATOM      5  C   UNL     1       1.533   6.425  20.435  0.00  0.00    +0.000 C 
ATOM      6  C   UNL     1       1.558   7.856  20.967  0.00  0.00    +0.000 C 
ATOM      7  N   UNL     1       1.335   8.811  19.893  0.00  0.00    +0.000 N 
ATOM      8  C   UNL     1       0.306   9.728  20.017  0.00  0.00    +0.000 C 
ATOM      9  O   UNL     1      -0.412   9.746  21.017  0.00  0.00    +0.000 OA
ATOM     10  C   UNL     1       2.278   8.707  18.789  0.00  0.00    +0.000 C 
ATOM     11  C   UNL     1       2.371   7.261  18.254  0.00  0.00    +0.000 C 
BRANCH   8  12
ATOM     12  O   UNL     1       0.153  10.554  18.952  0.00  0.00    +0.000 OA
BRANCH  12  13
ATOM     13  C   UNL     1       0.508  11.966  19.126  0.00  0.00    +0.000 C 
ATOM     14  C   UNL     1       0.722  12.315  20.608  0.00  0.00    +0.000 C 
ATOM     15  C   UNL     1       1.839  12.203  18.388  0.00  0.00    +0.000 C 
ATOM     16  C   UNL     1      -0.541  12.880  18.471  0.00  0.00    +0.000 C 
ENDBRANCH  12  13
ENDBRANCH   8  12
ENDBRANCH   2   4
ENDBRANCH   1   2
BRANCH   1  17
ATOM     17  C   UNL     1       5.370   4.307  17.670  0.00  0.00    +0.000 C 
BRANCH  17  20
ATOM     18  N   UNL     1       7.216   7.429  17.432  0.00  0.00    +0.000 N 
ATOM     19  C   UNL     1       6.226   6.718  18.045  0.00  0.00    +0.000 A 
ATOM     20  C   UNL     1       6.230   5.497  17.405  0.00  0.00    +0.000 A 
ATOM     21  N   UNL     1       7.173   5.535  16.406  0.00  0.00    +0.000 NA
ATOM     22  N   UNL     1       7.774   6.716  16.438  0.00  0.00    +0.000 NA
BRANCH  18  23
ATOM     23  C   UNL     1       7.664   8.789  17.685  0.00  0.00    +0.000 C 
BRANCH  23  24
ATOM     24  C   UNL     1       8.842   8.855  18.655  0.00  0.00    +0.000 C 
BRANCH  24  29
ATOM     25  C   UNL     1      10.121  14.331  20.147  0.00  0.00    +0.000 C 
ATOM     26  C   UNL     1       9.836  12.910  19.759  0.00  0.00    +0.000 A 
ATOM     27  C   UNL     1       9.859  12.514  18.418  0.00  0.00    +0.000 A 
ATOM     28  C   UNL     1       9.567  11.194  18.067  0.00  0.00    +0.000 A 
ATOM     29  C   UNL     1       9.239  10.251  19.049  0.00  0.00    +0.000 A 
ATOM     30  C   UNL     1       9.236  10.643  20.392  0.00  0.00    +0.000 A 
ATOM     31  C   UNL     1       9.529  11.963  20.744  0.00  0.00    +0.000 A 
ENDBRANCH  24  29
ENDBRANCH  23  24
ENDBRANCH  18  23
ENDBRANCH  17  20
ENDBRANCH   1  17
TORSDOF 9
ENDMDL
MODEL 3
REMARK VINA RESULT:      -6.9      1.102      1.404
REMARK  Name = 
REMARK  13 active torsions:
REMARK  status: ('A' for Active; 'I' for Inactive)
REMARK    1  A    between atoms: C_1  and  C_2
REMARK    2  A    between atoms: C_5  and  C_6
REMARK    3  A    between atoms: C_6  and  C_7
REMARK    4  A    between atoms: C_7  and  N_8
REMARK    5  A    between atoms: C_10  and  C_11
REMARK    6  A    between atoms: C_11  and  S_12
REMARK    7  A    between atoms: S_12  and  C_13
REMARK    8  A    between atoms: C_13  and  N_15
REMARK    9  A    between atoms: C_19  and  O_21
REMARK   10  A    between atoms: O_21  and  C_22
REMARK   11  A    between atoms: C_22  and  C_23
REMARK   12  A    between atoms: C_22  and  C_24
REMARK   13  A    between atoms: C_22  and  C_25
REMARK                            x       y       z     vdW  Elec       q    Type
REMARK                         _______ _______ _______ _____ _____    ______ ____
ROOT
ATOM      1  S   UNL     1       4.748   3.928  16.987  0.00  0.00    +0.000 S 
ENDROOT
BRANCH   1   2
ATOM      2  C   UNL     1       3.382   3.978  18.108  0.00  0.00    +0.000 C 
ATOM      3  S   UNL     1       2.588   2.557  18.565  0.00  0.00    +0.000 S 
BRANCH   2   4
ATOM      4  N   UNL     1       2.994   5.276  18.533  0.00  0.00    +0.000 N 
ATOM      5  C   UNL     1       2.058   5.430  19.671  0.00  0.00    +0.000 C 
ATOM      6  C   UNL     1       2.202   6.773  20.382  0.00  0.00    +0.000 C 
ATOM      7  N   UNL     1       2.086   7.873  19.439  0.00  0.00    +0.000 N 
ATOM      8  C   UNL     1       1.142   8.858  19.673  0.00  0.00    +0.000 C 
ATOM      9  O   UNL     1       0.411   8.814  20.662  0.00  0.00    +0.000 OA
ATOM     10  C   UNL     1       3.035   7.824  18.336  0.00  0.00    +0.000 C 
ATOM     11  C   UNL     1       3.008   6.455  17.620  0.00  0.00    +0.000 C 
BRANCH   8  12
ATOM     12  O   UNL     1       1.084   9.823  18.722  0.00  0.00    +0.000 OA
BRANCH  12  13
ATOM     13  C   UNL     1       0.919  11.211  19.166  0.00  0.00    +0.000 C 
ATOM     14  C   UNL     1      -0.524  11.701  18.960  0.00  0.00    +0.000 C 
ATOM     15  C   UNL     1       1.221  11.252  20.676  0.00  0.00    +0.000 C 
ATOM     16  C   UNL     1       1.938  12.132  18.476  0.00  0.00    +0.000 C 
ENDBRANCH  12  13
ENDBRANCH   8  12
ENDBRANCH   2   4
ENDBRANCH   1   2
BRANCH   1  17
ATOM     17  C   UNL     1       6.185   4.338  18.021  0.00  0.00    +0.000 C 
BRANCH  17  20
ATOM     18  N   UNL     1       7.599   7.646  17.501  0.00  0.00    +0.000 N 
ATOM     19  C   UNL     1       6.880   6.812  18.307  0.00  0.00    +0.000 A 
ATOM     20  C   UNL     1       6.827   5.621  17.614  0.00  0.00    +0.000 A 
ATOM     21  N   UNL     1       7.463   5.794  16.408  0.00  0.00    +0.000 NA
ATOM     22  N   UNL     1       7.938   7.031  16.355  0.00  0.00    +0.000 NA
BRANCH  18  23
ATOM     23  C   UNL     1       7.969   9.036  17.711  0.00  0.00    +0.000 C 
BRANCH  23  24
ATOM     24  C   UNL     1       8.795   9.246  18.978  0.00  0.00    +0.000 C 
BRANCH  24  29
ATOM     25  C   UNL     1      11.353  14.464  19.283  0.00  0.00    +0.000 C 
ATOM     26  C   UNL     1      10.729  13.103  19.179  0.00  0.00    +0.000 A 
ATOM     27  C   UNL     1      10.023  12.723  18.034  0.00  0.00    +0.000 A 
ATOM     28  C   UNL     1       9.424  11.463  17.960  0.00  0.00    +0.000 A 
ATOM     29  C   UNL     1       9.515  10.567  19.033  0.00  0.00    +0.000 A 
ATOM     30  C   UNL     1      10.239  10.940  20.169  0.00  0.00    +0.000 A 
ATOM     31  C   UNL     1      10.838  12.200  20.244  0.00  0.00    +0.000 A 
ENDBRANCH  24  29
ENDBRANCH  23  24
ENDBRANCH  18  23
ENDBRANCH  17  20
ENDBRANCH   1  17
TORSDOF 9
ENDMDL
MODEL 4
REMARK VINA RESULT:      -6.8      4.872      8.119
REMARK  Name = 
REMARK  13 active torsions:
REMARK  status: ('A' for Active; 'I' for Inactive)
REMARK    1  A    between atoms: C_1  and  C_2
REMARK    2  A    between atoms: C_5  and  C_6
REMARK    3  A    between atoms: C_6  and  C_7
REMARK    4  A    between atoms: C_7  and  N_8
REMARK    5  A    between atoms: C_10  and  C_11
REMARK    6  A    between atoms: C_11  and  S_12
REMARK    7  A    between atoms: S_12  and  C_13
REMARK    8  A    between atoms: C_13  and  N_15
REMARK    9  A    between atoms: C_19  and  O_21
REMARK   10  A    between atoms: O_21  and  C_22
REMARK   11  A    between atoms: C_22  and  C_23
REMARK   12  A    between atoms: C_22  and  C_24
REMARK   13  A    between atoms: C_22  and  C_25
REMARK                            x       y       z     vdW  Elec       q    Type
REMARK                         _______ _______ _______ _____ _____    ______ ____
ROOT
ATOM      1  S   UNL     1       1.983   7.213  19.601  0.00  0.00    +0.000 S 
ENDROOT
BRANCH   1   2
ATOM      2  C   UNL     1       2.230   5.464  19.674  0.00  0.00    +0.000 C 
ATOM      3  S   UNL     1       1.178   4.479  20.559  0.00  0.00    +0.000 S 
BRANCH   2   4
ATOM      4  N   UNL     1       3.378   4.985  18.991  0.00  0.00    +0.000 N 
ATOM      5  C   UNL     1       4.686   5.652  19.192  0.00  0.00    +0.000 C 
ATOM      6  C   UNL     1       5.871   4.729  18.920  0.00  0.00    +0.000 C 
ATOM      7  N   UNL     1       5.771   4.133  17.598  0.00  0.00    +0.000 N 
ATOM      8  C   UNL     1       6.826   4.282  16.714  0.00  0.00    +0.000 C 
ATOM      9  O   UNL     1       7.838   4.904  17.035  0.00  0.00    +0.000 OA
ATOM     10  C   UNL     1       4.540   3.392  17.364  0.00  0.00    +0.000 C 
ATOM     11  C   UNL     1       3.292   4.237  17.703  0.00  0.00    +0.000 C 
BRANCH   8  12
ATOM     12  O   UNL     1       6.626   3.721  15.496  0.00  0.00    +0.000 OA
BRANCH  12  13
ATOM     13  C   UNL     1       6.227   4.604  14.395  0.00  0.00    +0.000 C 
ATOM     14  C   UNL     1       5.407   5.801  14.901  0.00  0.00    +0.000 C 
ATOM     15  C   UNL     1       7.516   5.152  13.751  0.00  0.00    +0.000 C 
ATOM     16  C   UNL     1       5.478   3.818  13.306  0.00  0.00    +0.000 C 
ENDBRANCH  12  13
ENDBRANCH   8  12
ENDBRANCH   2   4
ENDBRANCH   1   2
BRANCH   1  17
ATOM     17  C   UNL     1       1.400   7.647  21.268  0.00  0.00    +0.000 C 
BRANCH  17  20
ATOM     18  N   UNL     1       0.140  11.040  20.926  0.00  0.00    +0.000 N 
ATOM     19  C   UNL     1       0.559   9.897  20.309  0.00  0.00    +0.000 A 
ATOM     20  C   UNL     1       0.896   9.049  21.343  0.00  0.00    +0.000 A 
ATOM     21  N   UNL     1       0.721   9.721  22.529  0.00  0.00    +0.000 NA
ATOM     22  N   UNL     1       0.250  10.932  22.261  0.00  0.00    +0.000 NA
BRANCH  18  23
ATOM     23  C   UNL     1      -0.330  12.283  20.338  0.00  0.00    +0.000 C 
BRANCH  23  24
ATOM     24  C   UNL     1       0.294  13.519  20.985  0.00  0.00    +0.000 C 
BRANCH  24  29
ATOM     25  C   UNL     1       3.136  16.811  17.120  0.00  0.00    +0.000 C 
ATOM     26  C   UNL     1       2.440  15.964  18.144  0.00  0.00    +0.000 A 
ATOM     27  C   UNL     1       2.690  14.591  18.230  0.00  0.00    +0.000 A 
ATOM     28  C   UNL     1       2.017  13.808  19.170  0.00  0.00    +0.000 A 
ATOM     29  C   UNL     1       1.076  14.384  20.034  0.00  0.00    +0.000 A 
ATOM     30  C   UNL     1       0.842  15.760  19.962  0.00  0.00    +0.000 A 
ATOM     31  C   UNL     1       1.516  16.544  19.022  0.00  0.00    +0.000 A 
ENDBRANCH  24  29
ENDBRANCH  23  24
ENDBRANCH  18  23
ENDBRANCH  17  20
ENDBRANCH   1  17
TORSDOF 9
ENDMDL
MODEL 5
REMARK VINA RESULT:      -6.8      1.056      1.806
REMARK  Name = 
REMARK  13 active torsions:
REMARK  status: ('A' for Active; 'I' for Inactive)
REMARK    1  A    between atoms: C_1  and  C_2
REMARK    2  A    between atoms: C_5  and  C_6
REMARK    3  A    between atoms: C_6  and  C_7
REMARK    4  A    between atoms: C_7  and  N_8
REMARK    5  A    between atoms: C_10  and  C_11
REMARK    6  A    between atoms: C_11  and  S_12
REMARK    7  A    between atoms: S_12  and  C_13
REMARK    8  A    between atoms: C_13  and  N_15
REMARK    9  A    between atoms: C_19  and  O_21
REMARK   10  A    between atoms: O_21  and  C_22
REMARK   11  A    between atoms: C_22  and  C_23
REMARK   12  A    between atoms: C_22  and  C_24
REMARK   13  A    between atoms: C_22  and  C_25
REMARK                            x       y       z     vdW  Elec       q    Type
REMARK                         _______ _______ _______ _____ _____    ______ ____
ROOT
ATOM      1  S   UNL     1       3.640   4.998  20.057  0.00  0.00    +0.000 S 
ENDROOT
BRANCH   1   2
ATOM      2  C   UNL     1       2.418   5.534  18.897  0.00  0.00    +0.000 C 
ATOM      3  S   UNL     1       1.901   4.513  17.653  0.00  0.00    +0.000 S 
BRANCH   2   4
ATOM      4  N   UNL     1       1.966   6.869  19.068  0.00  0.00    +0.000 N 
ATOM      5  C   UNL     1       2.228   7.876  18.013  0.00  0.00    +0.000 C 
ATOM      6  C   UNL     1       1.221   9.023  18.024  0.00  0.00    +0.000 C 
ATOM      7  N   UNL     1       1.145   9.634  19.341  0.00  0.00    +0.000 N 
ATOM      8  C   UNL     1       1.356  10.996  19.461  0.00  0.00    +0.000 C 
ATOM      9  O   UNL     1       1.600  11.689  18.474  0.00  0.00    +0.000 OA
ATOM     10  C   UNL     1       0.810   8.709  20.415  0.00  0.00    +0.000 C 
ATOM     11  C   UNL     1       1.737   7.472  20.413  0.00  0.00    +0.000 C 
BRANCH   8  12
ATOM     12  O   UNL     1       1.300  11.468  20.731  0.00  0.00    +0.000 OA
BRANCH  12  13
ATOM     13  C   UNL     1       0.056  12.112  21.166  0.00  0.00    +0.000 C 
ATOM     14  C   UNL     1      -0.559  11.389  22.376  0.00  0.00    +0.000 C 
ATOM     15  C   UNL     1       0.406  13.548  21.601  0.00  0.00    +0.000 C 
ATOM     16  C   UNL     1      -0.941  12.222  20.001  0.00  0.00    +0.000 C 
ENDBRANCH  12  13
ENDBRANCH   8  12
ENDBRANCH   2   4
ENDBRANCH   1   2
BRANCH   1  17
ATOM     17  C   UNL     1       5.006   4.401  19.016  0.00  0.00    +0.000 C 
BRANCH  17  20
ATOM     18  N   UNL     1       7.254   7.045  17.935  0.00  0.00    +0.000 N 
ATOM     19  C   UNL     1       6.961   6.086  18.861  0.00  0.00    +0.000 A 
ATOM     20  C   UNL     1       5.787   5.520  18.413  0.00  0.00    +0.000 A 
ATOM     21  N   UNL     1       5.391   6.186  17.277  0.00  0.00    +0.000 NA
ATOM     22  N   UNL     1       6.299   7.108  16.991  0.00  0.00    +0.000 NA
BRANCH  18  23
ATOM     23  C   UNL     1       8.375   7.970  17.891  0.00  0.00    +0.000 C 
BRANCH  23  24
ATOM     24  C   UNL     1       7.938   9.428  17.770  0.00  0.00    +0.000 C 
BRANCH  24  29
ATOM     25  C   UNL     1      11.485  13.383  20.143  0.00  0.00    +0.000 C 
ATOM     26  C   UNL     1      10.606  12.346  19.508  0.00  0.00    +0.000 A 
ATOM     27  C   UNL     1      10.124  12.512  18.206  0.00  0.00    +0.000 A 
ATOM     28  C   UNL     1       9.286  11.551  17.636  0.00  0.00    +0.000 A 
ATOM     29  C   UNL     1       8.909  10.414  18.361  0.00  0.00    +0.000 A 
ATOM     30  C   UNL     1       9.408  10.238  19.655  0.00  0.00    +0.000 A 
ATOM     31  C   UNL     1      10.247  11.198  20.226  0.00  0.00    +0.000 A 
ENDBRANCH  24  29
ENDBRANCH  23  24
ENDBRANCH  18  23
ENDBRANCH  17  20
ENDBRANCH   1  17
TORSDOF 9
ENDMDL
MODEL 6
REMARK VINA RESULT:      -6.8      3.898      6.753
REMARK  Name = 
REMARK  13 active torsions:
REMARK  status: ('A' for Active; 'I' for Inactive)
REMARK    1  A    between atoms: C_1  and  C_2
REMARK    2  A    between atoms: C_5  and  C_6
REMARK    3  A    between atoms: C_6  and  C_7
REMARK    4  A    between atoms: C_7  and  N_8
REMARK    5  A    between atoms: C_10  and  C_11
REMARK    6  A    between atoms: C_11  and  S_12
REMARK    7  A    between atoms: S_12  and  C_13
REMARK    8  A    between atoms: C_13  and  N_15
REMARK    9  A    between atoms: C_19  and  O_21
REMARK   10  A    between atoms: O_21  and  C_22
REMARK   11  A    between atoms: C_22  and  C_23
REMARK   12  A    between atoms: C_22  and  C_24
REMARK   13  A    between atoms: C_22  and  C_25
REMARK                            x       y       z     vdW  Elec       q    Type
REMARK                         _______ _______ _______ _____ _____    ______ ____
ROOT
ATOM      1  S   UNL     1       1.292   9.256  18.618  0.00  0.00    +0.000 S 
ENDROOT
BRANCH   1   2
ATOM      2  C   UNL     1       0.467  10.611  19.400  0.00  0.00    +0.000 C 
ATOM      3  S   UNL     1       1.266  11.562  20.546  0.00  0.00    +0.000 S 
BRANCH   2   4
ATOM      4  N   UNL     1      -0.893  10.786  19.031  0.00  0.00    +0.000 N 
ATOM      5  C   UNL     1      -1.374  10.276  17.726  0.00  0.00    +0.000 C 
ATOM      6  C   UNL     1      -2.872   9.984  17.718  0.00  0.00    +0.000 C 
ATOM      7  N   UNL     1      -3.629  11.147  18.152  0.00  0.00    +0.000 N 
ATOM      8  C   UNL     1      -4.624  11.643  17.328  0.00  0.00    +0.000 C 
ATOM      9  O   UNL     1      -4.875  11.113  16.246  0.00  0.00    +0.000 OA
ATOM     10  C   UNL     1      -3.259  11.650  19.467  0.00  0.00    +0.000 C 
ATOM     11  C   UNL     1      -1.736  11.887  19.579  0.00  0.00    +0.000 C 
BRANCH   8  12
ATOM     12  O   UNL     1      -5.251  12.749  17.801  0.00  0.00    +0.000 OA
BRANCH  12  13
ATOM     13  C   UNL     1      -6.582  12.579  18.394  0.00  0.00    +0.000 C 
ATOM     14  C   UNL     1      -6.677  13.261  19.768  0.00  0.00    +0.000 C 
ATOM     15  C   UNL     1      -7.596  13.261  17.455  0.00  0.00    +0.000 C 
ATOM     16  C   UNL     1      -6.963  11.091  18.468  0.00  0.00    +0.000 C 
ENDBRANCH  12  13
ENDBRANCH   8  12
ENDBRANCH   2   4
ENDBRANCH   1   2
BRANCH   1  17
ATOM     17  C   UNL     1       1.833   8.209  20.002  0.00  0.00    +0.000 C 
BRANCH  17  20
ATOM     18  N   UNL     1       2.353   4.930  18.521  0.00  0.00    +0.000 N 
ATOM     19  C   UNL     1       2.219   6.275  18.330  0.00  0.00    +0.000 A 
ATOM     20  C   UNL     1       2.021   6.786  19.594  0.00  0.00    +0.000 A 
ATOM     21  N   UNL     1       1.990   5.739  20.484  0.00  0.00    +0.000 NA
ATOM     22  N   UNL     1       2.203   4.613  19.818  0.00  0.00    +0.000 NA
BRANCH  18  23
ATOM     23  C   UNL     1       2.575   3.879  17.542  0.00  0.00    +0.000 C 
BRANCH  23  24
ATOM     24  C   UNL     1       4.044   3.479  17.422  0.00  0.00    +0.000 C 
BRANCH  24  29
ATOM     25  C   UNL     1       7.956   7.779  17.665  0.00  0.00    +0.000 C 
ATOM     26  C   UNL     1       6.919   6.695  17.628  0.00  0.00    +0.000 A 
ATOM     27  C   UNL     1       6.761   5.815  18.703  0.00  0.00    +0.000 A 
ATOM     28  C   UNL     1       5.809   4.795  18.646  0.00  0.00    +0.000 A 
ATOM     29  C   UNL     1       5.006   4.632  17.510  0.00  0.00    +0.000 A 
ATOM     30  C   UNL     1       5.150   5.526  16.443  0.00  0.00    +0.000 A 
ATOM     31  C   UNL     1       6.102   6.547  16.501  0.00  0.00    +0.000 A 
ENDBRANCH  24  29
ENDBRANCH  23  24
ENDBRANCH  18  23
ENDBRANCH  17  20
ENDBRANCH   1  17
TORSDOF 9
ENDMDL
MODEL 7
REMARK VINA RESULT:      -6.7      4.865      7.102
REMARK  Name = 
REMARK  13 active torsions:
REMARK  status: ('A' for Active; 'I' for Inactive)
REMARK    1  A    between atoms: C_1  and  C_2
REMARK    2  A    between atoms: C_5  and  C_6
REMARK    3  A    between atoms: C_6  and  C_7
REMARK    4  A    between atoms: C_7  and  N_8
REMARK    5  A    between atoms: C_10  and  C_11
REMARK    6  A    between atoms: C_11  and  S_12
REMARK    7  A    between atoms: S_12  and  C_13
REMARK    8  A    between atoms: C_13  and  N_15
REMARK    9  A    between atoms: C_19  and  O_21
REMARK   10  A    between atoms: O_21  and  C_22
REMARK   11  A    between atoms: C_22  and  C_23
REMARK   12  A    between atoms: C_22  and  C_24
REMARK   13  A    between atoms: C_22  and  C_25
REMARK                            x       y       z     vdW  Elec       q    Type
REMARK                         _______ _______ _______ _____ _____    ______ ____
ROOT
ATOM      1  S   UNL     1       0.337   9.666  18.343  0.00  0.00    +0.000 S 
ENDROOT
BRANCH   1   2
ATOM      2  C   UNL     1       0.579  11.291  19.000  0.00  0.00    +0.000 C 
ATOM      3  S   UNL     1       1.971  12.173  18.627  0.00  0.00    +0.000 S 
BRANCH   2   4
ATOM      4  N   UNL     1      -0.439  11.747  19.877  0.00  0.00    +0.000 N 
ATOM      5  C   UNL     1      -0.307  11.528  21.336  0.00  0.00    +0.000 C 
ATOM      6  C   UNL     1      -1.093  12.543  22.163  0.00  0.00    +0.000 C 
ATOM      7  N   UNL     1      -2.486  12.579  21.750  0.00  0.00    +0.000 N 
ATOM      8  C   UNL     1      -3.472  12.375  22.700  0.00  0.00    +0.000 C 
ATOM      9  O   UNL     1      -3.183  12.169  23.879  0.00  0.00    +0.000 OA
ATOM     10  C   UNL     1      -2.689  12.871  20.338  0.00  0.00    +0.000 C 
ATOM     11  C   UNL     1      -1.852  11.935  19.437  0.00  0.00    +0.000 C 
BRANCH   8  12
ATOM     12  O   UNL     1      -4.738  12.392  22.215  0.00  0.00    +0.000 OA
BRANCH  12  13
ATOM     13  C   UNL     1      -5.626  13.471  22.661  0.00  0.00    +0.000 C 
ATOM     14  C   UNL     1      -6.374  13.090  23.949  0.00  0.00    +0.000 C 
ATOM     15  C   UNL     1      -4.744  14.697  22.971  0.00  0.00    +0.000 C 
ATOM     16  C   UNL     1      -6.594  13.883  21.540  0.00  0.00    +0.000 C 
ENDBRANCH  12  13
ENDBRANCH   8  12
ENDBRANCH   2   4
ENDBRANCH   1   2
BRANCH   1  17
ATOM     17  C   UNL     1       1.963   9.216  17.667  0.00  0.00    +0.000 C 
BRANCH  17  20
ATOM     18  N   UNL     1       3.727   6.285  18.897  0.00  0.00    +0.000 N 
ATOM     19  C   UNL     1       3.648   7.277  17.963  0.00  0.00    +0.000 A 
ATOM     20  C   UNL     1       2.529   8.000  18.319  0.00  0.00    +0.000 A 
ATOM     21  N   UNL     1       1.952   7.393  19.409  0.00  0.00    +0.000 NA
ATOM     22  N   UNL     1       2.697   6.354  19.758  0.00  0.00    +0.000 NA
BRANCH  18  23
ATOM     23  C   UNL     1       4.704   5.215  19.023  0.00  0.00    +0.000 C 
BRANCH  23  24
ATOM     24  C   UNL     1       4.520   4.118  17.976  0.00  0.00    +0.000 C 
BRANCH  24  29
ATOM     25  C   UNL     1       7.679   5.057  13.181  0.00  0.00    +0.000 C 
ATOM     26  C   UNL     1       6.874   4.770  14.414  0.00  0.00    +0.000 A 
ATOM     27  C   UNL     1       5.568   4.281  14.322  0.00  0.00    +0.000 A 
ATOM     28  C   UNL     1       4.820   4.042  15.477  0.00  0.00    +0.000 A 
ATOM     29  C   UNL     1       5.363   4.297  16.742  0.00  0.00    +0.000 A 
ATOM     30  C   UNL     1       6.677   4.767  16.835  0.00  0.00    +0.000 A 
ATOM     31  C   UNL     1       7.425   5.005  15.680  0.00  0.00    +0.000 A 
ENDBRANCH  24  29
ENDBRANCH  23  24
ENDBRANCH  18  23
ENDBRANCH  17  20
ENDBRANCH   1  17
TORSDOF 9
ENDMDL
MODEL 8
REMARK VINA RESULT:      -6.7      5.222      9.245
REMARK  Name = 
REMARK  13 active torsions:
REMARK  status: ('A' for Active; 'I' for Inactive)
REMARK    1  A    between atoms: C_1  and  C_2
REMARK    2  A    between atoms: C_5  and  C_6
REMARK    3  A    between atoms: C_6  and  C_7
REMARK    4  A    between atoms: C_7  and  N_8
REMARK    5  A    between atoms: C_10  and  C_11
REMARK    6  A    between atoms: C_11  and  S_12
REMARK    7  A    between atoms: S_12  and  C_13
REMARK    8  A    between atoms: C_13  and  N_15
REMARK    9  A    between atoms: C_19  and  O_21
REMARK   10  A    between atoms: O_21  and  C_22
REMARK   11  A    between atoms: C_22  and  C_23
REMARK   12  A    between atoms: C_22  and  C_24
REMARK   13  A    between atoms: C_22  and  C_25
REMARK                            x       y       z     vdW  Elec       q    Type
REMARK                         _______ _______ _______ _____ _____    ______ ____
ROOT
ATOM      1  S   UNL     1       2.042   7.078  19.886  0.00  0.00    +0.000 S 
ENDROOT
BRANCH   1   2
ATOM      2  C   UNL     1       2.184   5.323  19.720  0.00  0.00    +0.000 C 
ATOM      3  S   UNL     1       1.039   4.295  20.420  0.00  0.00    +0.000 S 
BRANCH   2   4
ATOM      4  N   UNL     1       3.332   4.872  19.017  0.00  0.00    +0.000 N 
ATOM      5  C   UNL     1       4.624   5.576  19.187  0.00  0.00    +0.000 C 
ATOM      6  C   UNL     1       5.829   4.685  18.899  0.00  0.00    +0.000 C 
ATOM      7  N   UNL     1       5.720   4.076  17.583  0.00  0.00    +0.000 N 
ATOM      8  C   UNL     1       6.752   4.248  16.678  0.00  0.00    +0.000 C 
ATOM      9  O   UNL     1       7.753   4.901  16.973  0.00  0.00    +0.000 OA
ATOM     10  C   UNL     1       4.505   3.299  17.379  0.00  0.00    +0.000 C 
ATOM     11  C   UNL     1       3.241   4.112  17.737  0.00  0.00    +0.000 C 
BRANCH   8  12
ATOM     12  O   UNL     1       6.544   3.672  15.468  0.00  0.00    +0.000 OA
BRANCH  12  13
ATOM     13  C   UNL     1       6.197   4.549  14.344  0.00  0.00    +0.000 C 
ATOM     14  C   UNL     1       5.363   5.755  14.808  0.00  0.00    +0.000 C 
ATOM     15  C   UNL     1       7.515   5.085  13.752  0.00  0.00    +0.000 C 
ATOM     16  C   UNL     1       5.489   3.760  13.231  0.00  0.00    +0.000 C 
ENDBRANCH  12  13
ENDBRANCH   8  12
ENDBRANCH   2   4
ENDBRANCH   1   2
BRANCH   1  17
ATOM     17  C   UNL     1       1.143   7.303  21.449  0.00  0.00    +0.000 C 
BRANCH  17  20
ATOM     18  N   UNL     1      -0.071  10.725  21.277  0.00  0.00    +0.000 N 
ATOM     19  C   UNL     1       0.666   9.732  20.701  0.00  0.00    +0.000 A 
ATOM     20  C   UNL     1       0.558   8.670  21.573  0.00  0.00    +0.000 A 
ATOM     21  N   UNL     1      -0.187   9.073  22.655  0.00  0.00    +0.000 NA
ATOM     22  N   UNL     1      -0.572  10.327  22.459  0.00  0.00    +0.000 NA
BRANCH  18  23
ATOM     23  C   UNL     1      -0.313  12.081  20.811  0.00  0.00    +0.000 C 
BRANCH  23  24
ATOM     24  C   UNL     1      -0.088  12.241  19.309  0.00  0.00    +0.000 C 
BRANCH  24  29
ATOM     25  C   UNL     1      -4.000   9.743  15.801  0.00  0.00    +0.000 C 
ATOM     26  C   UNL     1      -3.012  10.367  16.741  0.00  0.00    +0.000 A 
ATOM     27  C   UNL     1      -3.337  11.519  17.463  0.00  0.00    +0.000 A 
ATOM     28  C   UNL     1      -2.399  12.105  18.316  0.00  0.00    +0.000 A 
ATOM     29  C   UNL     1      -1.119  11.554  18.454  0.00  0.00    +0.000 A 
ATOM     30  C   UNL     1      -0.801  10.390  17.748  0.00  0.00    +0.000 A 
ATOM     31  C   UNL     1      -1.739   9.803  16.895  0.00  0.00    +0.000 A 
ENDBRANCH  24  29
ENDBRANCH  23  24
ENDBRANCH  18  23
ENDBRANCH  17  20
ENDBRANCH   1  17
TORSDOF 9
ENDMDL
MODEL 9
REMARK VINA RESULT:      -6.6      4.405      8.158
REMARK  Name = 
REMARK  13 active torsions:
REMARK  status: ('A' for Active; 'I' for Inactive)
REMARK    1  A    between atoms: C_1  and  C_2
REMARK    2  A    between atoms: C_5  and  C_6
REMARK    3  A    between atoms: C_6  and  C_7
REMARK    4  A    between atoms: C_7  and  N_8
REMARK    5  A    between atoms: C_10  and  C_11
REMARK    6  A    between atoms: C_11  and  S_12
REMARK    7  A    between atoms: S_12  and  C_13
REMARK    8  A    between atoms: C_13  and  N_15
REMARK    9  A    between atoms: C_19  and  O_21
REMARK   10  A    between atoms: O_21  and  C_22
REMARK   11  A    between atoms: C_22  and  C_23
REMARK   12  A    between atoms: C_22  and  C_24
REMARK   13  A    between atoms: C_22  and  C_25
REMARK                            x       y       z     vdW  Elec       q    Type
REMARK                         _______ _______ _______ _____ _____    ______ ____
ROOT
ATOM      1  S   UNL     1       8.340  10.673  17.997  0.00  0.00    +0.000 S 
ENDROOT
BRANCH   1   2
ATOM      2  C   UNL     1       9.407  11.978  18.530  0.00  0.00    +0.000 C 
ATOM      3  S   UNL     1      11.036  11.678  18.866  0.00  0.00    +0.000 S 
BRANCH   2   4
ATOM      4  N   UNL     1       8.782  13.242  18.696  0.00  0.00    +0.000 N 
ATOM      5  C   UNL     1       8.639  13.821  20.052  0.00  0.00    +0.000 C 
ATOM      6  C   UNL     1       8.534  15.344  20.039  0.00  0.00    +0.000 C 
ATOM      7  N   UNL     1       7.467  15.782  19.154  0.00  0.00    +0.000 N 
ATOM      8  C   UNL     1       6.475  16.605  19.657  0.00  0.00    +0.000 C 
ATOM      9  O   UNL     1       6.489  16.969  20.833  0.00  0.00    +0.000 OA
ATOM     10  C   UNL     1       7.592  15.311  17.781  0.00  0.00    +0.000 C 
ATOM     11  C   UNL     1       7.792  13.781  17.719  0.00  0.00    +0.000 C 
BRANCH   8  12
ATOM     12  O   UNL     1       5.506  16.932  18.767  0.00  0.00    +0.000 OA
BRANCH  12  13
ATOM     13  C   UNL     1       4.160  16.395  18.993  0.00  0.00    +0.000 C 
ATOM     14  C   UNL     1       3.382  17.236  20.019  0.00  0.00    +0.000 C 
ATOM     15  C   UNL     1       3.403  16.464  17.653  0.00  0.00    +0.000 C 
ATOM     16  C   UNL     1       4.223  14.913  19.401  0.00  0.00    +0.000 C 
ENDBRANCH  12  13
ENDBRANCH   8  12
ENDBRANCH   2   4
ENDBRANCH   1   2
BRANCH   1  17
ATOM     17  C   UNL     1       8.926   9.218  18.916  0.00  0.00    +0.000 C 
BRANCH  17  20
ATOM     18  N   UNL     1       7.276   6.413  17.297  0.00  0.00    +0.000 N 
ATOM     19  C   UNL     1       7.585   7.742  17.270  0.00  0.00    +0.000 A 
ATOM     20  C   UNL     1       8.308   7.952  18.425  0.00  0.00    +0.000 A 
ATOM     21  N   UNL     1       8.361   6.770  19.124  0.00  0.00    +0.000 NA
ATOM     22  N   UNL     1       7.736   5.836  18.421  0.00  0.00    +0.000 NA
BRANCH  18  23
ATOM     23  C   UNL     1       6.518   5.624  16.339  0.00  0.00    +0.000 C 
BRANCH  23  24
ATOM     24  C   UNL     1       5.102   6.153  16.122  0.00  0.00    +0.000 C 
BRANCH  24  29
ATOM     25  C   UNL     1       1.327   3.856  19.907  0.00  0.00    +0.000 C 
ATOM     26  C   UNL     1       2.269   4.444  18.898  0.00  0.00    +0.000 A 
ATOM     27  C   UNL     1       2.998   3.623  18.032  0.00  0.00    +0.000 A 
ATOM     28  C   UNL     1       3.891   4.181  17.115  0.00  0.00    +0.000 A 
ATOM     29  C   UNL     1       4.076   5.568  17.054  0.00  0.00    +0.000 A 
ATOM     30  C   UNL     1       3.332   6.390  17.906  0.00  0.00    +0.000 A 
ATOM     31  C   UNL     1       2.438   5.832  18.823  0.00  0.00    +0.000 A 
ENDBRANCH  24  29
ENDBRANCH  23  24
ENDBRANCH  18  23
ENDBRANCH  17  20
ENDBRANCH   1  17
TORSDOF 9
ENDMDL
