MODEL 1
REMARK VINA RESULT:      -7.2      0.000      0.000
REMARK  Name = 
REMARK  9 active torsions:
REMARK  status: ('A' for Active; 'I' for Inactive)
REMARK    1  A    between atoms: C_1  and  N_2
REMARK    2  A    between atoms: C_4  and  C_5
REMARK    3  A    between atoms: C_5  and  C_6
REMARK    4  A    between atoms: C_5  and  C_7
REMARK    5  A    between atoms: C_5  and  C_8
REMARK    6  A    between atoms: C_10  and  N_11
REMARK    7  A    between atoms: N_11  and  C_12
REMARK    8  A    between atoms: C_12  and  C_13
REMARK    9  A    between atoms: C_16  and  C_17
REMARK                            x       y       z     vdW  Elec       q    Type
REMARK                         _______ _______ _______ _____ _____    ______ ____
ROOT
ATOM      1  C   UNL     1       1.814   9.608  18.096  0.00  0.00    +0.000 C 
ENDROOT
BRANCH   1   2
ATOM      2  C   UNL     1       2.014   8.257  18.693  0.00  0.00    +0.000 A 
ATOM      3  C   UNL     1       1.922   7.877  20.011  0.00  0.00    +0.000 A 
ATOM      4  O   UNL     1       2.179   6.543  20.087  0.00  0.00    +0.000 OA
ATOM      5  C   UNL     1       2.399   6.163  18.786  0.00  0.00    +0.000 A 
ATOM      6  N   UNL     1       2.318   7.156  17.922  0.00  0.00    +0.000 NA
BRANCH   5   7
ATOM      7  C   UNL     1       2.688   4.747  18.574  0.00  0.00    +0.000 A 
ATOM      8  C   UNL     1       1.630   3.873  18.256  0.00  0.00    +0.000 A 
ATOM      9  C   UNL     1       1.848   2.509  18.045  0.00  0.00    +0.000 A 
ATOM     10  C   UNL     1       3.132   1.991  18.147  0.00  0.00    +0.000 A 
ATOM     11  C   UNL     1       4.197   2.834  18.462  0.00  0.00    +0.000 A 
ATOM     12  C   UNL     1       3.982   4.203  18.676  0.00  0.00    +0.000 A 
ATOM     13 BR   UNL     1       5.534   5.240  19.055  0.00  0.00    +0.000 Br
ENDBRANCH   5   7
ENDBRANCH   1   2
BRANCH   1  14
ATOM     14  N   UNL     1       0.420   9.972  17.856  0.00  0.00    +0.000 N 
ATOM     15  H   UNL     1       0.198  10.033  16.864  0.00  0.00    +0.000 HD
BRANCH  14  21
ATOM     16  C   UNL     1      -2.188  11.335  17.246  0.00  0.00    +0.000 C 
ATOM     17  N   UNL     1      -1.500  11.268  18.513  0.00  0.00    +0.000 N 
ATOM     18  N   UNL     1      -2.066  11.847  19.591  0.00  0.00    +0.000 NA
ATOM     19  C   UNL     1      -1.194  11.630  20.584  0.00  0.00    +0.000 A 
ATOM     20  C   UNL     1      -0.086  10.876  20.126  0.00  0.00    +0.000 A 
ATOM     21  C   UNL     1      -0.301  10.652  18.785  0.00  0.00    +0.000 A 
BRANCH  19  22
ATOM     22  C   UNL     1      -1.464  12.134  21.990  0.00  0.00    +0.000 C 
ATOM     23  C   UNL     1      -0.558  13.341  22.294  0.00  0.00    +0.000 C 
ATOM     24  C   UNL     1      -2.938  12.574  22.141  0.00  0.00    +0.000 C 
ATOM     25  C   UNL     1      -1.198  11.037  23.042  0.00  0.00    +0.000 C 
ENDBRANCH  19  22
ENDBRANCH  14  21
ENDBRANCH   1  14
TORSDOF 5
ENDMDL
MODEL 2
REMARK VINA RESULT:      -7.1      3.276      7.954
REMARK  Name = 
REMARK  9 active torsions:
REMARK  status: ('A' for Active; 'I' for Inactive)
REMARK    1  A    between atoms: C_1  and  N_2
REMARK    2  A    between atoms: C_4  and  C_5
REMARK    3  A    between atoms: C_5  and  C_6
REMARK    4  A    between atoms: C_5  and  C_7
REMARK    5  A    between atoms: C_5  and  C_8
REMARK    6  A    between atoms: C_10  and  N_11
REMARK    7  A    between atoms: N_11  and  C_12
REMARK    8  A    between atoms: C_12  and  C_13
REMARK    9  A    between atoms: C_16  and  C_17
REMARK                            x       y       z     vdW  Elec       q    Type
REMARK                         _______ _______ _______ _____ _____    ______ ____
ROOT
ATOM      1  C   UNL     1       0.737   8.902  21.522  0.00  0.00    +0.000 C 
ENDROOT
BRANCH   1   2
ATOM      2  C   UNL     1       0.139   9.797  20.490  0.00  0.00    +0.000 A 
ATOM      3  C   UNL     1       0.533  11.059  20.115  0.00  0.00    +0.000 A 
ATOM      4  O   UNL     1      -0.303  11.489  19.131  0.00  0.00    +0.000 OA
ATOM      5  C   UNL     1      -1.169  10.441  18.936  0.00  0.00    +0.000 A 
ATOM      6  N   UNL     1      -0.945   9.414  19.732  0.00  0.00    +0.000 NA
BRANCH   5   7
ATOM      7  C   UNL     1      -2.181  10.632  17.902  0.00  0.00    +0.000 A 
ATOM      8  C   UNL     1      -2.025   9.982  16.662  0.00  0.00    +0.000 A 
ATOM      9  C   UNL     1      -2.963  10.132  15.636  0.00  0.00    +0.000 A 
ATOM     10  C   UNL     1      -4.077  10.936  15.831  0.00  0.00    +0.000 A 
ATOM     11  C   UNL     1      -4.256  11.592  17.048  0.00  0.00    +0.000 A 
ATOM     12  C   UNL     1      -3.316  11.446  18.080  0.00  0.00    +0.000 A 
ATOM     13 BR   UNL     1      -3.711  12.364  19.700  0.00  0.00    +0.000 Br
ENDBRANCH   5   7
ENDBRANCH   1   2
BRANCH   1  14
ATOM     14  N   UNL     1       2.008   8.289  21.140  0.00  0.00    +0.000 N 
ATOM     15  H   UNL     1       2.770   8.963  21.104  0.00  0.00    +0.000 HD
BRANCH  14  21
ATOM     16  C   UNL     1       2.512   8.211  18.179  0.00  0.00    +0.000 C 
ATOM     17  N   UNL     1       2.289   7.096  19.068  0.00  0.00    +0.000 N 
ATOM     18  N   UNL     1       2.328   5.846  18.565  0.00  0.00    +0.000 NA
ATOM     19  C   UNL     1       2.071   5.055  19.615  0.00  0.00    +0.000 A 
ATOM     20  C   UNL     1       1.904   5.821  20.795  0.00  0.00    +0.000 A 
ATOM     21  C   UNL     1       2.047   7.137  20.421  0.00  0.00    +0.000 A 
BRANCH  19  22
ATOM     22  C   UNL     1       2.023   3.545  19.466  0.00  0.00    +0.000 C 
ATOM     23  C   UNL     1       1.052   2.950  20.502  0.00  0.00    +0.000 C 
ATOM     24  C   UNL     1       1.540   3.147  18.053  0.00  0.00    +0.000 C 
ATOM     25  C   UNL     1       3.416   2.914  19.674  0.00  0.00    +0.000 C 
ENDBRANCH  19  22
ENDBRANCH  14  21
ENDBRANCH   1  14
TORSDOF 5
ENDMDL
MODEL 3
REMARK VINA RESULT:      -7.1      2.240      3.166
REMARK  Name = 
REMARK  9 active torsions:
REMARK  status: ('A' for Active; 'I' for Inactive)
REMARK    1  A    between atoms: C_1  and  N_2
REMARK    2  A    between atoms: C_4  and  C_5
REMARK    3  A    between atoms: C_5  and  C_6
REMARK    4  A    between atoms: C_5  and  C_7
REMARK    5  A    between atoms: C_5  and  C_8
REMARK    6  A    between atoms: C_10  and  N_11
REMARK    7  A    between atoms: N_11  and  C_12
REMARK    8  A    between atoms: C_12  and  C_13
REMARK    9  A    between atoms: C_16  and  C_17
REMARK                            x       y       z     vdW  Elec       q    Type
REMARK                         _______ _______ _______ _____ _____    ______ ____
ROOT
ATOM      1  C   UNL     1       1.512   6.373  20.470  0.00  0.00    +0.000 C 
ENDROOT
BRANCH   1   2
ATOM      2  C   UNL     1       2.544   5.497  19.845  0.00  0.00    +0.000 A 
ATOM      3  C   UNL     1       2.907   4.216  20.189  0.00  0.00    +0.000 A 
ATOM      4  O   UNL     1       3.887   3.811  19.337  0.00  0.00    +0.000 OA
ATOM      5  C   UNL     1       4.063   4.875  18.487  0.00  0.00    +0.000 A 
ATOM      6  N   UNL     1       3.286   5.905  18.759  0.00  0.00    +0.000 NA
BRANCH   5   7
ATOM      7  C   UNL     1       5.067   4.699  17.441  0.00  0.00    +0.000 A 
ATOM      8  C   UNL     1       4.659   4.252  16.169  0.00  0.00    +0.000 A 
ATOM      9  C   UNL     1       5.578   4.064  15.132  0.00  0.00    +0.000 A 
ATOM     10  C   UNL     1       6.925   4.319  15.349  0.00  0.00    +0.000 A 
ATOM     11  C   UNL     1       7.356   4.761  16.599  0.00  0.00    +0.000 A 
ATOM     12  C   UNL     1       6.438   4.949  17.642  0.00  0.00    +0.000 A 
ATOM     13 BR   UNL     1       7.161   5.597  19.280  0.00  0.00    +0.000 Br
ENDBRANCH   5   7
ENDBRANCH   1   2
BRANCH   1  14
ATOM     14  N   UNL     1       2.017   7.639  20.996  0.00  0.00    +0.000 N 
ATOM     15  H   UNL     1       2.685   7.507  21.753  0.00  0.00    +0.000 HD
BRANCH  14  21
ATOM     16  C   UNL     1       1.653   9.081  18.386  0.00  0.00    +0.000 C 
ATOM     17  N   UNL     1       1.125   9.445  19.678  0.00  0.00    +0.000 N 
ATOM     18  N   UNL     1       0.346  10.541  19.777  0.00  0.00    +0.000 NA
ATOM     19  C   UNL     1       0.038  10.616  21.079  0.00  0.00    +0.000 A 
ATOM     20  C   UNL     1       0.604   9.533  21.794  0.00  0.00    +0.000 A 
ATOM     21  C   UNL     1       1.304   8.788  20.873  0.00  0.00    +0.000 A 
BRANCH  19  22
ATOM     22  C   UNL     1      -0.841  11.732  21.614  0.00  0.00    +0.000 C 
ATOM     23  C   UNL     1      -0.008  13.015  21.785  0.00  0.00    +0.000 C 
ATOM     24  C   UNL     1      -2.006  12.027  20.642  0.00  0.00    +0.000 C 
ATOM     25  C   UNL     1      -1.459  11.357  22.977  0.00  0.00    +0.000 C 
ENDBRANCH  19  22
ENDBRANCH  14  21
ENDBRANCH   1  14
TORSDOF 5
ENDMDL
MODEL 4
REMARK VINA RESULT:      -7.1      2.387      3.635
REMARK  Name = 
REMARK  9 active torsions:
REMARK  status: ('A' for Active; 'I' for Inactive)
REMARK    1  A    between atoms: C_1  and  N_2
REMARK    2  A    between atoms: C_4  and  C_5
REMARK    3  A    between atoms: C_5  and  C_6
REMARK    4  A    between atoms: C_5  and  C_7
REMARK    5  A    between atoms: C_5  and  C_8
REMARK    6  A    between atoms: C_10  and  N_11
REMARK    7  A    between atoms: N_11  and  C_12
REMARK    8  A    between atoms: C_12  and  C_13
REMARK    9  A    between atoms: C_16  and  C_17
REMARK                            x       y       z     vdW  Elec       q    Type
REMARK                         _______ _______ _______ _____ _____    ______ ____
ROOT
ATOM      1  C   UNL     1       1.618   6.600  20.643  0.00  0.00    +0.000 C 
ENDROOT
BRANCH   1   2
ATOM      2  C   UNL     1       2.581   5.688  19.964  0.00  0.00    +0.000 A 
ATOM      3  C   UNL     1       2.853   4.368  20.234  0.00  0.00    +0.000 A 
ATOM      4  O   UNL     1       3.798   3.941  19.354  0.00  0.00    +0.000 OA
ATOM      5  C   UNL     1       4.047   5.035  18.562  0.00  0.00    +0.000 A 
ATOM      6  N   UNL     1       3.348   6.101  18.896  0.00  0.00    +0.000 NA
BRANCH   5   7
ATOM      7  C   UNL     1       5.032   4.845  17.501  0.00  0.00    +0.000 A 
ATOM      8  C   UNL     1       4.592   4.459  16.220  0.00  0.00    +0.000 A 
ATOM      9  C   UNL     1       5.491   4.261  15.167  0.00  0.00    +0.000 A 
ATOM     10  C   UNL     1       6.850   4.446  15.378  0.00  0.00    +0.000 A 
ATOM     11  C   UNL     1       7.313   4.826  16.636  0.00  0.00    +0.000 A 
ATOM     12  C   UNL     1       6.415   5.024  17.695  0.00  0.00    +0.000 A 
ATOM     13 BR   UNL     1       7.183   5.584  19.345  0.00  0.00    +0.000 Br
ENDBRANCH   5   7
ENDBRANCH   1   2
BRANCH   1  14
ATOM     14  N   UNL     1       1.989   8.013  20.620  0.00  0.00    +0.000 N 
ATOM     15  H   UNL     1       2.856   8.197  21.122  0.00  0.00    +0.000 HD
BRANCH  14  21
ATOM     16  C   UNL     1       0.521   9.325  22.890  0.00  0.00    +0.000 C 
ATOM     17  N   UNL     1       0.390   9.595  21.479  0.00  0.00    +0.000 N 
ATOM     18  N   UNL     1      -0.460  10.562  21.078  0.00  0.00    +0.000 NA
ATOM     19  C   UNL     1      -0.369  10.555  19.742  0.00  0.00    +0.000 A 
ATOM     20  C   UNL     1       0.577   9.595  19.306  0.00  0.00    +0.000 A 
ATOM     21  C   UNL     1       1.056   8.984  20.442  0.00  0.00    +0.000 A 
BRANCH  19  22
ATOM     22  C   UNL     1      -1.184  11.515  18.895  0.00  0.00    +0.000 C 
ATOM     23  C   UNL     1      -2.340  12.095  19.730  0.00  0.00    +0.000 C 
ATOM     24  C   UNL     1      -0.307  12.683  18.390  0.00  0.00    +0.000 C 
ATOM     25  C   UNL     1      -1.774  10.810  17.655  0.00  0.00    +0.000 C 
ENDBRANCH  19  22
ENDBRANCH  14  21
ENDBRANCH   1  14
TORSDOF 5
ENDMDL
MODEL 5
REMARK VINA RESULT:      -7.1      1.697      2.787
REMARK  Name = 
REMARK  9 active torsions:
REMARK  status: ('A' for Active; 'I' for Inactive)
REMARK    1  A    between atoms: C_1  and  N_2
REMARK    2  A    between atoms: C_4  and  C_5
REMARK    3  A    between atoms: C_5  and  C_6
REMARK    4  A    between atoms: C_5  and  C_7
REMARK    5  A    between atoms: C_5  and  C_8
REMARK    6  A    between atoms: C_10  and  N_11
REMARK    7  A    between atoms: N_11  and  C_12
REMARK    8  A    between atoms: C_12  and  C_13
REMARK    9  A    between atoms: C_16  and  C_17
REMARK                            x       y       z     vdW  Elec       q    Type
REMARK                         _______ _______ _______ _____ _____    ______ ____
ROOT
ATOM      1  C   UNL     1       2.114   9.449  17.949  0.00  0.00    +0.000 C 
ENDROOT
BRANCH   1   2
ATOM      2  C   UNL     1       2.156   8.127  18.637  0.00  0.00    +0.000 A 
ATOM      3  C   UNL     1       1.921   7.840  19.961  0.00  0.00    +0.000 A 
ATOM      4  O   UNL     1       2.065   6.498  20.135  0.00  0.00    +0.000 OA
ATOM      5  C   UNL     1       2.366   6.021  18.883  0.00  0.00    +0.000 A 
ATOM      6  N   UNL     1       2.437   6.961  17.961  0.00  0.00    +0.000 NA
BRANCH   5   7
ATOM      7  C   UNL     1       2.560   4.578  18.778  0.00  0.00    +0.000 A 
ATOM      8  C   UNL     1       1.435   3.748  18.601  0.00  0.00    +0.000 A 
ATOM      9  C   UNL     1       1.562   2.359  18.497  0.00  0.00    +0.000 A 
ATOM     10  C   UNL     1       2.819   1.774  18.568  0.00  0.00    +0.000 A 
ATOM     11  C   UNL     1       3.948   2.572  18.745  0.00  0.00    +0.000 A 
ATOM     12  C   UNL     1       3.825   3.965  18.851  0.00  0.00    +0.000 A 
ATOM     13 BR   UNL     1       5.454   4.932  19.046  0.00  0.00    +0.000 Br
ENDBRANCH   5   7
ENDBRANCH   1   2
BRANCH   1  14
ATOM     14  N   UNL     1       1.472  10.518  18.711  0.00  0.00    +0.000 N 
ATOM     15  H   UNL     1       1.923  10.681  19.609  0.00  0.00    +0.000 HD
BRANCH  14  21
ATOM     16  C   UNL     1       0.281  13.138  19.572  0.00  0.00    +0.000 C 
ATOM     17  N   UNL     1      -0.375  12.053  18.884  0.00  0.00    +0.000 N 
ATOM     18  N   UNL     1      -1.671  12.190  18.538  0.00  0.00    +0.000 NA
ATOM     19  C   UNL     1      -1.984  11.030  17.945  0.00  0.00    +0.000 A 
ATOM     20  C   UNL     1      -0.858  10.173  17.889  0.00  0.00    +0.000 A 
ATOM     21  C   UNL     1       0.172  10.850  18.502  0.00  0.00    +0.000 A 
BRANCH  19  22
ATOM     22  C   UNL     1      -3.378  10.778  17.402  0.00  0.00    +0.000 C 
ATOM     23  C   UNL     1      -3.794   9.324  17.689  0.00  0.00    +0.000 C 
ATOM     24  C   UNL     1      -4.405  11.724  18.065  0.00  0.00    +0.000 C 
ATOM     25  C   UNL     1      -3.442  11.020  15.879  0.00  0.00    +0.000 C 
ENDBRANCH  19  22
ENDBRANCH  14  21
ENDBRANCH   1  14
TORSDOF 5
ENDMDL
MODEL 6
REMARK VINA RESULT:      -7.0      3.163      9.030
REMARK  Name = 
REMARK  9 active torsions:
REMARK  status: ('A' for Active; 'I' for Inactive)
REMARK    1  A    between atoms: C_1  and  N_2
REMARK    2  A    between atoms: C_4  and  C_5
REMARK    3  A    between atoms: C_5  and  C_6
REMARK    4  A    between atoms: C_5  and  C_7
REMARK    5  A    between atoms: C_5  and  C_8
REMARK    6  A    between atoms: C_10  and  N_11
REMARK    7  A    between atoms: N_11  and  C_12
REMARK    8  A    between atoms: C_12  and  C_13
REMARK    9  A    between atoms: C_16  and  C_17
REMARK                            x       y       z     vdW  Elec       q    Type
REMARK                         _______ _______ _______ _____ _____    ______ ____
ROOT
ATOM      1  C   UNL     1       0.927   8.934  20.335  0.00  0.00    +0.000 C 
ENDROOT
BRANCH   1   2
ATOM      2  C   UNL     1       0.325   9.685  21.473  0.00  0.00    +0.000 A 
ATOM      3  C   UNL     1       0.468   9.463  22.822  0.00  0.00    +0.000 A 
ATOM      4  O   UNL     1      -0.260  10.401  23.486  0.00  0.00    +0.000 OA
ATOM      5  C   UNL     1      -0.805  11.177  22.492  0.00  0.00    +0.000 A 
ATOM      6  N   UNL     1      -0.488  10.780  21.276  0.00  0.00    +0.000 NA
BRANCH   5   7
ATOM      7  C   UNL     1      -1.637  12.292  22.936  0.00  0.00    +0.000 A 
ATOM      8  C   UNL     1      -2.863  12.019  23.574  0.00  0.00    +0.000 A 
ATOM      9  C   UNL     1      -3.700  13.048  24.017  0.00  0.00    +0.000 A 
ATOM     10  C   UNL     1      -3.325  14.371  23.831  0.00  0.00    +0.000 A 
ATOM     11  C   UNL     1      -2.118  14.669  23.202  0.00  0.00    +0.000 A 
ATOM     12  C   UNL     1      -1.276  13.640  22.754  0.00  0.00    +0.000 A 
ATOM     13 BR   UNL     1       0.360  14.193  21.952  0.00  0.00    +0.000 Br
ENDBRANCH   5   7
ENDBRANCH   1   2
BRANCH   1  14
ATOM     14  N   UNL     1       1.911   7.924  20.719  0.00  0.00    +0.000 N 
ATOM     15  H   UNL     1       2.666   8.309  21.282  0.00  0.00    +0.000 HD
BRANCH  14  21
ATOM     16  C   UNL     1       2.889   7.930  17.878  0.00  0.00    +0.000 C 
ATOM     17  N   UNL     1       2.539   6.790  18.690  0.00  0.00    +0.000 N 
ATOM     18  N   UNL     1       2.675   5.554  18.169  0.00  0.00    +0.000 NA
ATOM     19  C   UNL     1       2.262   4.732  19.143  0.00  0.00    +0.000 A 
ATOM     20  C   UNL     1       1.896   5.465  20.299  0.00  0.00    +0.000 A 
ATOM     21  C   UNL     1       2.081   6.792  19.987  0.00  0.00    +0.000 A 
BRANCH  19  22
ATOM     22  C   UNL     1       2.258   3.227  18.951  0.00  0.00    +0.000 C 
ATOM     23  C   UNL     1       0.864   2.662  19.279  0.00  0.00    +0.000 C 
ATOM     24  C   UNL     1       2.607   2.859  17.490  0.00  0.00    +0.000 C 
ATOM     25  C   UNL     1       3.298   2.540  19.861  0.00  0.00    +0.000 C 
ENDBRANCH  19  22
ENDBRANCH  14  21
ENDBRANCH   1  14
TORSDOF 5
ENDMDL
MODEL 7
REMARK VINA RESULT:      -7.0      2.149      3.147
REMARK  Name = 
REMARK  9 active torsions:
REMARK  status: ('A' for Active; 'I' for Inactive)
REMARK    1  A    between atoms: C_1  and  N_2
REMARK    2  A    between atoms: C_4  and  C_5
REMARK    3  A    between atoms: C_5  and  C_6
REMARK    4  A    between atoms: C_5  and  C_7
REMARK    5  A    between atoms: C_5  and  C_8
REMARK    6  A    between atoms: C_10  and  N_11
REMARK    7  A    between atoms: N_11  and  C_12
REMARK    8  A    between atoms: C_12  and  C_13
REMARK    9  A    between atoms: C_16  and  C_17
REMARK                            x       y       z     vdW  Elec       q    Type
REMARK                         _______ _______ _______ _____ _____    ______ ____
ROOT
ATOM      1  C   UNL     1       0.553   9.940  19.444  0.00  0.00    +0.000 C 
ENDROOT
BRANCH   1   2
ATOM      2  C   UNL     1       1.420   8.729  19.398  0.00  0.00    +0.000 A 
ATOM      3  C   UNL     1       1.738   7.860  20.416  0.00  0.00    +0.000 A 
ATOM      4  O   UNL     1       2.554   6.896  19.910  0.00  0.00    +0.000 OA
ATOM      5  C   UNL     1       2.681   7.218  18.581  0.00  0.00    +0.000 A 
ATOM      6  N   UNL     1       2.026   8.308  18.235  0.00  0.00    +0.000 NA
BRANCH   5   7
ATOM      7  C   UNL     1       3.509   6.319  17.783  0.00  0.00    +0.000 A 
ATOM      8  C   UNL     1       4.687   6.817  17.193  0.00  0.00    +0.000 A 
ATOM      9  C   UNL     1       5.517   6.001  16.417  0.00  0.00    +0.000 A 
ATOM     10  C   UNL     1       5.182   4.669  16.216  0.00  0.00    +0.000 A 
ATOM     11  C   UNL     1       4.021   4.151  16.787  0.00  0.00    +0.000 A 
ATOM     12  C   UNL     1       3.185   4.966  17.565  0.00  0.00    +0.000 A 
ATOM     13 BR   UNL     1       1.658   4.114  18.317  0.00  0.00    +0.000 Br
ENDBRANCH   5   7
ENDBRANCH   1   2
BRANCH   1  14
ATOM     14  N   UNL     1       0.748  10.791  20.616  0.00  0.00    +0.000 N 
ATOM     15  H   UNL     1       1.696  10.737  20.984  0.00  0.00    +0.000 HD
BRANCH  14  21
ATOM     16  C   UNL     1       0.132   9.475  23.246  0.00  0.00    +0.000 C 
ATOM     17  N   UNL     1      -0.575  10.563  22.614  0.00  0.00    +0.000 N 
ATOM     18  N   UNL     1      -1.631  11.108  23.251  0.00  0.00    +0.000 NA
ATOM     19  C   UNL     1      -2.070  12.059  22.416  0.00  0.00    +0.000 A 
ATOM     20  C   UNL     1      -1.257  12.130  21.259  0.00  0.00    +0.000 A 
ATOM     21  C   UNL     1      -0.297  11.155  21.404  0.00  0.00    +0.000 A 
BRANCH  19  22
ATOM     22  C   UNL     1      -3.269  12.921  22.769  0.00  0.00    +0.000 C 
ATOM     23  C   UNL     1      -3.863  12.462  24.113  0.00  0.00    +0.000 C 
ATOM     24  C   UNL     1      -2.859  14.407  22.895  0.00  0.00    +0.000 C 
ATOM     25  C   UNL     1      -4.365  12.834  21.687  0.00  0.00    +0.000 C 
ENDBRANCH  19  22
ENDBRANCH  14  21
ENDBRANCH   1  14
TORSDOF 5
ENDMDL
MODEL 8
REMARK VINA RESULT:      -7.0      2.562      3.720
REMARK  Name = 
REMARK  9 active torsions:
REMARK  status: ('A' for Active; 'I' for Inactive)
REMARK    1  A    between atoms: C_1  and  N_2
REMARK    2  A    between atoms: C_4  and  C_5
REMARK    3  A    between atoms: C_5  and  C_6
REMARK    4  A    between atoms: C_5  and  C_7
REMARK    5  A    between atoms: C_5  and  C_8
REMARK    6  A    between atoms: C_10  and  N_11
REMARK    7  A    between atoms: N_11  and  C_12
REMARK    8  A    between atoms: C_12  and  C_13
REMARK    9  A    between atoms: C_16  and  C_17
REMARK                            x       y       z     vdW  Elec       q    Type
REMARK                         _______ _______ _______ _____ _____    ______ ____
ROOT
ATOM      1  C   UNL     1      -0.202  10.486  18.646  0.00  0.00    +0.000 C 
ENDROOT
BRANCH   1   2
ATOM      2  C   UNL     1       0.794   9.402  18.883  0.00  0.00    +0.000 A 
ATOM      3  C   UNL     1       1.206   8.860  20.078  0.00  0.00    +0.000 A 
ATOM      4  O   UNL     1       2.124   7.892  19.809  0.00  0.00    +0.000 OA
ATOM      5  C   UNL     1       2.214   7.877  18.439  0.00  0.00    +0.000 A 
ATOM      6  N   UNL     1       1.442   8.768  17.847  0.00  0.00    +0.000 NA
BRANCH   5   7
ATOM      7  C   UNL     1       3.137   6.899  17.870  0.00  0.00    +0.000 A 
ATOM      8  C   UNL     1       4.236   7.353  17.115  0.00  0.00    +0.000 A 
ATOM      9  C   UNL     1       5.150   6.461  16.546  0.00  0.00    +0.000 A 
ATOM     10  C   UNL     1       4.980   5.094  16.721  0.00  0.00    +0.000 A 
ATOM     11  C   UNL     1       3.900   4.618  17.462  0.00  0.00    +0.000 A 
ATOM     12  C   UNL     1       2.980   5.510  18.034  0.00  0.00    +0.000 A 
ATOM     13 BR   UNL     1       1.581   4.720  19.055  0.00  0.00    +0.000 Br
ENDBRANCH   5   7
ENDBRANCH   1   2
BRANCH   1  14
ATOM     14  N   UNL     1      -0.957  10.364  17.401  0.00  0.00    +0.000 N 
ATOM     15  H   UNL     1      -0.356  10.378  16.578  0.00  0.00    +0.000 HD
BRANCH  14  21
ATOM     16  C   UNL     1      -2.664   9.913  14.970  0.00  0.00    +0.000 C 
ATOM     17  N   UNL     1      -3.051  10.515  16.223  0.00  0.00    +0.000 N 
ATOM     18  N   UNL     1      -4.328  10.916  16.385  0.00  0.00    +0.000 NA
ATOM     19  C   UNL     1      -4.361  11.437  17.618  0.00  0.00    +0.000 A 
ATOM     20  C   UNL     1      -3.097  11.327  18.247  0.00  0.00    +0.000 A 
ATOM     21  C   UNL     1      -2.263  10.730  17.330  0.00  0.00    +0.000 A 
BRANCH  19  22
ATOM     22  C   UNL     1      -5.643  12.011  18.193  0.00  0.00    +0.000 C 
ATOM     23  C   UNL     1      -5.346  12.714  19.531  0.00  0.00    +0.000 C 
ATOM     24  C   UNL     1      -6.267  13.041  17.224  0.00  0.00    +0.000 C 
ATOM     25  C   UNL     1      -6.695  10.908  18.436  0.00  0.00    +0.000 C 
ENDBRANCH  19  22
ENDBRANCH  14  21
ENDBRANCH   1  14
TORSDOF 5
ENDMDL
MODEL 9
REMARK VINA RESULT:      -6.9      0.487      1.034
REMARK  Name = 
REMARK  9 active torsions:
REMARK  status: ('A' for Active; 'I' for Inactive)
REMARK    1  A    between atoms: C_1  and  N_2
REMARK    2  A    between atoms: C_4  and  C_5
REMARK    3  A    between atoms: C_5  and  C_6
REMARK    4  A    between atoms: C_5  and  C_7
REMARK    5  A    between atoms: C_5  and  C_8
REMARK    6  A    between atoms: C_10  and  N_11
REMARK    7  A    between atoms: N_11  and  C_12
REMARK    8  A    between atoms: C_12  and  C_13
REMARK    9  A    between atoms: C_16  and  C_17
REMARK                            x       y       z     vdW  Elec       q    Type
REMARK                         _______ _______ _______ _____ _____    ______ ____
ROOT
ATOM      1  C   UNL     1       2.115   9.630  18.042  0.00  0.00    +0.000 C 
ENDROOT
BRANCH   1   2
ATOM      2  C   UNL     1       2.174   8.252  18.607  0.00  0.00    +0.000 A 
ATOM      3  C   UNL     1       1.996   7.849  19.909  0.00  0.00    +0.000 A 
ATOM      4  O   UNL     1       2.134   6.496  19.957  0.00  0.00    +0.000 OA
ATOM      5  C   UNL     1       2.373   6.131  18.655  0.00  0.00    +0.000 A 
ATOM      6  N   UNL     1       2.412   7.149  17.818  0.00  0.00    +0.000 NA
BRANCH   5   7
ATOM      7  C   UNL     1       2.546   4.701  18.414  0.00  0.00    +0.000 A 
ATOM      8  C   UNL     1       1.444   3.841  18.580  0.00  0.00    +0.000 A 
ATOM      9  C   UNL     1       1.553   2.464  18.365  0.00  0.00    +0.000 A 
ATOM     10  C   UNL     1       2.771   1.920  17.978  0.00  0.00    +0.000 A 
ATOM     11  C   UNL     1       3.878   2.750  17.807  0.00  0.00    +0.000 A 
ATOM     12  C   UNL     1       3.773   4.131  18.024  0.00  0.00    +0.000 A 
ATOM     13 BR   UNL     1       5.354   5.145  17.711  0.00  0.00    +0.000 Br
ENDBRANCH   5   7
ENDBRANCH   1   2
BRANCH   1  14
ATOM     14  N   UNL     1       0.772  10.100  17.709  0.00  0.00    +0.000 N 
ATOM     15  H   UNL     1       0.668  10.312  16.718  0.00  0.00    +0.000 HD
BRANCH  14  21
ATOM     16  C   UNL     1      -2.172  10.554  17.317  0.00  0.00    +0.000 C 
ATOM     17  N   UNL     1      -1.373  10.880  18.473  0.00  0.00    +0.000 N 
ATOM     18  N   UNL     1      -1.976  11.433  19.545  0.00  0.00    +0.000 NA
ATOM     19  C   UNL     1      -0.984  11.628  20.423  0.00  0.00    +0.000 A 
ATOM     20  C   UNL     1       0.248  11.160  19.905  0.00  0.00    +0.000 A 
ATOM     21  C   UNL     1      -0.023  10.681  18.644  0.00  0.00    +0.000 A 
BRANCH  19  22
ATOM     22  C   UNL     1      -1.252  12.244  21.785  0.00  0.00    +0.000 C 
ATOM     23  C   UNL     1      -1.156  11.160  22.875  0.00  0.00    +0.000 C 
ATOM     24  C   UNL     1      -0.221  13.351  22.099  0.00  0.00    +0.000 C 
ATOM     25  C   UNL     1      -2.654  12.885  21.847  0.00  0.00    +0.000 C 
ENDBRANCH  19  22
ENDBRANCH  14  21
ENDBRANCH   1  14
TORSDOF 5
ENDMDL
