MODEL 1
REMARK VINA RESULT:      -9.4      0.000      0.000
REMARK  Name = 
REMARK  6 active torsions:
REMARK  status: ('A' for Active; 'I' for Inactive)
REMARK    1  A    between atoms: C_5  and  N_6
REMARK    2  A    between atoms: C_9  and  O_10
REMARK    3  A    between atoms: O_10  and  C_11
REMARK    4  A    between atoms: C_11  and  C_12
REMARK    5  A    between atoms: C_15  and  C_16
REMARK    6  A    between atoms: C_16  and  N_17
REMARK                            x       y       z     vdW  Elec       q    Type
REMARK                         _______ _______ _______ _____ _____    ______ ____
ROOT
ATOM      1  N   UNL     1       4.474   3.770  17.469  0.00  0.00    +0.000 N 
ATOM      2  C   UNL     1       4.078   5.089  17.923  0.00  0.00    +0.000 C 
ATOM      3  C   UNL     1       2.963   4.828  18.894  0.00  0.00    +0.000 A 
ATOM      4  C   UNL     1       2.208   5.727  19.682  0.00  0.00    +0.000 A 
ATOM      5  C   UNL     1       1.225   5.192  20.529  0.00  0.00    +0.000 A 
ATOM      6  C   UNL     1       1.004   3.805  20.592  0.00  0.00    +0.000 A 
ATOM      7  C   UNL     1       1.765   2.929  19.801  0.00  0.00    +0.000 A 
ATOM      8  C   UNL     1       2.737   3.474  18.960  0.00  0.00    +0.000 A 
ATOM      9  C   UNL     1       3.679   2.839  18.053  0.00  0.00    +0.000 C 
ATOM     10  O   UNL     1       3.757   1.638  17.853  0.00  0.00    +0.000 OA
ENDROOT
BRANCH   1  15
ATOM     11  O   UNL     1       7.771   5.743  13.861  0.00  0.00    +0.000 OA
ATOM     12  C   UNL     1       7.231   4.979  14.646  0.00  0.00    +0.000 C 
ATOM     13  C   UNL     1       6.295   3.915  14.142  0.00  0.00    +0.000 C 
ATOM     14  C   UNL     1       5.106   3.853  15.084  0.00  0.00    +0.000 C 
ATOM     15  C   UNL     1       5.575   3.503  16.523  0.00  0.00    +0.000 C 
ATOM     16  C   UNL     1       6.854   4.288  16.888  0.00  0.00    +0.000 C 
ATOM     17  O   UNL     1       7.295   4.230  18.025  0.00  0.00    +0.000 OA
ATOM     18  N   UNL     1       7.528   5.038  15.969  0.00  0.00    +0.000 N 
ATOM     19  H   UNL     1       8.290   5.658  16.286  0.00  0.00    +0.000 HD
ENDBRANCH   1  15
BRANCH   4  20
ATOM     20  O   UNL     1       2.368   7.070  19.690  0.00  0.00    +0.000 OA
BRANCH  20  21
ATOM     21  C   UNL     1       2.025   7.945  20.697  0.00  0.00    +0.000 C 
BRANCH  21  22
ATOM     22  C   UNL     1       1.081   8.955  20.155  0.00  0.00    +0.000 A 
ATOM     23  C   UNL     1       1.230   9.461  18.857  0.00  0.00    +0.000 A 
ATOM     24  C   UNL     1       0.282  10.348  18.346  0.00  0.00    +0.000 A 
ATOM     25  C   UNL     1      -0.828  10.718  19.122  0.00  0.00    +0.000 A 
ATOM     26  C   UNL     1      -0.933  10.259  20.444  0.00  0.00    +0.000 A 
ATOM     27  C   UNL     1       0.013   9.378  20.953  0.00  0.00    +0.000 A 
BRANCH  25  28
ATOM     28  C   UNL     1      -1.921  11.571  18.541  0.00  0.00    +0.000 C 
BRANCH  28  29
ATOM     29  N   UNL     1      -3.151  10.818  18.168  0.00  0.00    +0.000 NA
ATOM     30  C   UNL     1      -3.004   9.535  17.450  0.00  0.00    +0.000 C 
ATOM     31  C   UNL     1      -2.982   9.724  15.915  0.00  0.00    +0.000 C 
ATOM     32  O   UNL     1      -4.120  10.441  15.474  0.00  0.00    +0.000 OA
ATOM     33  C   UNL     1      -4.124  11.728  16.062  0.00  0.00    +0.000 C 
ATOM     34  C   UNL     1      -4.246  11.622  17.590  0.00  0.00    +0.000 C 
ENDBRANCH  28  29
ENDBRANCH  25  28
ENDBRANCH  21  22
ENDBRANCH  20  21
ENDBRANCH   4  20
TORSDOF 6
ENDMDL
MODEL 2
REMARK VINA RESULT:      -9.3      2.562      3.404
REMARK  Name = 
REMARK  6 active torsions:
REMARK  status: ('A' for Active; 'I' for Inactive)
REMARK    1  A    between atoms: C_5  and  N_6
REMARK    2  A    between atoms: C_9  and  O_10
REMARK    3  A    between atoms: O_10  and  C_11
REMARK    4  A    between atoms: C_11  and  C_12
REMARK    5  A    between atoms: C_15  and  C_16
REMARK    6  A    between atoms: C_16  and  N_17
REMARK                            x       y       z     vdW  Elec       q    Type
REMARK                         _______ _______ _______ _____ _____    ______ ____
ROOT
ATOM      1  N   UNL     1       4.513   3.924  17.406  0.00  0.00    +0.000 N 
ATOM      2  C   UNL     1       4.176   5.265  17.842  0.00  0.00    +0.000 C 
ATOM      3  C   UNL     1       3.059   5.066  18.826  0.00  0.00    +0.000 A 
ATOM      4  C   UNL     1       2.349   6.007  19.605  0.00  0.00    +0.000 A 
ATOM      5  C   UNL     1       1.352   5.526  20.467  0.00  0.00    +0.000 A 
ATOM      6  C   UNL     1       1.074   4.150  20.555  0.00  0.00    +0.000 A 
ATOM      7  C   UNL     1       1.793   3.232  19.772  0.00  0.00    +0.000 A 
ATOM      8  C   UNL     1       2.779   3.723  18.915  0.00  0.00    +0.000 A 
ATOM      9  C   UNL     1       3.687   3.036  18.011  0.00  0.00    +0.000 C 
ATOM     10  O   UNL     1       3.713   1.830  17.830  0.00  0.00    +0.000 OA
ENDROOT
BRANCH   1  15
ATOM     11  O   UNL     1       7.830   5.695  13.712  0.00  0.00    +0.000 OA
ATOM     12  C   UNL     1       7.275   4.969  14.523  0.00  0.00    +0.000 C 
ATOM     13  C   UNL     1       6.301   3.923  14.057  0.00  0.00    +0.000 C 
ATOM     14  C   UNL     1       5.121   3.924  15.013  0.00  0.00    +0.000 C 
ATOM     15  C   UNL     1       5.595   3.597  16.456  0.00  0.00    +0.000 C 
ATOM     16  C   UNL     1       6.902   4.351  16.787  0.00  0.00    +0.000 C 
ATOM     17  O   UNL     1       7.354   4.309  17.920  0.00  0.00    +0.000 OA
ATOM     18  N   UNL     1       7.589   5.054  15.840  0.00  0.00    +0.000 N 
ATOM     19  H   UNL     1       8.374   5.658  16.132  0.00  0.00    +0.000 HD
ENDBRANCH   1  15
BRANCH   4  20
ATOM     20  O   UNL     1       2.564   7.343  19.590  0.00  0.00    +0.000 OA
BRANCH  20  21
ATOM     21  C   UNL     1       2.149   8.243  18.634  0.00  0.00    +0.000 C 
BRANCH  21  22
ATOM     22  C   UNL     1       1.187   9.191  19.252  0.00  0.00    +0.000 A 
ATOM     23  C   UNL     1       0.888   9.129  20.620  0.00  0.00    +0.000 A 
ATOM     24  C   UNL     1       0.043  10.082  21.189  0.00  0.00    +0.000 A 
ATOM     25  C   UNL     1      -0.490  11.113  20.398  0.00  0.00    +0.000 A 
ATOM     26  C   UNL     1      -0.239  11.128  19.017  0.00  0.00    +0.000 A 
ATOM     27  C   UNL     1       0.600  10.176  18.451  0.00  0.00    +0.000 A 
BRANCH  25  28
ATOM     28  C   UNL     1      -1.298  12.218  21.020  0.00  0.00    +0.000 C 
BRANCH  28  29
ATOM     29  N   UNL     1      -0.572  12.992  22.064  0.00  0.00    +0.000 NA
ATOM     30  C   UNL     1      -1.308  13.407  23.277  0.00  0.00    +0.000 C 
ATOM     31  C   UNL     1      -1.982  14.789  23.107  0.00  0.00    +0.000 C 
ATOM     32  O   UNL     1      -1.042  15.768  22.707  0.00  0.00    +0.000 OA
ATOM     33  C   UNL     1      -0.488  15.408  21.456  0.00  0.00    +0.000 C 
ATOM     34  C   UNL     1       0.288  14.087  21.571  0.00  0.00    +0.000 C 
ENDBRANCH  28  29
ENDBRANCH  25  28
ENDBRANCH  21  22
ENDBRANCH  20  21
ENDBRANCH   4  20
TORSDOF 6
ENDMDL
MODEL 3
REMARK VINA RESULT:      -9.3      2.439      3.228
REMARK  Name = 
REMARK  6 active torsions:
REMARK  status: ('A' for Active; 'I' for Inactive)
REMARK    1  A    between atoms: C_5  and  N_6
REMARK    2  A    between atoms: C_9  and  O_10
REMARK    3  A    between atoms: O_10  and  C_11
REMARK    4  A    between atoms: C_11  and  C_12
REMARK    5  A    between atoms: C_15  and  C_16
REMARK    6  A    between atoms: C_16  and  N_17
REMARK                            x       y       z     vdW  Elec       q    Type
REMARK                         _______ _______ _______ _____ _____    ______ ____
ROOT
ATOM      1  N   UNL     1       4.527   4.429  17.397  0.00  0.00    +0.000 N 
ATOM      2  C   UNL     1       4.116   5.815  17.500  0.00  0.00    +0.000 C 
ATOM      3  C   UNL     1       3.146   5.830  18.646  0.00  0.00    +0.000 A 
ATOM      4  C   UNL     1       2.444   6.907  19.235  0.00  0.00    +0.000 A 
ATOM      5  C   UNL     1       1.605   6.626  20.325  0.00  0.00    +0.000 A 
ATOM      6  C   UNL     1       1.472   5.314  20.815  0.00  0.00    +0.000 A 
ATOM      7  C   UNL     1       2.180   4.259  20.215  0.00  0.00    +0.000 A 
ATOM      8  C   UNL     1       3.007   4.551  19.130  0.00  0.00    +0.000 A 
ATOM      9  C   UNL     1       3.865   3.695  18.325  0.00  0.00    +0.000 C 
ATOM     10  O   UNL     1       3.986   2.491  18.472  0.00  0.00    +0.000 OA
ENDROOT
BRANCH   1  15
ATOM     11  O   UNL     1       7.958   5.577  13.563  0.00  0.00    +0.000 OA
ATOM     12  C   UNL     1       7.325   4.965  14.410  0.00  0.00    +0.000 C 
ATOM     13  C   UNL     1       6.189   4.068  14.003  0.00  0.00    +0.000 C 
ATOM     14  C   UNL     1       5.053   4.274  14.990  0.00  0.00    +0.000 C 
ATOM     15  C   UNL     1       5.516   3.917  16.428  0.00  0.00    +0.000 C 
ATOM     16  C   UNL     1       6.932   4.470  16.701  0.00  0.00    +0.000 C 
ATOM     17  O   UNL     1       7.407   4.389  17.823  0.00  0.00    +0.000 OA
ATOM     18  N   UNL     1       7.688   5.035  15.716  0.00  0.00    +0.000 N 
ATOM     19  H   UNL     1       8.565   5.519  15.969  0.00  0.00    +0.000 HD
ENDBRANCH   1  15
BRANCH   4  20
ATOM     20  O   UNL     1       2.527   8.196  18.833  0.00  0.00    +0.000 OA
BRANCH  20  21
ATOM     21  C   UNL     1       1.902   8.774  17.751  0.00  0.00    +0.000 C 
BRANCH  21  22
ATOM     22  C   UNL     1       1.018   9.866  18.232  0.00  0.00    +0.000 A 
ATOM     23  C   UNL     1      -0.372   9.694  18.302  0.00  0.00    +0.000 A 
ATOM     24  C   UNL     1      -1.170  10.707  18.834  0.00  0.00    +0.000 A 
ATOM     25  C   UNL     1      -0.582  11.887  19.317  0.00  0.00    +0.000 A 
ATOM     26  C   UNL     1       0.802  12.078  19.181  0.00  0.00    +0.000 A 
ATOM     27  C   UNL     1       1.596  11.069  18.648  0.00  0.00    +0.000 A 
BRANCH  25  28
ATOM     28  C   UNL     1      -1.414  12.932  20.007  0.00  0.00    +0.000 C 
BRANCH  28  29
ATOM     29  N   UNL     1      -0.959  13.262  21.386  0.00  0.00    +0.000 NA
ATOM     30  C   UNL     1      -1.060  12.221  22.431  0.00  0.00    +0.000 C 
ATOM     31  C   UNL     1      -2.422  12.259  23.163  0.00  0.00    +0.000 C 
ATOM     32  O   UNL     1      -2.685  13.548  23.683  0.00  0.00    +0.000 OA
ATOM     33  C   UNL     1      -2.746  14.483  22.623  0.00  0.00    +0.000 C 
ATOM     34  C   UNL     1      -1.389  14.575  21.908  0.00  0.00    +0.000 C 
ENDBRANCH  28  29
ENDBRANCH  25  28
ENDBRANCH  21  22
ENDBRANCH  20  21
ENDBRANCH   4  20
TORSDOF 6
ENDMDL
MODEL 4
REMARK VINA RESULT:      -9.3      2.350      3.052
REMARK  Name = 
REMARK  6 active torsions:
REMARK  status: ('A' for Active; 'I' for Inactive)
REMARK    1  A    between atoms: C_5  and  N_6
REMARK    2  A    between atoms: C_9  and  O_10
REMARK    3  A    between atoms: O_10  and  C_11
REMARK    4  A    between atoms: C_11  and  C_12
REMARK    5  A    between atoms: C_15  and  C_16
REMARK    6  A    between atoms: C_16  and  N_17
REMARK                            x       y       z     vdW  Elec       q    Type
REMARK                         _______ _______ _______ _____ _____    ______ ____
ROOT
ATOM      1  N   UNL     1       4.414   4.743  17.634  0.00  0.00    +0.000 N 
ATOM      2  C   UNL     1       3.985   6.125  17.551  0.00  0.00    +0.000 C 
ATOM      3  C   UNL     1       3.069   6.300  18.728  0.00  0.00    +0.000 A 
ATOM      4  C   UNL     1       2.377   7.444  19.186  0.00  0.00    +0.000 A 
ATOM      5  C   UNL     1       1.595   7.319  20.344  0.00  0.00    +0.000 A 
ATOM      6  C   UNL     1       1.507   6.094  21.028  0.00  0.00    +0.000 A 
ATOM      7  C   UNL     1       2.203   4.968  20.556  0.00  0.00    +0.000 A 
ATOM      8  C   UNL     1       2.975   5.105  19.401  0.00  0.00    +0.000 A 
ATOM      9  C   UNL     1       3.809   4.148  18.691  0.00  0.00    +0.000 C 
ATOM     10  O   UNL     1       3.956   2.979  19.007  0.00  0.00    +0.000 OA
ENDROOT
BRANCH   1  15
ATOM     11  O   UNL     1       7.961   5.409  13.792  0.00  0.00    +0.000 OA
ATOM     12  C   UNL     1       7.272   4.895  14.660  0.00  0.00    +0.000 C 
ATOM     13  C   UNL     1       6.070   4.075  14.283  0.00  0.00    +0.000 C 
ATOM     14  C   UNL     1       4.946   4.423  15.244  0.00  0.00    +0.000 C 
ATOM     15  C   UNL     1       5.366   4.102  16.704  0.00  0.00    +0.000 C 
ATOM     16  C   UNL     1       6.820   4.551  16.968  0.00  0.00    +0.000 C 
ATOM     17  O   UNL     1       7.277   4.488  18.098  0.00  0.00    +0.000 OA
ATOM     18  N   UNL     1       7.629   5.001  15.965  0.00  0.00    +0.000 N 
ATOM     19  H   UNL     1       8.540   5.424  16.205  0.00  0.00    +0.000 HD
ENDBRANCH   1  15
BRANCH   4  20
ATOM     20  O   UNL     1       2.419   8.661  18.595  0.00  0.00    +0.000 OA
BRANCH  20  21
ATOM     21  C   UNL     1       1.505   9.191  17.712  0.00  0.00    +0.000 C 
BRANCH  21  22
ATOM     22  C   UNL     1       0.647  10.164  18.436  0.00  0.00    +0.000 A 
ATOM     23  C   UNL     1       1.208  11.222  19.164  0.00  0.00    +0.000 A 
ATOM     24  C   UNL     1       0.377  12.167  19.765  0.00  0.00    +0.000 A 
ATOM     25  C   UNL     1      -1.017  12.070  19.626  0.00  0.00    +0.000 A 
ATOM     26  C   UNL     1      -1.572  10.970  18.953  0.00  0.00    +0.000 A 
ATOM     27  C   UNL     1      -0.743  10.028  18.356  0.00  0.00    +0.000 A 
BRANCH  25  28
ATOM     28  C   UNL     1      -1.919  13.148  20.161  0.00  0.00    +0.000 C 
BRANCH  28  29
ATOM     29  N   UNL     1      -3.143  12.640  20.839  0.00  0.00    +0.000 NA
ATOM     30  C   UNL     1      -4.459  13.139  20.389  0.00  0.00    +0.000 C 
ATOM     31  C   UNL     1      -4.893  14.412  21.154  0.00  0.00    +0.000 C 
ATOM     32  O   UNL     1      -4.866  14.199  22.553  0.00  0.00    +0.000 OA
ATOM     33  C   UNL     1      -3.547  13.888  22.958  0.00  0.00    +0.000 C 
ATOM     34  C   UNL     1      -3.081  12.574  22.313  0.00  0.00    +0.000 C 
ENDBRANCH  28  29
ENDBRANCH  25  28
ENDBRANCH  21  22
ENDBRANCH  20  21
ENDBRANCH   4  20
TORSDOF 6
ENDMDL
MODEL 5
REMARK VINA RESULT:      -9.3      2.384      3.117
REMARK  Name = 
REMARK  6 active torsions:
REMARK  status: ('A' for Active; 'I' for Inactive)
REMARK    1  A    between atoms: C_5  and  N_6
REMARK    2  A    between atoms: C_9  and  O_10
REMARK    3  A    between atoms: O_10  and  C_11
REMARK    4  A    between atoms: C_11  and  C_12
REMARK    5  A    between atoms: C_15  and  C_16
REMARK    6  A    between atoms: C_16  and  N_17
REMARK                            x       y       z     vdW  Elec       q    Type
REMARK                         _______ _______ _______ _____ _____    ______ ____
ROOT
ATOM      1  N   UNL     1       4.509   3.868  17.370  0.00  0.00    +0.000 N 
ATOM      2  C   UNL     1       4.153   5.203  17.806  0.00  0.00    +0.000 C 
ATOM      3  C   UNL     1       3.028   4.988  18.778  0.00  0.00    +0.000 A 
ATOM      4  C   UNL     1       2.299   5.919  19.553  0.00  0.00    +0.000 A 
ATOM      5  C   UNL     1       1.299   5.425  20.404  0.00  0.00    +0.000 A 
ATOM      6  C   UNL     1       1.036   4.046  20.484  0.00  0.00    +0.000 A 
ATOM      7  C   UNL     1       1.773   3.138  19.706  0.00  0.00    +0.000 A 
ATOM      8  C   UNL     1       2.762   3.642  18.860  0.00  0.00    +0.000 A 
ATOM      9  C   UNL     1       3.686   2.968  17.963  0.00  0.00    +0.000 C 
ATOM     10  O   UNL     1       3.728   1.763  17.779  0.00  0.00    +0.000 OA
ENDROOT
BRANCH   1  15
ATOM     11  O   UNL     1       7.801   5.674  13.670  0.00  0.00    +0.000 OA
ATOM     12  C   UNL     1       7.260   4.945  14.487  0.00  0.00    +0.000 C 
ATOM     13  C   UNL     1       6.315   3.868  14.031  0.00  0.00    +0.000 C 
ATOM     14  C   UNL     1       5.129   3.852  14.980  0.00  0.00    +0.000 C 
ATOM     15  C   UNL     1       5.604   3.556  16.429  0.00  0.00    +0.000 C 
ATOM     16  C   UNL     1       6.890   4.347  16.757  0.00  0.00    +0.000 C 
ATOM     17  O   UNL     1       7.336   4.331  17.893  0.00  0.00    +0.000 OA
ATOM     18  N   UNL     1       7.564   5.054  15.805  0.00  0.00    +0.000 N 
ATOM     19  H   UNL     1       8.332   5.681  16.093  0.00  0.00    +0.000 HD
ENDBRANCH   1  15
BRANCH   4  20
ATOM     20  O   UNL     1       2.500   7.257  19.544  0.00  0.00    +0.000 OA
BRANCH  20  21
ATOM     21  C   UNL     1       2.197   8.139  18.531  0.00  0.00    +0.000 C 
BRANCH  21  22
ATOM     22  C   UNL     1       1.369   9.241  19.084  0.00  0.00    +0.000 A 
ATOM     23  C   UNL     1       0.889   9.195  20.400  0.00  0.00    +0.000 A 
ATOM     24  C   UNL     1       0.183  10.280  20.919  0.00  0.00    +0.000 A 
ATOM     25  C   UNL     1      -0.029  11.424  20.133  0.00  0.00    +0.000 A 
ATOM     26  C   UNL     1       0.397  11.435  18.795  0.00  0.00    +0.000 A 
ATOM     27  C   UNL     1       1.098  10.352  18.279  0.00  0.00    +0.000 A 
BRANCH  25  28
ATOM     28  C   UNL     1      -0.676  12.649  20.718  0.00  0.00    +0.000 C 
BRANCH  28  29
ATOM     29  N   UNL     1      -1.684  12.361  21.775  0.00  0.00    +0.000 NA
ATOM     30  C   UNL     1      -3.109  12.622  21.483  0.00  0.00    +0.000 C 
ATOM     31  C   UNL     1      -3.528  14.063  21.857  0.00  0.00    +0.000 C 
ATOM     32  O   UNL     1      -3.211  14.351  23.206  0.00  0.00    +0.000 OA
ATOM     33  C   UNL     1      -1.812  14.251  23.395  0.00  0.00    +0.000 C 
ATOM     34  C   UNL     1      -1.335  12.814  23.137  0.00  0.00    +0.000 C 
ENDBRANCH  28  29
ENDBRANCH  25  28
ENDBRANCH  21  22
ENDBRANCH  20  21
ENDBRANCH   4  20
TORSDOF 6
ENDMDL
MODEL 6
REMARK VINA RESULT:      -9.1      2.237      3.057
REMARK  Name = 
REMARK  6 active torsions:
REMARK  status: ('A' for Active; 'I' for Inactive)
REMARK    1  A    between atoms: C_5  and  N_6
REMARK    2  A    between atoms: C_9  and  O_10
REMARK    3  A    between atoms: O_10  and  C_11
REMARK    4  A    between atoms: C_11  and  C_12
REMARK    5  A    between atoms: C_15  and  C_16
REMARK    6  A    between atoms: C_16  and  N_17
REMARK                            x       y       z     vdW  Elec       q    Type
REMARK                         _______ _______ _______ _____ _____    ______ ____
ROOT
ATOM      1  N   UNL     1       4.709   4.333  16.994  0.00  0.00    +0.000 N 
ATOM      2  C   UNL     1       4.311   5.714  17.175  0.00  0.00    +0.000 C 
ATOM      3  C   UNL     1       3.358   5.677  18.335  0.00  0.00    +0.000 A 
ATOM      4  C   UNL     1       2.673   6.726  18.990  0.00  0.00    +0.000 A 
ATOM      5  C   UNL     1       1.849   6.395  20.076  0.00  0.00    +0.000 A 
ATOM      6  C   UNL     1       1.713   5.061  20.499  0.00  0.00    +0.000 A 
ATOM      7  C   UNL     1       2.402   4.034  19.835  0.00  0.00    +0.000 A 
ATOM      8  C   UNL     1       3.216   4.375  18.754  0.00  0.00    +0.000 A 
ATOM      9  C   UNL     1       4.055   3.556  17.893  0.00  0.00    +0.000 C 
ATOM     10  O   UNL     1       4.168   2.345  17.975  0.00  0.00    +0.000 OA
ENDROOT
BRANCH   1  15
ATOM     11  O   UNL     1       7.829   5.607  12.941  0.00  0.00    +0.000 OA
ATOM     12  C   UNL     1       7.291   4.978  13.839  0.00  0.00    +0.000 C 
ATOM     13  C   UNL     1       6.205   3.987  13.523  0.00  0.00    +0.000 C 
ATOM     14  C   UNL     1       5.112   4.139  14.566  0.00  0.00    +0.000 C 
ATOM     15  C   UNL     1       5.679   3.863  15.985  0.00  0.00    +0.000 C 
ATOM     16  C   UNL     1       7.063   4.528  16.162  0.00  0.00    +0.000 C 
ATOM     17  O   UNL     1       7.603   4.519  17.256  0.00  0.00    +0.000 OA
ATOM     18  N   UNL     1       7.719   5.116  15.120  0.00  0.00    +0.000 N 
ATOM     19  H   UNL     1       8.568   5.671  15.308  0.00  0.00    +0.000 HD
ENDBRANCH   1  15
BRANCH   4  20
ATOM     20  O   UNL     1       2.761   8.034  18.654  0.00  0.00    +0.000 OA
BRANCH  20  21
ATOM     21  C   UNL     1       2.135   8.669  17.605  0.00  0.00    +0.000 C 
BRANCH  21  22
ATOM     22  C   UNL     1       1.225   9.710  18.147  0.00  0.00    +0.000 A 
ATOM     23  C   UNL     1       1.721  10.942  18.597  0.00  0.00    +0.000 A 
ATOM     24  C   UNL     1       0.835  11.931  19.025  0.00  0.00    +0.000 A 
ATOM     25  C   UNL     1      -0.549  11.702  18.988  0.00  0.00    +0.000 A 
ATOM     26  C   UNL     1      -1.033  10.442  18.600  0.00  0.00    +0.000 A 
ATOM     27  C   UNL     1      -0.150   9.457  18.176  0.00  0.00    +0.000 A 
BRANCH  25  28
ATOM     28  C   UNL     1      -1.519  12.800  19.326  0.00  0.00    +0.000 C 
BRANCH  28  29
ATOM     29  N   UNL     1      -2.298  12.565  20.572  0.00  0.00    +0.000 NA
ATOM     30  C   UNL     1      -3.249  13.605  21.019  0.00  0.00    +0.000 C 
ATOM     31  C   UNL     1      -2.583  14.642  21.954  0.00  0.00    +0.000 C 
ATOM     32  O   UNL     1      -1.951  14.008  23.050  0.00  0.00    +0.000 OA
ATOM     33  C   UNL     1      -0.933  13.147  22.575  0.00  0.00    +0.000 C 
ATOM     34  C   UNL     1      -1.535  12.025  21.715  0.00  0.00    +0.000 C 
ENDBRANCH  28  29
ENDBRANCH  25  28
ENDBRANCH  21  22
ENDBRANCH  20  21
ENDBRANCH   4  20
TORSDOF 6
ENDMDL
MODEL 7
REMARK VINA RESULT:      -9.0      2.899      3.736
REMARK  Name = 
REMARK  6 active torsions:
REMARK  status: ('A' for Active; 'I' for Inactive)
REMARK    1  A    between atoms: C_5  and  N_6
REMARK    2  A    between atoms: C_9  and  O_10
REMARK    3  A    between atoms: O_10  and  C_11
REMARK    4  A    between atoms: C_11  and  C_12
REMARK    5  A    between atoms: C_15  and  C_16
REMARK    6  A    between atoms: C_16  and  N_17
REMARK                            x       y       z     vdW  Elec       q    Type
REMARK                         _______ _______ _______ _____ _____    ______ ____
ROOT
ATOM      1  N   UNL     1       4.493   3.643  17.538  0.00  0.00    +0.000 N 
ATOM      2  C   UNL     1       4.022   4.929  18.012  0.00  0.00    +0.000 C 
ATOM      3  C   UNL     1       2.907   4.590  18.959  0.00  0.00    +0.000 A 
ATOM      4  C   UNL     1       2.094   5.431  19.753  0.00  0.00    +0.000 A 
ATOM      5  C   UNL     1       1.128   4.827  20.573  0.00  0.00    +0.000 A 
ATOM      6  C   UNL     1       0.979   3.429  20.604  0.00  0.00    +0.000 A 
ATOM      7  C   UNL     1       1.798   2.611  19.807  0.00  0.00    +0.000 A 
ATOM      8  C   UNL     1       2.752   3.224  18.994  0.00  0.00    +0.000 A 
ATOM      9  C   UNL     1       3.740   2.659  18.089  0.00  0.00    +0.000 C 
ATOM     10  O   UNL     1       3.883   1.469  17.865  0.00  0.00    +0.000 OA
ENDROOT
BRANCH   1  15
ATOM     11  O   UNL     1       7.660   5.835  13.939  0.00  0.00    +0.000 OA
ATOM     12  C   UNL     1       7.174   5.038  14.727  0.00  0.00    +0.000 C 
ATOM     13  C   UNL     1       6.330   3.899  14.225  0.00  0.00    +0.000 C 
ATOM     14  C   UNL     1       5.139   3.753  15.157  0.00  0.00    +0.000 C 
ATOM     15  C   UNL     1       5.620   3.455  16.604  0.00  0.00    +0.000 C 
ATOM     16  C   UNL     1       6.831   4.341  16.973  0.00  0.00    +0.000 C 
ATOM     17  O   UNL     1       7.263   4.329  18.114  0.00  0.00    +0.000 OA
ATOM     18  N   UNL     1       7.453   5.133  16.051  0.00  0.00    +0.000 N 
ATOM     19  H   UNL     1       8.161   5.814  16.369  0.00  0.00    +0.000 HD
ENDBRANCH   1  15
BRANCH   4  20
ATOM     20  O   UNL     1       2.183   6.780  19.792  0.00  0.00    +0.000 OA
BRANCH  20  21
ATOM     21  C   UNL     1       1.494   7.638  20.620  0.00  0.00    +0.000 C 
BRANCH  21  22
ATOM     22  C   UNL     1       1.420   8.973  19.974  0.00  0.00    +0.000 A 
ATOM     23  C   UNL     1       0.960  10.094  20.680  0.00  0.00    +0.000 A 
ATOM     24  C   UNL     1       0.977  11.350  20.074  0.00  0.00    +0.000 A 
ATOM     25  C   UNL     1       1.472  11.496  18.768  0.00  0.00    +0.000 A 
ATOM     26  C   UNL     1       1.866  10.359  18.045  0.00  0.00    +0.000 A 
ATOM     27  C   UNL     1       1.846   9.108  18.649  0.00  0.00    +0.000 A 
BRANCH  25  28
ATOM     28  C   UNL     1       1.614  12.859  18.148  0.00  0.00    +0.000 C 
BRANCH  28  29
ATOM     29  N   UNL     1       2.401  13.822  18.966  0.00  0.00    +0.000 NA
ATOM     30  C   UNL     1       1.697  14.964  19.586  0.00  0.00    +0.000 C 
ATOM     31  C   UNL     1       1.660  16.201  18.658  0.00  0.00    +0.000 C 
ATOM     32  O   UNL     1       2.962  16.558  18.234  0.00  0.00    +0.000 OA
ATOM     33  C   UNL     1       3.530  15.491  17.499  0.00  0.00    +0.000 C 
ATOM     34  C   UNL     1       3.692  14.250  18.390  0.00  0.00    +0.000 C 
ENDBRANCH  28  29
ENDBRANCH  25  28
ENDBRANCH  21  22
ENDBRANCH  20  21
ENDBRANCH   4  20
TORSDOF 6
ENDMDL
MODEL 8
REMARK VINA RESULT:      -8.9      2.422      3.158
REMARK  Name = 
REMARK  6 active torsions:
REMARK  status: ('A' for Active; 'I' for Inactive)
REMARK    1  A    between atoms: C_5  and  N_6
REMARK    2  A    between atoms: C_9  and  O_10
REMARK    3  A    between atoms: O_10  and  C_11
REMARK    4  A    between atoms: C_11  and  C_12
REMARK    5  A    between atoms: C_15  and  C_16
REMARK    6  A    between atoms: C_16  and  N_17
REMARK                            x       y       z     vdW  Elec       q    Type
REMARK                         _______ _______ _______ _____ _____    ______ ____
ROOT
ATOM      1  N   UNL     1       4.479   3.672  17.481  0.00  0.00    +0.000 N 
ATOM      2  C   UNL     1       4.041   4.956  17.993  0.00  0.00    +0.000 C 
ATOM      3  C   UNL     1       2.897   4.621  18.906  0.00  0.00    +0.000 A 
ATOM      4  C   UNL     1       2.097   5.460  19.714  0.00  0.00    +0.000 A 
ATOM      5  C   UNL     1       1.095   4.861  20.493  0.00  0.00    +0.000 A 
ATOM      6  C   UNL     1       0.899   3.468  20.471  0.00  0.00    +0.000 A 
ATOM      7  C   UNL     1       1.706   2.652  19.661  0.00  0.00    +0.000 A 
ATOM      8  C   UNL     1       2.696   3.261  18.888  0.00  0.00    +0.000 A 
ATOM      9  C   UNL     1       3.683   2.695  17.982  0.00  0.00    +0.000 C 
ATOM     10  O   UNL     1       3.791   1.509  17.719  0.00  0.00    +0.000 OA
ENDROOT
BRANCH   1  15
ATOM     11  O   UNL     1       7.725   5.859  13.951  0.00  0.00    +0.000 OA
ATOM     12  C   UNL     1       7.218   5.060  14.724  0.00  0.00    +0.000 C 
ATOM     13  C   UNL     1       6.368   3.937  14.199  0.00  0.00    +0.000 C 
ATOM     14  C   UNL     1       5.162   3.796  15.112  0.00  0.00    +0.000 C 
ATOM     15  C   UNL     1       5.618   3.479  16.562  0.00  0.00    +0.000 C 
ATOM     16  C   UNL     1       6.833   4.347  16.958  0.00  0.00    +0.000 C 
ATOM     17  O   UNL     1       7.248   4.319  18.105  0.00  0.00    +0.000 OA
ATOM     18  N   UNL     1       7.478   5.140  16.054  0.00  0.00    +0.000 N 
ATOM     19  H   UNL     1       8.189   5.809  16.388  0.00  0.00    +0.000 HD
ENDBRANCH   1  15
BRANCH   4  20
ATOM     20  O   UNL     1       2.230   6.803  19.803  0.00  0.00    +0.000 OA
BRANCH  20  21
ATOM     21  C   UNL     1       1.826   7.614  20.840  0.00  0.00    +0.000 C 
BRANCH  21  22
ATOM     22  C   UNL     1       1.277   8.875  20.279  0.00  0.00    +0.000 A 
ATOM     23  C   UNL     1       0.587   9.788  21.089  0.00  0.00    +0.000 A 
ATOM     24  C   UNL     1       0.154  11.000  20.553  0.00  0.00    +0.000 A 
ATOM     25  C   UNL     1       0.424  11.315  19.212  0.00  0.00    +0.000 A 
ATOM     26  C   UNL     1       1.056  10.368  18.391  0.00  0.00    +0.000 A 
ATOM     27  C   UNL     1       1.485   9.159  18.926  0.00  0.00    +0.000 A 
BRANCH  25  28
ATOM     28  C   UNL     1       0.076  12.668  18.655  0.00  0.00    +0.000 C 
BRANCH  28  29
ATOM     29  N   UNL     1       0.324  13.797  19.594  0.00  0.00    +0.000 NA
ATOM     30  C   UNL     1      -0.633  14.924  19.613  0.00  0.00    +0.000 C 
ATOM     31  C   UNL     1      -0.249  16.033  18.606  0.00  0.00    +0.000 C 
ATOM     32  O   UNL     1       1.080  16.473  18.815  0.00  0.00    +0.000 OA
ATOM     33  C   UNL     1       1.972  15.393  18.619  0.00  0.00    +0.000 C 
ATOM     34  C   UNL     1       1.716  14.288  19.655  0.00  0.00    +0.000 C 
ENDBRANCH  28  29
ENDBRANCH  25  28
ENDBRANCH  21  22
ENDBRANCH  20  21
ENDBRANCH   4  20
TORSDOF 6
ENDMDL
MODEL 9
REMARK VINA RESULT:      -8.9      1.649      2.388
REMARK  Name = 
REMARK  6 active torsions:
REMARK  status: ('A' for Active; 'I' for Inactive)
REMARK    1  A    between atoms: C_5  and  N_6
REMARK    2  A    between atoms: C_9  and  O_10
REMARK    3  A    between atoms: O_10  and  C_11
REMARK    4  A    between atoms: C_11  and  C_12
REMARK    5  A    between atoms: C_15  and  C_16
REMARK    6  A    between atoms: C_16  and  N_17
REMARK                            x       y       z     vdW  Elec       q    Type
REMARK                         _______ _______ _______ _____ _____    ______ ____
ROOT
ATOM      1  N   UNL     1       4.300   4.936  17.784  0.00  0.00    +0.000 N 
ATOM      2  C   UNL     1       3.781   6.269  17.549  0.00  0.00    +0.000 C 
ATOM      3  C   UNL     1       2.898   6.537  18.734  0.00  0.00    +0.000 A 
ATOM      4  C   UNL     1       2.151   7.688  19.075  0.00  0.00    +0.000 A 
ATOM      5  C   UNL     1       1.420   7.665  20.273  0.00  0.00    +0.000 A 
ATOM      6  C   UNL     1       1.437   6.533  21.107  0.00  0.00    +0.000 A 
ATOM      7  C   UNL     1       2.186   5.400  20.749  0.00  0.00    +0.000 A 
ATOM      8  C   UNL     1       2.905   5.434  19.554  0.00  0.00    +0.000 A 
ATOM      9  C   UNL     1       3.773   4.446  18.933  0.00  0.00    +0.000 C 
ATOM     10  O   UNL     1       4.007   3.338  19.385  0.00  0.00    +0.000 OA
ENDROOT
BRANCH   1  15
ATOM     11  O   UNL     1       7.949   5.379  14.005  0.00  0.00    +0.000 OA
ATOM     12  C   UNL     1       7.228   4.914  14.875  0.00  0.00    +0.000 C 
ATOM     13  C   UNL     1       6.015   4.109  14.500  0.00  0.00    +0.000 C 
ATOM     14  C   UNL     1       4.878   4.518  15.420  0.00  0.00    +0.000 C 
ATOM     15  C   UNL     1       5.257   4.240  16.901  0.00  0.00    +0.000 C 
ATOM     16  C   UNL     1       6.716   4.664  17.182  0.00  0.00    +0.000 C 
ATOM     17  O   UNL     1       7.145   4.632  18.324  0.00  0.00    +0.000 OA
ATOM     18  N   UNL     1       7.558   5.059  16.183  0.00  0.00    +0.000 N 
ATOM     19  H   UNL     1       8.473   5.469  16.429  0.00  0.00    +0.000 HD
ENDBRANCH   1  15
BRANCH   4  20
ATOM     20  O   UNL     1       2.094   8.820  18.336  0.00  0.00    +0.000 OA
BRANCH  20  21
ATOM     21  C   UNL     1       1.724  10.076  18.762  0.00  0.00    +0.000 C 
BRANCH  21  22
ATOM     22  C   UNL     1       0.282  10.278  18.470  0.00  0.00    +0.000 A 
ATOM     23  C   UNL     1      -0.338   9.620  17.398  0.00  0.00    +0.000 A 
ATOM     24  C   UNL     1      -1.710   9.766  17.197  0.00  0.00    +0.000 A 
ATOM     25  C   UNL     1      -2.473  10.552  18.075  0.00  0.00    +0.000 A 
ATOM     26  C   UNL     1      -1.833  11.261  19.104  0.00  0.00    +0.000 A 
ATOM     27  C   UNL     1      -0.465  11.117  19.303  0.00  0.00    +0.000 A 
BRANCH  25  28
ATOM     28  C   UNL     1      -3.970  10.617  17.946  0.00  0.00    +0.000 C 
BRANCH  28  29
ATOM     29  N   UNL     1      -4.548  11.963  18.210  0.00  0.00    +0.000 NA
ATOM     30  C   UNL     1      -4.827  12.351  19.608  0.00  0.00    +0.000 C 
ATOM     31  C   UNL     1      -6.254  11.950  20.052  0.00  0.00    +0.000 C 
ATOM     32  O   UNL     1      -7.227  12.466  19.163  0.00  0.00    +0.000 OA
ATOM     33  C   UNL     1      -7.017  11.932  17.870  0.00  0.00    +0.000 C 
ATOM     34  C   UNL     1      -5.652  12.374  17.320  0.00  0.00    +0.000 C 
ENDBRANCH  28  29
ENDBRANCH  25  28
ENDBRANCH  21  22
ENDBRANCH  20  21
ENDBRANCH   4  20
TORSDOF 6
ENDMDL
