MODEL 1
REMARK VINA RESULT:      -8.1      0.000      0.000
REMARK  Name = 
REMARK  7 active torsions:
REMARK  status: ('A' for Active; 'I' for Inactive)
REMARK    1  A    between atoms: C_1  and  C_2
REMARK    2  A    between atoms: C_2  and  N_3
REMARK    3  A    between atoms: C_7  and  O_8
REMARK    4  A    between atoms: O_8  and  C_9
REMARK    5  A    between atoms: C_9  and  C_10
REMARK    6  A    between atoms: N_12  and  C_13
REMARK    7  A    between atoms: C_18  and  C_19
REMARK                            x       y       z     vdW  Elec       q    Type
REMARK                         _______ _______ _______ _____ _____    ______ ____
ROOT
ATOM      1  C   UNL     1       1.424   9.288  17.889  0.00  0.00    +0.000 C 
ENDROOT
BRANCH   1   2
ATOM      2  C   UNL     1       1.028  10.415  18.842  0.00  0.00    +0.000 C 
ATOM      3  O   UNL     1       1.716  11.431  18.913  0.00  0.00    +0.000 OA
ATOM      4  N   UNL     1      -0.066  10.104  19.637  0.00  0.00    +0.000 N 
ATOM      5  H   UNL     1      -0.394   9.143  19.565  0.00  0.00    +0.000 HD
BRANCH   4   6
ATOM      6  C   UNL     1      -0.665  10.934  20.620  0.00  0.00    +0.000 A 
ATOM      7  C   UNL     1      -1.343  12.104  20.251  0.00  0.00    +0.000 A 
ATOM      8  C   UNL     1      -1.874  12.971  21.207  0.00  0.00    +0.000 A 
ATOM      9  C   UNL     1      -1.762  12.669  22.555  0.00  0.00    +0.000 A 
ATOM     10  C   UNL     1      -1.142  11.483  22.941  0.00  0.00    +0.000 A 
ATOM     11  C   UNL     1      -0.592  10.599  21.987  0.00  0.00    +0.000 A 
BRANCH  11  12
ATOM     12  C   UNL     1       0.090   9.363  22.515  0.00  0.00    +0.000 C 
ATOM     13  F   UNL     1      -0.414   8.194  22.023  0.00  0.00    +0.000 F 
ATOM     14  F   UNL     1       1.421   9.337  22.229  0.00  0.00    +0.000 F 
ATOM     15  F   UNL     1       0.000   9.255  23.871  0.00  0.00    +0.000 F 
ENDBRANCH  11  12
ENDBRANCH   4   6
ENDBRANCH   1   2
BRANCH   1  16
ATOM     16  O   UNL     1       2.681   8.760  18.296  0.00  0.00    +0.000 OA
BRANCH  16  21
ATOM     17  N   UNL     1       5.140   4.844  16.465  0.00  0.00    +0.000 N 
ATOM     18  C   UNL     1       5.087   6.186  16.153  0.00  0.00    +0.000 A 
ATOM     19  C   UNL     1       4.304   7.043  16.814  0.00  0.00    +0.000 A 
ATOM     20  C   UNL     1       3.487   6.573  17.935  0.00  0.00    +0.000 A 
ATOM     21  C   UNL     1       2.689   7.449  18.692  0.00  0.00    +0.000 A 
ATOM     22  C   UNL     1       1.999   6.976  19.814  0.00  0.00    +0.000 A 
ATOM     23  C   UNL     1       2.048   5.621  20.151  0.00  0.00    +0.000 A 
ATOM     24  C   UNL     1       2.794   4.737  19.375  0.00  0.00    +0.000 A 
ATOM     25  C   UNL     1       3.521   5.214  18.278  0.00  0.00    +0.000 A 
ATOM     26  C   UNL     1       4.372   4.281  17.491  0.00  0.00    +0.000 A 
ATOM     27  O   UNL     1       4.387   3.085  17.781  0.00  0.00    +0.000 OA
BRANCH  17  29
ATOM     28  C   UNL     1       5.917   4.047  14.270  0.00  0.00    +0.000 C 
ATOM     29  C   UNL     1       6.109   3.993  15.779  0.00  0.00    +0.000 C 
ENDBRANCH  17  29
ENDBRANCH  16  21
ENDBRANCH   1  16
TORSDOF 6
ENDMDL
MODEL 2
REMARK VINA RESULT:      -8.0      1.462      3.028
REMARK  Name = 
REMARK  7 active torsions:
REMARK  status: ('A' for Active; 'I' for Inactive)
REMARK    1  A    between atoms: C_1  and  C_2
REMARK    2  A    between atoms: C_2  and  N_3
REMARK    3  A    between atoms: C_7  and  O_8
REMARK    4  A    between atoms: O_8  and  C_9
REMARK    5  A    between atoms: C_9  and  C_10
REMARK    6  A    between atoms: N_12  and  C_13
REMARK    7  A    between atoms: C_18  and  C_19
REMARK                            x       y       z     vdW  Elec       q    Type
REMARK                         _______ _______ _______ _____ _____    ______ ____
ROOT
ATOM      1  C   UNL     1       1.840   9.525  17.871  0.00  0.00    +0.000 C 
ENDROOT
BRANCH   1   2
ATOM      2  C   UNL     1       1.263  10.608  18.782  0.00  0.00    +0.000 C 
ATOM      3  O   UNL     1       1.787  11.718  18.827  0.00  0.00    +0.000 OA
ATOM      4  N   UNL     1       0.217  10.159  19.576  0.00  0.00    +0.000 N 
ATOM      5  H   UNL     1       0.039   9.157  19.531  0.00  0.00    +0.000 HD
BRANCH   4   6
ATOM      6  C   UNL     1      -0.516  10.917  20.524  0.00  0.00    +0.000 A 
ATOM      7  C   UNL     1      -1.224  12.061  20.132  0.00  0.00    +0.000 A 
ATOM      8  C   UNL     1      -1.889  12.861  21.062  0.00  0.00    +0.000 A 
ATOM      9  C   UNL     1      -1.883  12.516  22.405  0.00  0.00    +0.000 A 
ATOM     10  C   UNL     1      -1.233  11.352  22.808  0.00  0.00    +0.000 A 
ATOM     11  C   UNL     1      -0.548  10.535  21.881  0.00  0.00    +0.000 A 
BRANCH  11  12
ATOM     12  C   UNL     1       0.153   9.319  22.430  0.00  0.00    +0.000 C 
ATOM     13  F   UNL     1       1.487   9.268  22.147  0.00  0.00    +0.000 F 
ATOM     14  F   UNL     1       0.062   9.230  23.786  0.00  0.00    +0.000 F 
ATOM     15  F   UNL     1      -0.365   8.154  21.947  0.00  0.00    +0.000 F 
ENDBRANCH  11  12
ENDBRANCH   4   6
ENDBRANCH   1   2
BRANCH   1  16
ATOM     16  O   UNL     1       1.827   8.284  18.563  0.00  0.00    +0.000 OA
BRANCH  16  21
ATOM     17  N   UNL     1       2.960   3.856  20.525  0.00  0.00    +0.000 N 
ATOM     18  C   UNL     1       1.951   4.774  20.726  0.00  0.00    +0.000 A 
ATOM     19  C   UNL     1       1.892   5.929  20.057  0.00  0.00    +0.000 A 
ATOM     20  C   UNL     1       2.904   6.241  19.045  0.00  0.00    +0.000 A 
ATOM     21  C   UNL     1       2.850   7.419  18.280  0.00  0.00    +0.000 A 
ATOM     22  C   UNL     1       3.782   7.634  17.258  0.00  0.00    +0.000 A 
ATOM     23  C   UNL     1       4.806   6.710  17.032  0.00  0.00    +0.000 A 
ATOM     24  C   UNL     1       4.896   5.565  17.821  0.00  0.00    +0.000 A 
ATOM     25  C   UNL     1       3.941   5.326  18.816  0.00  0.00    +0.000 A 
ATOM     26  C   UNL     1       3.998   4.069  19.611  0.00  0.00    +0.000 A 
ATOM     27  O   UNL     1       4.920   3.276  19.422  0.00  0.00    +0.000 OA
BRANCH  17  29
ATOM     28  C   UNL     1       1.559   2.393  21.923  0.00  0.00    +0.000 C 
ATOM     29  C   UNL     1       2.890   2.564  21.204  0.00  0.00    +0.000 C 
ENDBRANCH  17  29
ENDBRANCH  16  21
ENDBRANCH   1  16
TORSDOF 6
ENDMDL
MODEL 3
REMARK VINA RESULT:      -7.9      1.505      3.076
REMARK  Name = 
REMARK  7 active torsions:
REMARK  status: ('A' for Active; 'I' for Inactive)
REMARK    1  A    between atoms: C_1  and  C_2
REMARK    2  A    between atoms: C_2  and  N_3
REMARK    3  A    between atoms: C_7  and  O_8
REMARK    4  A    between atoms: O_8  and  C_9
REMARK    5  A    between atoms: C_9  and  C_10
REMARK    6  A    between atoms: N_12  and  C_13
REMARK    7  A    between atoms: C_18  and  C_19
REMARK                            x       y       z     vdW  Elec       q    Type
REMARK                         _______ _______ _______ _____ _____    ______ ____
ROOT
ATOM      1  C   UNL     1       1.452   9.179  17.835  0.00  0.00    +0.000 C 
ENDROOT
BRANCH   1   2
ATOM      2  C   UNL     1       0.344   9.944  18.557  0.00  0.00    +0.000 C 
ATOM      3  O   UNL     1      -0.721  10.168  17.987  0.00  0.00    +0.000 OA
ATOM      4  N   UNL     1       0.723  10.413  19.807  0.00  0.00    +0.000 N 
ATOM      5  H   UNL     1       1.707  10.284  20.037  0.00  0.00    +0.000 HD
BRANCH   4   6
ATOM      6  C   UNL     1      -0.074  11.160  20.712  0.00  0.00    +0.000 A 
ATOM      7  C   UNL     1      -0.599  12.406  20.343  0.00  0.00    +0.000 A 
ATOM      8  C   UNL     1      -1.322  13.188  21.244  0.00  0.00    +0.000 A 
ATOM      9  C   UNL     1      -1.559  12.725  22.529  0.00  0.00    +0.000 A 
ATOM     10  C   UNL     1      -1.096  11.466  22.899  0.00  0.00    +0.000 A 
ATOM     11  C   UNL     1      -0.355  10.664  22.002  0.00  0.00    +0.000 A 
BRANCH  11  12
ATOM     12  C   UNL     1       0.132   9.334  22.516  0.00  0.00    +0.000 C 
ATOM     13  F   UNL     1      -0.093   9.134  23.847  0.00  0.00    +0.000 F 
ATOM     14  F   UNL     1      -0.457   8.281  21.882  0.00  0.00    +0.000 F 
ATOM     15  F   UNL     1       1.474   9.166  22.345  0.00  0.00    +0.000 F 
ENDBRANCH  11  12
ENDBRANCH   4   6
ENDBRANCH   1   2
BRANCH   1  16
ATOM     16  O   UNL     1       2.265   8.524  18.800  0.00  0.00    +0.000 OA
BRANCH  16  21
ATOM     17  N   UNL     1       2.859   3.873  20.459  0.00  0.00    +0.000 N 
ATOM     18  C   UNL     1       2.078   4.944  20.839  0.00  0.00    +0.000 A 
ATOM     19  C   UNL     1       2.128   6.123  20.213  0.00  0.00    +0.000 A 
ATOM     20  C   UNL     1       3.013   6.302  19.059  0.00  0.00    +0.000 A 
ATOM     21  C   UNL     1       3.058   7.508  18.338  0.00  0.00    +0.000 A 
ATOM     22  C   UNL     1       3.846   7.606  17.185  0.00  0.00    +0.000 A 
ATOM     23  C   UNL     1       4.637   6.529  16.780  0.00  0.00    +0.000 A 
ATOM     24  C   UNL     1       4.637   5.347  17.519  0.00  0.00    +0.000 A 
ATOM     25  C   UNL     1       3.819   5.231  18.648  0.00  0.00    +0.000 A 
ATOM     26  C   UNL     1       3.767   3.946  19.396  0.00  0.00    +0.000 A 
ATOM     27  O   UNL     1       4.489   3.013  19.045  0.00  0.00    +0.000 OA
BRANCH  17  29
ATOM     28  C   UNL     1       1.320   2.531  21.833  0.00  0.00    +0.000 C 
ATOM     29  C   UNL     1       2.661   2.582  21.113  0.00  0.00    +0.000 C 
ENDBRANCH  17  29
ENDBRANCH  16  21
ENDBRANCH   1  16
TORSDOF 6
ENDMDL
MODEL 4
REMARK VINA RESULT:      -7.8      0.848      1.156
REMARK  Name = 
REMARK  7 active torsions:
REMARK  status: ('A' for Active; 'I' for Inactive)
REMARK    1  A    between atoms: C_1  and  C_2
REMARK    2  A    between atoms: C_2  and  N_3
REMARK    3  A    between atoms: C_7  and  O_8
REMARK    4  A    between atoms: O_8  and  C_9
REMARK    5  A    between atoms: C_9  and  C_10
REMARK    6  A    between atoms: N_12  and  C_13
REMARK    7  A    between atoms: C_18  and  C_19
REMARK                            x       y       z     vdW  Elec       q    Type
REMARK                         _______ _______ _______ _____ _____    ______ ____
ROOT
ATOM      1  C   UNL     1       1.460   9.084  17.990  0.00  0.00    +0.000 C 
ENDROOT
BRANCH   1   2
ATOM      2  C   UNL     1       0.365   9.868  18.711  0.00  0.00    +0.000 C 
ATOM      3  O   UNL     1      -0.739  10.004  18.190  0.00  0.00    +0.000 OA
ATOM      4  N   UNL     1       0.796  10.458  19.891  0.00  0.00    +0.000 N 
ATOM      5  H   UNL     1       1.796  10.385  20.071  0.00  0.00    +0.000 HD
BRANCH   4   6
ATOM      6  C   UNL     1       0.023  11.251  20.777  0.00  0.00    +0.000 A 
ATOM      7  C   UNL     1      -0.416  12.527  20.396  0.00  0.00    +0.000 A 
ATOM      8  C   UNL     1      -1.114  13.352  21.279  0.00  0.00    +0.000 A 
ATOM      9  C   UNL     1      -1.411  12.905  22.557  0.00  0.00    +0.000 A 
ATOM     10  C   UNL     1      -1.033  11.620  22.937  0.00  0.00    +0.000 A 
ATOM     11  C   UNL     1      -0.320  10.774  22.058  0.00  0.00    +0.000 A 
BRANCH  11  12
ATOM     12  C   UNL     1       0.073   9.418  22.584  0.00  0.00    +0.000 C 
ATOM     13  F   UNL     1       1.397   9.123  22.435  0.00  0.00    +0.000 F 
ATOM     14  F   UNL     1      -0.188   9.277  23.913  0.00  0.00    +0.000 F 
ATOM     15  F   UNL     1      -0.597   8.404  21.965  0.00  0.00    +0.000 F 
ENDBRANCH  11  12
ENDBRANCH   4   6
ENDBRANCH   1   2
BRANCH   1  16
ATOM     16  O   UNL     1       2.406   8.625  18.948  0.00  0.00    +0.000 OA
BRANCH  16  21
ATOM     17  N   UNL     1       4.807   4.838  16.796  0.00  0.00    +0.000 N 
ATOM     18  C   UNL     1       4.783   6.204  16.603  0.00  0.00    +0.000 A 
ATOM     19  C   UNL     1       4.010   7.014  17.332  0.00  0.00    +0.000 A 
ATOM     20  C   UNL     1       3.174   6.462  18.401  0.00  0.00    +0.000 A 
ATOM     21  C   UNL     1       2.386   7.284  19.226  0.00  0.00    +0.000 A 
ATOM     22  C   UNL     1       1.676   6.728  20.297  0.00  0.00    +0.000 A 
ATOM     23  C   UNL     1       1.697   5.348  20.513  0.00  0.00    +0.000 A 
ATOM     24  C   UNL     1       2.434   4.521  19.667  0.00  0.00    +0.000 A 
ATOM     25  C   UNL     1       3.179   5.078  18.622  0.00  0.00    +0.000 A 
ATOM     26  C   UNL     1       4.020   4.202  17.763  0.00  0.00    +0.000 A 
ATOM     27  O   UNL     1       4.009   2.985  17.946  0.00  0.00    +0.000 OA
BRANCH  17  29
ATOM     28  C   UNL     1       7.195   4.486  16.315  0.00  0.00    +0.000 C 
ATOM     29  C   UNL     1       5.767   4.033  16.045  0.00  0.00    +0.000 C 
ENDBRANCH  17  29
ENDBRANCH  16  21
ENDBRANCH   1  16
TORSDOF 6
ENDMDL
MODEL 5
REMARK VINA RESULT:      -7.8      3.586      8.635
REMARK  Name = 
REMARK  7 active torsions:
REMARK  status: ('A' for Active; 'I' for Inactive)
REMARK    1  A    between atoms: C_1  and  C_2
REMARK    2  A    between atoms: C_2  and  N_3
REMARK    3  A    between atoms: C_7  and  O_8
REMARK    4  A    between atoms: O_8  and  C_9
REMARK    5  A    between atoms: C_9  and  C_10
REMARK    6  A    between atoms: N_12  and  C_13
REMARK    7  A    between atoms: C_18  and  C_19
REMARK                            x       y       z     vdW  Elec       q    Type
REMARK                         _______ _______ _______ _____ _____    ______ ____
ROOT
ATOM      1  C   UNL     1       2.306   8.773  18.189  0.00  0.00    +0.000 C 
ENDROOT
BRANCH   1   2
ATOM      2  C   UNL     1       2.380   7.325  18.674  0.00  0.00    +0.000 C 
ATOM      3  O   UNL     1       2.437   7.082  19.877  0.00  0.00    +0.000 OA
ATOM      4  N   UNL     1       2.483   6.403  17.642  0.00  0.00    +0.000 N 
ATOM      5  H   UNL     1       2.603   6.805  16.714  0.00  0.00    +0.000 HD
BRANCH   4   6
ATOM      6  C   UNL     1       2.576   4.994  17.768  0.00  0.00    +0.000 A 
ATOM      7  C   UNL     1       1.461   4.234  18.147  0.00  0.00    +0.000 A 
ATOM      8  C   UNL     1       1.552   2.856  18.348  0.00  0.00    +0.000 A 
ATOM      9  C   UNL     1       2.759   2.204  18.147  0.00  0.00    +0.000 A 
ATOM     10  C   UNL     1       3.865   2.931  17.716  0.00  0.00    +0.000 A 
ATOM     11  C   UNL     1       3.793   4.328  17.515  0.00  0.00    +0.000 A 
BRANCH  11  12
ATOM     12  C   UNL     1       5.059   5.022  17.084  0.00  0.00    +0.000 C 
ATOM     13  F   UNL     1       4.946   5.713  15.913  0.00  0.00    +0.000 F 
ATOM     14  F   UNL     1       5.497   5.927  18.003  0.00  0.00    +0.000 F 
ATOM     15  F   UNL     1       6.093   4.155  16.896  0.00  0.00    +0.000 F 
ENDBRANCH  11  12
ENDBRANCH   4   6
ENDBRANCH   1   2
BRANCH   1  16
ATOM     16  O   UNL     1       0.946   9.109  17.947  0.00  0.00    +0.000 OA
BRANCH  16  21
ATOM     17  N   UNL     1      -3.483  11.370  17.854  0.00  0.00    +0.000 N 
ATOM     18  C   UNL     1      -2.831  10.484  17.022  0.00  0.00    +0.000 A 
ATOM     19  C   UNL     1      -1.600  10.035  17.282  0.00  0.00    +0.000 A 
ATOM     20  C   UNL     1      -0.909  10.456  18.503  0.00  0.00    +0.000 A 
ATOM     21  C   UNL     1       0.365   9.966  18.843  0.00  0.00    +0.000 A 
ATOM     22  C   UNL     1       0.948  10.320  20.065  0.00  0.00    +0.000 A 
ATOM     23  C   UNL     1       0.298  11.209  20.925  0.00  0.00    +0.000 A 
ATOM     24  C   UNL     1      -0.942  11.739  20.571  0.00  0.00    +0.000 A 
ATOM     25  C   UNL     1      -1.547  11.355  19.370  0.00  0.00    +0.000 A 
ATOM     26  C   UNL     1      -2.901  11.868  19.026  0.00  0.00    +0.000 A 
ATOM     27  O   UNL     1      -3.453  12.670  19.778  0.00  0.00    +0.000 OA
BRANCH  17  29
ATOM     28  C   UNL     1      -5.834  10.768  18.262  0.00  0.00    +0.000 C 
ATOM     29  C   UNL     1      -4.872  11.721  17.568  0.00  0.00    +0.000 C 
ENDBRANCH  17  29
ENDBRANCH  16  21
ENDBRANCH   1  16
TORSDOF 6
ENDMDL
MODEL 6
REMARK VINA RESULT:      -7.7      1.391      2.957
REMARK  Name = 
REMARK  7 active torsions:
REMARK  status: ('A' for Active; 'I' for Inactive)
REMARK    1  A    between atoms: C_1  and  C_2
REMARK    2  A    between atoms: C_2  and  N_3
REMARK    3  A    between atoms: C_7  and  O_8
REMARK    4  A    between atoms: O_8  and  C_9
REMARK    5  A    between atoms: C_9  and  C_10
REMARK    6  A    between atoms: N_12  and  C_13
REMARK    7  A    between atoms: C_18  and  C_19
REMARK                            x       y       z     vdW  Elec       q    Type
REMARK                         _______ _______ _______ _____ _____    ______ ____
ROOT
ATOM      1  C   UNL     1       2.020   8.718  17.574  0.00  0.00    +0.000 C 
ENDROOT
BRANCH   1   2
ATOM      2  C   UNL     1       1.553   9.953  18.344  0.00  0.00    +0.000 C 
ATOM      3  O   UNL     1       2.165  11.012  18.237  0.00  0.00    +0.000 OA
ATOM      4  N   UNL     1       0.492   9.698  19.202  0.00  0.00    +0.000 N 
ATOM      5  H   UNL     1       0.233   8.717  19.289  0.00  0.00    +0.000 HD
BRANCH   4   6
ATOM      6  C   UNL     1      -0.156  10.630  20.052  0.00  0.00    +0.000 A 
ATOM      7  C   UNL     1      -0.667  11.830  19.540  0.00  0.00    +0.000 A 
ATOM      8  C   UNL     1      -1.241  12.792  20.373  0.00  0.00    +0.000 A 
ATOM      9  C   UNL     1      -1.340  12.559  21.735  0.00  0.00    +0.000 A 
ATOM     10  C   UNL     1      -0.889  11.350  22.257  0.00  0.00    +0.000 A 
ATOM     11  C   UNL     1      -0.299  10.368  21.430  0.00  0.00    +0.000 A 
BRANCH  11  12
ATOM     12  C   UNL     1       0.189   9.111  22.103  0.00  0.00    +0.000 C 
ATOM     13  F   UNL     1      -0.353   7.964  21.603  0.00  0.00    +0.000 F 
ATOM     14  F   UNL     1       1.539   8.955  22.002  0.00  0.00    +0.000 F 
ATOM     15  F   UNL     1      -0.088   9.092  23.438  0.00  0.00    +0.000 F 
ENDBRANCH  11  12
ENDBRANCH   4   6
ENDBRANCH   1   2
BRANCH   1  16
ATOM     16  O   UNL     1       3.249   8.267  18.128  0.00  0.00    +0.000 OA
BRANCH  16  21
ATOM     17  N   UNL     1       2.313   3.609  19.599  0.00  0.00    +0.000 N 
ATOM     18  C   UNL     1       1.870   4.855  19.990  0.00  0.00    +0.000 A 
ATOM     19  C   UNL     1       2.311   5.981  19.421  0.00  0.00    +0.000 A 
ATOM     20  C   UNL     1       3.275   5.916  18.320  0.00  0.00    +0.000 A 
ATOM     21  C   UNL     1       3.725   7.072  17.658  0.00  0.00    +0.000 A 
ATOM     22  C   UNL     1       4.572   6.960  16.549  0.00  0.00    +0.000 A 
ATOM     23  C   UNL     1       5.024   5.705  16.133  0.00  0.00    +0.000 A 
ATOM     24  C   UNL     1       4.624   4.558  16.817  0.00  0.00    +0.000 A 
ATOM     25  C   UNL     1       3.743   4.663  17.899  0.00  0.00    +0.000 A 
ATOM     26  C   UNL     1       3.262   3.434  18.585  0.00  0.00    +0.000 A 
ATOM     27  O   UNL     1       3.688   2.336  18.227  0.00  0.00    +0.000 OA
BRANCH  17  29
ATOM     28  C   UNL     1       1.576   2.550  21.695  0.00  0.00    +0.000 C 
ATOM     29  C   UNL     1       1.696   2.421  20.183  0.00  0.00    +0.000 C 
ENDBRANCH  17  29
ENDBRANCH  16  21
ENDBRANCH   1  16
TORSDOF 6
ENDMDL
MODEL 7
REMARK VINA RESULT:      -7.7      2.991      8.081
REMARK  Name = 
REMARK  7 active torsions:
REMARK  status: ('A' for Active; 'I' for Inactive)
REMARK    1  A    between atoms: C_1  and  C_2
REMARK    2  A    between atoms: C_2  and  N_3
REMARK    3  A    between atoms: C_7  and  O_8
REMARK    4  A    between atoms: O_8  and  C_9
REMARK    5  A    between atoms: C_9  and  C_10
REMARK    6  A    between atoms: N_12  and  C_13
REMARK    7  A    between atoms: C_18  and  C_19
REMARK                            x       y       z     vdW  Elec       q    Type
REMARK                         _______ _______ _______ _____ _____    ______ ____
ROOT
ATOM      1  C   UNL     1       1.397   8.313  20.813  0.00  0.00    +0.000 C 
ENDROOT
BRANCH   1   2
ATOM      2  C   UNL     1       2.109   7.324  19.891  0.00  0.00    +0.000 C 
ATOM      3  O   UNL     1       2.244   7.583  18.698  0.00  0.00    +0.000 OA
ATOM      4  N   UNL     1       2.452   6.135  20.519  0.00  0.00    +0.000 N 
ATOM      5  H   UNL     1       2.098   6.029  21.468  0.00  0.00    +0.000 HD
BRANCH   4   6
ATOM      6  C   UNL     1       3.111   5.024  19.933  0.00  0.00    +0.000 A 
ATOM      7  C   UNL     1       4.417   5.147  19.436  0.00  0.00    +0.000 A 
ATOM      8  C   UNL     1       5.053   4.087  18.790  0.00  0.00    +0.000 A 
ATOM      9  C   UNL     1       4.405   2.870  18.652  0.00  0.00    +0.000 A 
ATOM     10  C   UNL     1       3.130   2.708  19.187  0.00  0.00    +0.000 A 
ATOM     11  C   UNL     1       2.468   3.774  19.838  0.00  0.00    +0.000 A 
BRANCH  11  12
ATOM     12  C   UNL     1       1.076   3.503  20.347  0.00  0.00    +0.000 C 
ATOM     13  F   UNL     1       0.353   2.646  19.570  0.00  0.00    +0.000 F 
ATOM     14  F   UNL     1       1.073   2.957  21.596  0.00  0.00    +0.000 F 
ATOM     15  F   UNL     1       0.322   4.636  20.436  0.00  0.00    +0.000 F 
ENDBRANCH  11  12
ENDBRANCH   4   6
ENDBRANCH   1   2
BRANCH   1  16
ATOM     16  O   UNL     1       1.308   9.572  20.159  0.00  0.00    +0.000 OA
BRANCH  16  21
ATOM     17  N   UNL     1      -2.703  11.106  17.649  0.00  0.00    +0.000 N 
ATOM     18  C   UNL     1      -1.636  10.281  17.359  0.00  0.00    +0.000 A 
ATOM     19  C   UNL     1      -0.656  10.046  18.236  0.00  0.00    +0.000 A 
ATOM     20  C   UNL     1      -0.708  10.647  19.571  0.00  0.00    +0.000 A 
ATOM     21  C   UNL     1       0.274  10.384  20.542  0.00  0.00    +0.000 A 
ATOM     22  C   UNL     1       0.137  10.902  21.836  0.00  0.00    +0.000 A 
ATOM     23  C   UNL     1      -0.942  11.732  22.151  0.00  0.00    +0.000 A 
ATOM     24  C   UNL     1      -1.892  12.039  21.178  0.00  0.00    +0.000 A 
ATOM     25  C   UNL     1      -1.781  11.489  19.896  0.00  0.00    +0.000 A 
ATOM     26  C   UNL     1      -2.832  11.762  18.879  0.00  0.00    +0.000 A 
ATOM     27  O   UNL     1      -3.763  12.516  19.160  0.00  0.00    +0.000 OA
BRANCH  17  29
ATOM     28  C   UNL     1      -3.389  10.668  15.327  0.00  0.00    +0.000 C 
ATOM     29  C   UNL     1      -3.796  11.218  16.687  0.00  0.00    +0.000 C 
ENDBRANCH  17  29
ENDBRANCH  16  21
ENDBRANCH   1  16
TORSDOF 6
ENDMDL
MODEL 8
REMARK VINA RESULT:      -7.7      3.158      4.627
REMARK  Name = 
REMARK  7 active torsions:
REMARK  status: ('A' for Active; 'I' for Inactive)
REMARK    1  A    between atoms: C_1  and  C_2
REMARK    2  A    between atoms: C_2  and  N_3
REMARK    3  A    between atoms: C_7  and  O_8
REMARK    4  A    between atoms: O_8  and  C_9
REMARK    5  A    between atoms: C_9  and  C_10
REMARK    6  A    between atoms: N_12  and  C_13
REMARK    7  A    between atoms: C_18  and  C_19
REMARK                            x       y       z     vdW  Elec       q    Type
REMARK                         _______ _______ _______ _____ _____    ______ ____
ROOT
ATOM      1  C   UNL     1       3.518   4.179  20.134  0.00  0.00    +0.000 C 
ENDROOT
BRANCH   1   2
ATOM      2  C   UNL     1       2.351   5.161  20.038  0.00  0.00    +0.000 C 
ATOM      3  O   UNL     1       1.265   4.787  19.601  0.00  0.00    +0.000 OA
ATOM      4  N   UNL     1       2.697   6.461  20.380  0.00  0.00    +0.000 N 
ATOM      5  H   UNL     1       3.690   6.616  20.544  0.00  0.00    +0.000 HD
BRANCH   4   6
ATOM      6  C   UNL     1       1.844   7.595  20.384  0.00  0.00    +0.000 A 
ATOM      7  C   UNL     1       1.135   7.952  21.540  0.00  0.00    +0.000 A 
ATOM      8  C   UNL     1       0.235   9.018  21.542  0.00  0.00    +0.000 A 
ATOM      9  C   UNL     1       0.046   9.768  20.392  0.00  0.00    +0.000 A 
ATOM     10  C   UNL     1       0.781   9.465  19.249  0.00  0.00    +0.000 A 
ATOM     11  C   UNL     1       1.691   8.385  19.227  0.00  0.00    +0.000 A 
BRANCH  11  12
ATOM     12  C   UNL     1       2.407   8.121  17.927  0.00  0.00    +0.000 C 
ATOM     13  F   UNL     1       2.043   6.957  17.315  0.00  0.00    +0.000 F 
ATOM     14  F   UNL     1       2.197   9.102  17.006  0.00  0.00    +0.000 F 
ATOM     15  F   UNL     1       3.759   8.042  18.082  0.00  0.00    +0.000 F 
ENDBRANCH  11  12
ENDBRANCH   4   6
ENDBRANCH   1   2
BRANCH   1  16
ATOM     16  O   UNL     1       3.989   3.894  18.823  0.00  0.00    +0.000 OA
BRANCH  16  21
ATOM     17  N   UNL     1       6.166   4.215  14.363  0.00  0.00    +0.000 N 
ATOM     18  C   UNL     1       5.022   3.611  14.840  0.00  0.00    +0.000 A 
ATOM     19  C   UNL     1       4.669   3.666  16.127  0.00  0.00    +0.000 A 
ATOM     20  C   UNL     1       5.491   4.416  17.080  0.00  0.00    +0.000 A 
ATOM     21  C   UNL     1       5.128   4.546  18.433  0.00  0.00    +0.000 A 
ATOM     22  C   UNL     1       5.891   5.350  19.288  0.00  0.00    +0.000 A 
ATOM     23  C   UNL     1       7.048   5.977  18.820  0.00  0.00    +0.000 A 
ATOM     24  C   UNL     1       7.442   5.811  17.493  0.00  0.00    +0.000 A 
ATOM     25  C   UNL     1       6.659   5.043  16.624  0.00  0.00    +0.000 A 
ATOM     26  C   UNL     1       7.044   4.923  15.192  0.00  0.00    +0.000 A 
ATOM     27  O   UNL     1       8.079   5.458  14.797  0.00  0.00    +0.000 OA
BRANCH  17  29
ATOM     28  C   UNL     1       5.516   3.224  12.205  0.00  0.00    +0.000 C 
ATOM     29  C   UNL     1       6.422   4.214  12.924  0.00  0.00    +0.000 C 
ENDBRANCH  17  29
ENDBRANCH  16  21
ENDBRANCH   1  16
TORSDOF 6
ENDMDL
MODEL 9
REMARK VINA RESULT:      -7.6      2.838      4.329
REMARK  Name = 
REMARK  7 active torsions:
REMARK  status: ('A' for Active; 'I' for Inactive)
REMARK    1  A    between atoms: C_1  and  C_2
REMARK    2  A    between atoms: C_2  and  N_3
REMARK    3  A    between atoms: C_7  and  O_8
REMARK    4  A    between atoms: O_8  and  C_9
REMARK    5  A    between atoms: C_9  and  C_10
REMARK    6  A    between atoms: N_12  and  C_13
REMARK    7  A    between atoms: C_18  and  C_19
REMARK                            x       y       z     vdW  Elec       q    Type
REMARK                         _______ _______ _______ _____ _____    ______ ____
ROOT
ATOM      1  C   UNL     1       2.131   4.094  21.618  0.00  0.00    +0.000 C 
ENDROOT
BRANCH   1   2
ATOM      2  C   UNL     1       1.614   5.081  20.573  0.00  0.00    +0.000 C 
ATOM      3  O   UNL     1       0.698   4.757  19.820  0.00  0.00    +0.000 OA
ATOM      4  N   UNL     1       2.344   6.261  20.520  0.00  0.00    +0.000 N 
ATOM      5  H   UNL     1       3.182   6.276  21.099  0.00  0.00    +0.000 HD
BRANCH   4   6
ATOM      6  C   UNL     1       2.119   7.362  19.655  0.00  0.00    +0.000 A 
ATOM      7  C   UNL     1       2.680   7.390  18.371  0.00  0.00    +0.000 A 
ATOM      8  C   UNL     1       2.532   8.496  17.535  0.00  0.00    +0.000 A 
ATOM      9  C   UNL     1       1.793   9.590  17.957  0.00  0.00    +0.000 A 
ATOM     10  C   UNL     1       1.179   9.561  19.206  0.00  0.00    +0.000 A 
ATOM     11  C   UNL     1       1.326   8.452  20.069  0.00  0.00    +0.000 A 
BRANCH  11  12
ATOM     12  C   UNL     1       0.652   8.539  21.414  0.00  0.00    +0.000 C 
ATOM     13  F   UNL     1      -0.290   7.575  21.630  0.00  0.00    +0.000 F 
ATOM     14  F   UNL     1       1.532   8.431  22.448  0.00  0.00    +0.000 F 
ATOM     15  F   UNL     1       0.006   9.726  21.599  0.00  0.00    +0.000 F 
ENDBRANCH  11  12
ENDBRANCH   4   6
ENDBRANCH   1   2
BRANCH   1  16
ATOM     16  O   UNL     1       3.243   3.391  21.079  0.00  0.00    +0.000 OA
BRANCH  16  21
ATOM     17  N   UNL     1       6.069   5.310  17.464  0.00  0.00    +0.000 N 
ATOM     18  C   UNL     1       6.027   5.447  18.836  0.00  0.00    +0.000 A 
ATOM     19  C   UNL     1       5.126   4.811  19.590  0.00  0.00    +0.000 A 
ATOM     20  C   UNL     1       4.157   3.906  18.966  0.00  0.00    +0.000 A 
ATOM     21  C   UNL     1       3.227   3.176  19.727  0.00  0.00    +0.000 A 
ATOM     22  C   UNL     1       2.383   2.251  19.101  0.00  0.00    +0.000 A 
ATOM     23  C   UNL     1       2.418   2.092  17.714  0.00  0.00    +0.000 A 
ATOM     24  C   UNL     1       3.301   2.850  16.948  0.00  0.00    +0.000 A 
ATOM     25  C   UNL     1       4.176   3.745  17.574  0.00  0.00    +0.000 A 
ATOM     26  C   UNL     1       5.166   4.503  16.762  0.00  0.00    +0.000 A 
ATOM     27  O   UNL     1       5.169   4.375  15.538  0.00  0.00    +0.000 OA
BRANCH  17  29
ATOM     28  C   UNL     1       7.545   7.276  17.340  0.00  0.00    +0.000 C 
ATOM     29  C   UNL     1       7.157   5.940  16.721  0.00  0.00    +0.000 C 
ENDBRANCH  17  29
ENDBRANCH  16  21
ENDBRANCH   1  16
TORSDOF 6
ENDMDL
