MODEL 1
REMARK VINA RESULT:      -7.2      0.000      0.000
REMARK  Name = 
REMARK  7 active torsions:
REMARK  status: ('A' for Active; 'I' for Inactive)
REMARK    1  A    between atoms: C_1  and  C_2
REMARK    2  A    between atoms: C_2  and  N_3
REMARK    3  A    between atoms: C_4  and  S_5
REMARK    4  A    between atoms: S_5  and  C_6
REMARK    5  A    between atoms: C_6  and  C_7
REMARK    6  A    between atoms: N_9  and  C_10
REMARK    7  A    between atoms: C_19  and  C_20
REMARK                            x       y       z     vdW  Elec       q    Type
REMARK                         _______ _______ _______ _____ _____    ______ ____
ROOT
ATOM      1  C   UNL     1       2.701   3.632  21.408  0.00  0.00    +0.000 C 
ENDROOT
BRANCH   1   2
ATOM      2  C   UNL     1       1.871   4.795  20.859  0.00  0.00    +0.000 C 
ATOM      3  O   UNL     1       0.684   4.620  20.581  0.00  0.00    +0.000 OA
ATOM      4  N   UNL     1       2.561   5.978  20.668  0.00  0.00    +0.000 N 
ATOM      5  H   UNL     1       3.562   5.922  20.824  0.00  0.00    +0.000 HD
BRANCH   4   6
ATOM      6  C   UNL     1       2.069   7.201  20.178  0.00  0.00    +0.000 A 
ATOM      7  C   UNL     1       1.283   8.076  20.930  0.00  0.00    +0.000 A 
ATOM      8  C   UNL     1       0.776   9.245  20.353  0.00  0.00    +0.000 A 
ATOM      9  C   UNL     1       1.057   9.541  19.023  0.00  0.00    +0.000 A 
ATOM     10 CL   UNL     1       0.382  10.946  18.296  0.00  0.00    +0.000 Cl
ATOM     11  C   UNL     1       1.875   8.699  18.274  0.00  0.00    +0.000 A 
ATOM     12  C   UNL     1       2.392   7.538  18.856  0.00  0.00    +0.000 A 
ENDBRANCH   4   6
ENDBRANCH   1   2
BRANCH   1  13
ATOM     13  S   UNL     1       3.123   2.392  20.136  0.00  0.00    +0.000 S 
BRANCH  13  15
ATOM     14  N   UNL     1       3.955   3.662  17.869  0.00  0.00    +0.000 N 
ATOM     15  C   UNL     1       4.237   3.271  19.150  0.00  0.00    +0.000 A 
ATOM     16  N   UNL     1       5.435   3.664  19.492  0.00  0.00    +0.000 NA
ATOM     17  N   UNL     1       5.972   4.325  18.413  0.00  0.00    +0.000 NA
ATOM     18  C   UNL     1       5.082   4.319  17.440  0.00  0.00    +0.000 A 
BRANCH  18  19
ATOM     19  C   UNL     1       5.324   4.945  16.071  0.00  0.00    +0.000 C 
ATOM     20  C   UNL     1       6.752   5.100  15.590  0.00  0.00    +0.000 C 
ATOM     21  C   UNL     1       5.888   4.049  14.985  0.00  0.00    +0.000 C 
ENDBRANCH  18  19
BRANCH  14  23
ATOM     22  C   UNL     1       1.634   4.347  17.357  0.00  0.00    +0.000 C 
ATOM     23  C   UNL     1       2.766   3.371  17.097  0.00  0.00    +0.000 C 
ENDBRANCH  14  23
ENDBRANCH  13  15
ENDBRANCH   1  13
TORSDOF 6
ENDMDL
MODEL 2
REMARK VINA RESULT:      -6.8      1.545      2.193
REMARK  Name = 
REMARK  7 active torsions:
REMARK  status: ('A' for Active; 'I' for Inactive)
REMARK    1  A    between atoms: C_1  and  C_2
REMARK    2  A    between atoms: C_2  and  N_3
REMARK    3  A    between atoms: C_4  and  S_5
REMARK    4  A    between atoms: S_5  and  C_6
REMARK    5  A    between atoms: C_6  and  C_7
REMARK    6  A    between atoms: N_9  and  C_10
REMARK    7  A    between atoms: C_19  and  C_20
REMARK                            x       y       z     vdW  Elec       q    Type
REMARK                         _______ _______ _______ _____ _____    ______ ____
ROOT
ATOM      1  C   UNL     1       2.914   3.353  20.270  0.00  0.00    +0.000 C 
ENDROOT
BRANCH   1   2
ATOM      2  C   UNL     1       2.041   4.604  20.156  0.00  0.00    +0.000 C 
ATOM      3  O   UNL     1       0.816   4.502  20.222  0.00  0.00    +0.000 OA
ATOM      4  N   UNL     1       2.724   5.786  19.930  0.00  0.00    +0.000 N 
ATOM      5  H   UNL     1       3.721   5.683  19.772  0.00  0.00    +0.000 HD
BRANCH   4   6
ATOM      6  C   UNL     1       2.195   7.080  19.778  0.00  0.00    +0.000 A 
ATOM      7  C   UNL     1       1.540   7.772  20.798  0.00  0.00    +0.000 A 
ATOM      8  C   UNL     1       0.982   9.031  20.554  0.00  0.00    +0.000 A 
ATOM      9  C   UNL     1       1.081   9.600  19.288  0.00  0.00    +0.000 A 
ATOM     10 CL   UNL     1       0.341  11.120  18.971  0.00  0.00    +0.000 Cl
ATOM     11  C   UNL     1       1.768   8.940  18.273  0.00  0.00    +0.000 A 
ATOM     12  C   UNL     1       2.336   7.687  18.523  0.00  0.00    +0.000 A 
ENDBRANCH   4   6
ENDBRANCH   1   2
BRANCH   1  13
ATOM     13  S   UNL     1       3.852   2.994  18.745  0.00  0.00    +0.000 S 
BRANCH  13  15
ATOM     14  N   UNL     1       5.651   4.810  17.789  0.00  0.00    +0.000 N 
ATOM     15  C   UNL     1       5.156   4.122  18.865  0.00  0.00    +0.000 A 
ATOM     16  N   UNL     1       5.799   4.453  19.952  0.00  0.00    +0.000 NA
ATOM     17  N   UNL     1       6.754   5.376  19.597  0.00  0.00    +0.000 NA
ATOM     18  C   UNL     1       6.664   5.585  18.298  0.00  0.00    +0.000 A 
BRANCH  18  19
ATOM     19  C   UNL     1       7.573   6.537  17.531  0.00  0.00    +0.000 C 
ATOM     20  C   UNL     1       7.090   7.950  17.276  0.00  0.00    +0.000 C 
ATOM     21  C   UNL     1       8.152   7.715  18.293  0.00  0.00    +0.000 C 
ENDBRANCH  18  19
BRANCH  14  23
ATOM     22  C   UNL     1       6.335   4.068  15.532  0.00  0.00    +0.000 C 
ATOM     23  C   UNL     1       5.257   4.684  16.402  0.00  0.00    +0.000 C 
ENDBRANCH  14  23
ENDBRANCH  13  15
ENDBRANCH   1  13
TORSDOF 6
ENDMDL
MODEL 3
REMARK VINA RESULT:      -6.5      2.202      4.045
REMARK  Name = 
REMARK  7 active torsions:
REMARK  status: ('A' for Active; 'I' for Inactive)
REMARK    1  A    between atoms: C_1  and  C_2
REMARK    2  A    between atoms: C_2  and  N_3
REMARK    3  A    between atoms: C_4  and  S_5
REMARK    4  A    between atoms: S_5  and  C_6
REMARK    5  A    between atoms: C_6  and  C_7
REMARK    6  A    between atoms: N_9  and  C_10
REMARK    7  A    between atoms: C_19  and  C_20
REMARK                            x       y       z     vdW  Elec       q    Type
REMARK                         _______ _______ _______ _____ _____    ______ ____
ROOT
ATOM      1  C   UNL     1       6.309   5.432  16.780  0.00  0.00    +0.000 C 
ENDROOT
BRANCH   1   2
ATOM      2  C   UNL     1       5.492   6.617  17.300  0.00  0.00    +0.000 C 
ATOM      3  O   UNL     1       6.015   7.728  17.384  0.00  0.00    +0.000 OA
ATOM      4  N   UNL     1       4.200   6.318  17.695  0.00  0.00    +0.000 N 
ATOM      5  H   UNL     1       3.964   5.332  17.684  0.00  0.00    +0.000 HD
BRANCH   4   6
ATOM      6  C   UNL     1       3.227   7.191  18.212  0.00  0.00    +0.000 A 
ATOM      7  C   UNL     1       2.747   8.309  17.528  0.00  0.00    +0.000 A 
ATOM      8  C   UNL     1       1.825   9.169  18.134  0.00  0.00    +0.000 A 
ATOM      9  C   UNL     1       1.381   8.910  19.427  0.00  0.00    +0.000 A 
ATOM     10 CL   UNL     1       0.296  10.001  20.196  0.00  0.00    +0.000 Cl
ATOM     11  C   UNL     1       1.819   7.776  20.106  0.00  0.00    +0.000 A 
ATOM     12  C   UNL     1       2.730   6.911  19.493  0.00  0.00    +0.000 A 
ENDBRANCH   4   6
ENDBRANCH   1   2
BRANCH   1  13
ATOM     13  S   UNL     1       5.291   3.956  16.436  0.00  0.00    +0.000 S 
BRANCH  13  15
ATOM     14  N   UNL     1       3.453   3.117  18.270  0.00  0.00    +0.000 N 
ATOM     15  C   UNL     1       4.728   3.546  18.018  0.00  0.00    +0.000 A 
ATOM     16  N   UNL     1       5.423   3.583  19.123  0.00  0.00    +0.000 NA
ATOM     17  N   UNL     1       4.593   3.180  20.141  0.00  0.00    +0.000 NA
ATOM     18  C   UNL     1       3.410   2.903  19.627  0.00  0.00    +0.000 A 
BRANCH  18  19
ATOM     19  C   UNL     1       2.218   2.439  20.453  0.00  0.00    +0.000 C 
ATOM     20  C   UNL     1       2.134   2.865  21.905  0.00  0.00    +0.000 C 
ATOM     21  C   UNL     1       1.228   3.496  20.905  0.00  0.00    +0.000 C 
ENDBRANCH  18  19
BRANCH  14  23
ATOM     22  C   UNL     1       1.391   4.165  17.396  0.00  0.00    +0.000 C 
ATOM     23  C   UNL     1       2.358   2.998  17.332  0.00  0.00    +0.000 C 
ENDBRANCH  14  23
ENDBRANCH  13  15
ENDBRANCH   1  13
TORSDOF 6
ENDMDL
MODEL 4
REMARK VINA RESULT:      -6.5      4.015      7.149
REMARK  Name = 
REMARK  7 active torsions:
REMARK  status: ('A' for Active; 'I' for Inactive)
REMARK    1  A    between atoms: C_1  and  C_2
REMARK    2  A    between atoms: C_2  and  N_3
REMARK    3  A    between atoms: C_4  and  S_5
REMARK    4  A    between atoms: S_5  and  C_6
REMARK    5  A    between atoms: C_6  and  C_7
REMARK    6  A    between atoms: N_9  and  C_10
REMARK    7  A    between atoms: C_19  and  C_20
REMARK                            x       y       z     vdW  Elec       q    Type
REMARK                         _______ _______ _______ _____ _____    ______ ____
ROOT
ATOM      1  C   UNL     1       6.700   6.420  17.595  0.00  0.00    +0.000 C 
ENDROOT
BRANCH   1   2
ATOM      2  C   UNL     1       7.030   5.395  16.508  0.00  0.00    +0.000 C 
ATOM      3  O   UNL     1       7.883   4.533  16.720  0.00  0.00    +0.000 OA
ATOM      4  N   UNL     1       6.352   5.558  15.313  0.00  0.00    +0.000 N 
ATOM      5  H   UNL     1       5.779   6.393  15.255  0.00  0.00    +0.000 HD
BRANCH   4   6
ATOM      6  C   UNL     1       6.450   4.781  14.145  0.00  0.00    +0.000 A 
ATOM      7  C   UNL     1       5.542   3.777  13.805  0.00  0.00    +0.000 A 
ATOM      8  C   UNL     1       5.742   3.002  12.658  0.00  0.00    +0.000 A 
ATOM      9  C   UNL     1       6.850   3.231  11.849  0.00  0.00    +0.000 A 
ATOM     10 CL   UNL     1       7.129   2.236  10.474  0.00  0.00    +0.000 Cl
ATOM     11  C   UNL     1       7.741   4.257  12.154  0.00  0.00    +0.000 A 
ATOM     12  C   UNL     1       7.532   5.040  13.293  0.00  0.00    +0.000 A 
ENDBRANCH   4   6
ENDBRANCH   1   2
BRANCH   1  13
ATOM     13  S   UNL     1       6.550   5.678  19.256  0.00  0.00    +0.000 S 
BRANCH  13  15
ATOM     14  N   UNL     1       3.890   5.101  19.056  0.00  0.00    +0.000 N 
ATOM     15  C   UNL     1       5.180   4.644  19.052  0.00  0.00    +0.000 A 
ATOM     16  N   UNL     1       5.205   3.351  18.867  0.00  0.00    +0.000 NA
ATOM     17  N   UNL     1       3.901   2.930  18.755  0.00  0.00    +0.000 NA
ATOM     18  C   UNL     1       3.114   3.983  18.871  0.00  0.00    +0.000 A 
BRANCH  18  19
ATOM     19  C   UNL     1       1.594   3.910  18.816  0.00  0.00    +0.000 C 
ATOM     20  C   UNL     1       0.915   2.624  19.243  0.00  0.00    +0.000 C 
ATOM     21  C   UNL     1       0.852   3.814  20.136  0.00  0.00    +0.000 C 
ENDBRANCH  18  19
BRANCH  14  23
ATOM     22  C   UNL     1       3.095   7.200  18.017  0.00  0.00    +0.000 C 
ATOM     23  C   UNL     1       3.432   6.453  19.293  0.00  0.00    +0.000 C 
ENDBRANCH  14  23
ENDBRANCH  13  15
ENDBRANCH   1  13
TORSDOF 6
ENDMDL
MODEL 5
REMARK VINA RESULT:      -6.5      5.976      6.997
REMARK  Name = 
REMARK  7 active torsions:
REMARK  status: ('A' for Active; 'I' for Inactive)
REMARK    1  A    between atoms: C_1  and  C_2
REMARK    2  A    between atoms: C_2  and  N_3
REMARK    3  A    between atoms: C_4  and  S_5
REMARK    4  A    between atoms: S_5  and  C_6
REMARK    5  A    between atoms: C_6  and  C_7
REMARK    6  A    between atoms: N_9  and  C_10
REMARK    7  A    between atoms: C_19  and  C_20
REMARK                            x       y       z     vdW  Elec       q    Type
REMARK                         _______ _______ _______ _____ _____    ______ ____
ROOT
ATOM      1  C   UNL     1       8.088   7.210  18.507  0.00  0.00    +0.000 C 
ENDROOT
BRANCH   1   2
ATOM      2  C   UNL     1       8.303   8.722  18.426  0.00  0.00    +0.000 C 
ATOM      3  O   UNL     1       7.713   9.377  17.567  0.00  0.00    +0.000 OA
ATOM      4  N   UNL     1       9.217   9.240  19.327  0.00  0.00    +0.000 N 
ATOM      5  H   UNL     1       9.712   8.551  19.881  0.00  0.00    +0.000 HD
BRANCH   4   6
ATOM      6  C   UNL     1       9.619  10.578  19.483  0.00  0.00    +0.000 A 
ATOM      7  C   UNL     1      10.217  11.330  18.470  0.00  0.00    +0.000 A 
ATOM      8  C   UNL     1      10.650  12.636  18.719  0.00  0.00    +0.000 A 
ATOM      9  C   UNL     1      10.483  13.193  19.983  0.00  0.00    +0.000 A 
ATOM     10 CL   UNL     1      11.072  14.776  20.307  0.00  0.00    +0.000 Cl
ATOM     11  C   UNL     1       9.850  12.471  20.990  0.00  0.00    +0.000 A 
ATOM     12  C   UNL     1       9.406  11.170  20.735  0.00  0.00    +0.000 A 
ENDBRANCH   4   6
ENDBRANCH   1   2
BRANCH   1  13
ATOM     13  S   UNL     1       7.152   6.542  17.089  0.00  0.00    +0.000 S 
BRANCH  13  15
ATOM     14  N   UNL     1       5.354   4.491  17.153  0.00  0.00    +0.000 N 
ATOM     15  C   UNL     1       6.220   5.297  17.842  0.00  0.00    +0.000 A 
ATOM     16  N   UNL     1       6.231   4.976  19.108  0.00  0.00    +0.000 NA
ATOM     17  N   UNL     1       5.345   3.939  19.274  0.00  0.00    +0.000 NA
ATOM     18  C   UNL     1       4.819   3.652  18.099  0.00  0.00    +0.000 A 
BRANCH  18  19
ATOM     19  C   UNL     1       3.776   2.562  17.885  0.00  0.00    +0.000 C 
ATOM     20  C   UNL     1       2.767   2.301  18.986  0.00  0.00    +0.000 C 
ATOM     21  C   UNL     1       2.329   2.998  17.745  0.00  0.00    +0.000 C 
ENDBRANCH  18  19
BRANCH  14  23
ATOM     22  C   UNL     1       5.968   3.801  14.859  0.00  0.00    +0.000 C 
ATOM     23  C   UNL     1       5.006   4.561  15.750  0.00  0.00    +0.000 C 
ENDBRANCH  14  23
ENDBRANCH  13  15
ENDBRANCH   1  13
TORSDOF 6
ENDMDL
MODEL 6
REMARK VINA RESULT:      -6.5      1.822      2.655
REMARK  Name = 
REMARK  7 active torsions:
REMARK  status: ('A' for Active; 'I' for Inactive)
REMARK    1  A    between atoms: C_1  and  C_2
REMARK    2  A    between atoms: C_2  and  N_3
REMARK    3  A    between atoms: C_4  and  S_5
REMARK    4  A    between atoms: S_5  and  C_6
REMARK    5  A    between atoms: C_6  and  C_7
REMARK    6  A    between atoms: N_9  and  C_10
REMARK    7  A    between atoms: C_19  and  C_20
REMARK                            x       y       z     vdW  Elec       q    Type
REMARK                         _______ _______ _______ _____ _____    ______ ____
ROOT
ATOM      1  C   UNL     1       2.856   3.679  19.660  0.00  0.00    +0.000 C 
ENDROOT
BRANCH   1   2
ATOM      2  C   UNL     1       2.172   4.929  19.102  0.00  0.00    +0.000 C 
ATOM      3  O   UNL     1       1.370   4.822  18.174  0.00  0.00    +0.000 OA
ATOM      4  N   UNL     1       2.563   6.125  19.674  0.00  0.00    +0.000 N 
ATOM      5  H   UNL     1       3.327   6.055  20.338  0.00  0.00    +0.000 HD
BRANCH   4   6
ATOM      6  C   UNL     1       2.116   7.422  19.367  0.00  0.00    +0.000 A 
ATOM      7  C   UNL     1       2.322   8.040  18.132  0.00  0.00    +0.000 A 
ATOM      8  C   UNL     1       1.904   9.358  17.921  0.00  0.00    +0.000 A 
ATOM      9  C   UNL     1       1.277  10.060  18.947  0.00  0.00    +0.000 A 
ATOM     10 CL   UNL     1       0.820  11.701  18.708  0.00  0.00    +0.000 Cl
ATOM     11  C   UNL     1       1.027   9.442  20.169  0.00  0.00    +0.000 A 
ATOM     12  C   UNL     1       1.434   8.121  20.373  0.00  0.00    +0.000 A 
ENDBRANCH   4   6
ENDBRANCH   1   2
BRANCH   1  13
ATOM     13  S   UNL     1       4.153   3.019  18.557  0.00  0.00    +0.000 S 
BRANCH  13  15
ATOM     14  N   UNL     1       5.845   4.981  17.700  0.00  0.00    +0.000 N 
ATOM     15  C   UNL     1       5.397   4.205  18.736  0.00  0.00    +0.000 A 
ATOM     16  N   UNL     1       6.034   4.503  19.836  0.00  0.00    +0.000 NA
ATOM     17  N   UNL     1       6.936   5.494  19.530  0.00  0.00    +0.000 NA
ATOM     18  C   UNL     1       6.822   5.776  18.247  0.00  0.00    +0.000 A 
BRANCH  18  19
ATOM     19  C   UNL     1       7.674   6.818  17.533  0.00  0.00    +0.000 C 
ATOM     20  C   UNL     1       7.162   8.243  17.459  0.00  0.00    +0.000 C 
ATOM     21  C   UNL     1       8.286   7.918  18.380  0.00  0.00    +0.000 C 
ENDBRANCH  18  19
BRANCH  14  23
ATOM     22  C   UNL     1       6.320   3.999  15.480  0.00  0.00    +0.000 C 
ATOM     23  C   UNL     1       5.445   4.918  16.311  0.00  0.00    +0.000 C 
ENDBRANCH  14  23
ENDBRANCH  13  15
ENDBRANCH   1  13
TORSDOF 6
ENDMDL
MODEL 7
REMARK VINA RESULT:      -6.4      5.794      6.686
REMARK  Name = 
REMARK  7 active torsions:
REMARK  status: ('A' for Active; 'I' for Inactive)
REMARK    1  A    between atoms: C_1  and  C_2
REMARK    2  A    between atoms: C_2  and  N_3
REMARK    3  A    between atoms: C_4  and  S_5
REMARK    4  A    between atoms: S_5  and  C_6
REMARK    5  A    between atoms: C_6  and  C_7
REMARK    6  A    between atoms: N_9  and  C_10
REMARK    7  A    between atoms: C_19  and  C_20
REMARK                            x       y       z     vdW  Elec       q    Type
REMARK                         _______ _______ _______ _____ _____    ______ ____
ROOT
ATOM      1  C   UNL     1       8.066   6.748  18.517  0.00  0.00    +0.000 C 
ENDROOT
BRANCH   1   2
ATOM      2  C   UNL     1       8.186   8.256  18.290  0.00  0.00    +0.000 C 
ATOM      3  O   UNL     1       7.598   8.779  17.343  0.00  0.00    +0.000 OA
ATOM      4  N   UNL     1       9.016   8.924  19.171  0.00  0.00    +0.000 N 
ATOM      5  H   UNL     1       9.528   8.330  19.815  0.00  0.00    +0.000 HD
BRANCH   4   6
ATOM      6  C   UNL     1       9.321  10.296  19.206  0.00  0.00    +0.000 A 
ATOM      7  C   UNL     1       9.664  11.042  18.077  0.00  0.00    +0.000 A 
ATOM      8  C   UNL     1      10.018  12.389  18.199  0.00  0.00    +0.000 A 
ATOM      9  C   UNL     1      10.028  12.993  19.452  0.00  0.00    +0.000 A 
ATOM     10 CL   UNL     1      10.524  14.633  19.610  0.00  0.00    +0.000 Cl
ATOM     11  C   UNL     1       9.648  12.273  20.582  0.00  0.00    +0.000 A 
ATOM     12  C   UNL     1       9.281  10.931  20.455  0.00  0.00    +0.000 A 
ENDBRANCH   4   6
ENDBRANCH   1   2
BRANCH   1  13
ATOM     13  S   UNL     1       6.418   6.088  18.090  0.00  0.00    +0.000 S 
BRANCH  13  15
ATOM     14  N   UNL     1       5.952   4.485  15.931  0.00  0.00    +0.000 N 
ATOM     15  C   UNL     1       6.683   5.500  16.487  0.00  0.00    +0.000 A 
ATOM     16  N   UNL     1       7.572   5.939  15.636  0.00  0.00    +0.000 NA
ATOM     17  N   UNL     1       7.440   5.195  14.488  0.00  0.00    +0.000 NA
ATOM     18  C   UNL     1       6.469   4.322  14.670  0.00  0.00    +0.000 A 
BRANCH  18  19
ATOM     19  C   UNL     1       6.039   3.306  13.619  0.00  0.00    +0.000 C 
ATOM     20  C   UNL     1       5.093   3.755  12.524  0.00  0.00    +0.000 C 
ATOM     21  C   UNL     1       6.527   3.523  12.198  0.00  0.00    +0.000 C 
ENDBRANCH  18  19
BRANCH  14  23
ATOM     22  C   UNL     1       3.754   4.523  17.065  0.00  0.00    +0.000 C 
ATOM     23  C   UNL     1       4.918   3.692  16.562  0.00  0.00    +0.000 C 
ENDBRANCH  14  23
ENDBRANCH  13  15
ENDBRANCH   1  13
TORSDOF 6
ENDMDL
MODEL 8
REMARK VINA RESULT:      -6.4      1.466      2.119
REMARK  Name = 
REMARK  7 active torsions:
REMARK  status: ('A' for Active; 'I' for Inactive)
REMARK    1  A    between atoms: C_1  and  C_2
REMARK    2  A    between atoms: C_2  and  N_3
REMARK    3  A    between atoms: C_4  and  S_5
REMARK    4  A    between atoms: S_5  and  C_6
REMARK    5  A    between atoms: C_6  and  C_7
REMARK    6  A    between atoms: N_9  and  C_10
REMARK    7  A    between atoms: C_19  and  C_20
REMARK                            x       y       z     vdW  Elec       q    Type
REMARK                         _______ _______ _______ _____ _____    ______ ____
ROOT
ATOM      1  C   UNL     1       2.550   2.750  19.988  0.00  0.00    +0.000 C 
ENDROOT
BRANCH   1   2
ATOM      2  C   UNL     1       1.963   4.059  19.456  0.00  0.00    +0.000 C 
ATOM      3  O   UNL     1       1.135   4.031  18.545  0.00  0.00    +0.000 OA
ATOM      4  N   UNL     1       2.468   5.212  20.030  0.00  0.00    +0.000 N 
ATOM      5  H   UNL     1       3.238   5.069  20.675  0.00  0.00    +0.000 HD
BRANCH   4   6
ATOM      6  C   UNL     1       2.127   6.545  19.744  0.00  0.00    +0.000 A 
ATOM      7  C   UNL     1       2.413   7.175  18.532  0.00  0.00    +0.000 A 
ATOM      8  C   UNL     1       2.100   8.525  18.344  0.00  0.00    +0.000 A 
ATOM      9  C   UNL     1       1.498   9.247  19.370  0.00  0.00    +0.000 A 
ATOM     10 CL   UNL     1       1.170  10.923  19.161  0.00  0.00    +0.000 Cl
ATOM     11  C   UNL     1       1.168   8.621  20.569  0.00  0.00    +0.000 A 
ATOM     12  C   UNL     1       1.469   7.268  20.749  0.00  0.00    +0.000 A 
ENDBRANCH   4   6
ENDBRANCH   1   2
BRANCH   1  13
ATOM     13  S   UNL     1       4.045   2.216  19.085  0.00  0.00    +0.000 S 
BRANCH  13  15
ATOM     14  N   UNL     1       5.040   4.498  17.966  0.00  0.00    +0.000 N 
ATOM     15  C   UNL     1       4.973   3.674  19.058  0.00  0.00    +0.000 A 
ATOM     16  N   UNL     1       5.690   4.157  20.037  0.00  0.00    +0.000 NA
ATOM     17  N   UNL     1       6.258   5.325  19.589  0.00  0.00    +0.000 NA
ATOM     18  C   UNL     1       5.868   5.525  18.345  0.00  0.00    +0.000 A 
BRANCH  18  19
ATOM     19  C   UNL     1       6.309   6.717  17.504  0.00  0.00    +0.000 C 
ATOM     20  C   UNL     1       7.624   7.391  17.838  0.00  0.00    +0.000 C 
ATOM     21  C   UNL     1       7.530   6.535  16.622  0.00  0.00    +0.000 C 
ENDBRANCH  18  19
BRANCH  14  23
ATOM     22  C   UNL     1       5.438   3.821  15.621  0.00  0.00    +0.000 C 
ATOM     23  C   UNL     1       4.443   4.291  16.664  0.00  0.00    +0.000 C 
ENDBRANCH  14  23
ENDBRANCH  13  15
ENDBRANCH   1  13
TORSDOF 6
ENDMDL
MODEL 9
REMARK VINA RESULT:      -6.4      2.122      3.897
REMARK  Name = 
REMARK  7 active torsions:
REMARK  status: ('A' for Active; 'I' for Inactive)
REMARK    1  A    between atoms: C_1  and  C_2
REMARK    2  A    between atoms: C_2  and  N_3
REMARK    3  A    between atoms: C_4  and  S_5
REMARK    4  A    between atoms: S_5  and  C_6
REMARK    5  A    between atoms: C_6  and  C_7
REMARK    6  A    between atoms: N_9  and  C_10
REMARK    7  A    between atoms: C_19  and  C_20
REMARK                            x       y       z     vdW  Elec       q    Type
REMARK                         _______ _______ _______ _____ _____    ______ ____
ROOT
ATOM      1  C   UNL     1       5.694   5.722  16.015  0.00  0.00    +0.000 C 
ENDROOT
BRANCH   1   2
ATOM      2  C   UNL     1       5.134   6.574  17.156  0.00  0.00    +0.000 C 
ATOM      3  O   UNL     1       5.905   7.117  17.947  0.00  0.00    +0.000 OA
ATOM      4  N   UNL     1       3.754   6.624  17.237  0.00  0.00    +0.000 N 
ATOM      5  H   UNL     1       3.263   6.018  16.589  0.00  0.00    +0.000 HD
BRANCH   4   6
ATOM      6  C   UNL     1       2.964   7.315  18.172  0.00  0.00    +0.000 A 
ATOM      7  C   UNL     1       2.720   6.858  19.468  0.00  0.00    +0.000 A 
ATOM      8  C   UNL     1       1.869   7.568  20.321  0.00  0.00    +0.000 A 
ATOM      9  C   UNL     1       1.262   8.739  19.878  0.00  0.00    +0.000 A 
ATOM     10 CL   UNL     1       0.167   9.578  20.906  0.00  0.00    +0.000 Cl
ATOM     11  C   UNL     1       1.529   9.230  18.603  0.00  0.00    +0.000 A 
ATOM     12  C   UNL     1       2.390   8.525  17.757  0.00  0.00    +0.000 A 
ENDBRANCH   4   6
ENDBRANCH   1   2
BRANCH   1  13
ATOM     13  S   UNL     1       5.021   4.026  15.992  0.00  0.00    +0.000 S 
BRANCH  13  15
ATOM     14  N   UNL     1       3.513   3.271  18.138  0.00  0.00    +0.000 N 
ATOM     15  C   UNL     1       4.706   3.753  17.669  0.00  0.00    +0.000 A 
ATOM     16  N   UNL     1       5.535   3.956  18.657  0.00  0.00    +0.000 NA
ATOM     17  N   UNL     1       4.880   3.612  19.816  0.00  0.00    +0.000 NA
ATOM     18  C   UNL     1       3.667   3.204  19.501  0.00  0.00    +0.000 A 
BRANCH  18  19
ATOM     19  C   UNL     1       2.634   2.754  20.527  0.00  0.00    +0.000 C 
ATOM     20  C   UNL     1       2.410   3.617  21.752  0.00  0.00    +0.000 C 
ATOM     21  C   UNL     1       1.383   3.600  20.674  0.00  0.00    +0.000 C 
ENDBRANCH  18  19
BRANCH  14  23
ATOM     22  C   UNL     1       1.329   4.130  17.359  0.00  0.00    +0.000 C 
ATOM     23  C   UNL     1       2.317   2.980  17.377  0.00  0.00    +0.000 C 
ENDBRANCH  14  23
ENDBRANCH  13  15
ENDBRANCH   1  13
TORSDOF 6
ENDMDL
