MODEL 1
REMARK VINA RESULT:      -7.3      0.000      0.000
REMARK  Name = 
REMARK  4 active torsions:
REMARK  status: ('A' for Active; 'I' for Inactive)
REMARK    1  A    between atoms: C_2  and  C_3
REMARK    2  A    between atoms: C_3  and  N_4
REMARK    3  A    between atoms: C_5  and  C_7
REMARK    4  A    between atoms: C_13  and  C_14
REMARK                            x       y       z     vdW  Elec       q    Type
REMARK                         _______ _______ _______ _____ _____    ______ ____
ROOT
ATOM      1  C   UNL     1       4.582   5.976  17.514  0.00  0.00    +0.000 C 
ATOM      2  C   UNL     1       5.191   6.464  16.194  0.00  0.00    +0.000 C 
ATOM      3  C   UNL     1       5.804   5.249  15.516  0.00  0.00    +0.000 C 
ATOM      4  F   UNL     1       5.170   5.011  14.343  0.00  0.00    +0.000 F 
ATOM      5  F   UNL     1       7.106   5.463  15.223  0.00  0.00    +0.000 F 
ATOM      6  C   UNL     1       5.658   4.056  16.425  0.00  0.00    +0.000 C 
ATOM      7  C   UNL     1       4.515   4.423  17.367  0.00  0.00    +0.000 C 
ENDROOT
BRANCH   7   8
ATOM      8  C   UNL     1       4.752   3.733  18.707  0.00  0.00    +0.000 C 
ATOM      9  O   UNL     1       5.551   4.215  19.512  0.00  0.00    +0.000 OA
ATOM     10  N   UNL     1       4.099   2.533  18.974  0.00  0.00    +0.000 N 
ATOM     11  C   UNL     1       2.902   2.054  18.273  0.00  0.00    +0.000 C 
ATOM     12  C   UNL     1       1.646   2.608  18.968  0.00  0.00    +0.000 C 
ATOM     13  O   UNL     1       1.646   2.319  20.380  0.00  0.00    +0.000 OA
ATOM     14  C   UNL     1       2.847   2.779  21.030  0.00  0.00    +0.000 C 
ATOM     15  C   UNL     1       4.076   2.125  20.383  0.00  0.00    +0.000 C 
ENDBRANCH   7   8
BRANCH   1  17
ATOM     16  N   UNL     1       3.138   8.008  17.679  0.00  0.00    +0.000 N 
ATOM     17  C   UNL     1       3.203   6.620  17.767  0.00  0.00    +0.000 C 
ATOM     18  O   UNL     1       2.206   5.941  17.993  0.00  0.00    +0.000 OA
ATOM     19  H   UNL     1       3.990   8.549  17.632  0.00  0.00    +0.000 HD
BRANCH  16  20
ATOM     20  C   UNL     1       1.853   8.705  17.901  0.00  0.00    +0.000 C 
BRANCH  20  22
ATOM     21  N   UNL     1       1.087   9.140  20.539  0.00  0.00    +0.000 NA
ATOM     22  C   UNL     1       1.434   8.943  19.343  0.00  0.00    +0.000 C 
ENDBRANCH  20  22
ENDBRANCH  16  20
ENDBRANCH   1  17
TORSDOF 4
ENDMDL
MODEL 2
REMARK VINA RESULT:      -7.3      3.279      4.957
REMARK  Name = 
REMARK  4 active torsions:
REMARK  status: ('A' for Active; 'I' for Inactive)
REMARK    1  A    between atoms: C_2  and  C_3
REMARK    2  A    between atoms: C_3  and  N_4
REMARK    3  A    between atoms: C_5  and  C_7
REMARK    4  A    between atoms: C_13  and  C_14
REMARK                            x       y       z     vdW  Elec       q    Type
REMARK                         _______ _______ _______ _____ _____    ______ ____
ROOT
ATOM      1  C   UNL     1       2.025   5.001  19.409  0.00  0.00    +0.000 C 
ATOM      2  C   UNL     1       1.342   4.405  20.646  0.00  0.00    +0.000 C 
ATOM      3  C   UNL     1       2.086   3.124  20.987  0.00  0.00    +0.000 C 
ATOM      4  F   UNL     1       2.663   3.240  22.207  0.00  0.00    +0.000 F 
ATOM      5  F   UNL     1       1.239   2.072  21.050  0.00  0.00    +0.000 F 
ATOM      6  C   UNL     1       3.147   2.882  19.943  0.00  0.00    +0.000 C 
ATOM      7  C   UNL     1       3.392   4.251  19.315  0.00  0.00    +0.000 C 
ENDROOT
BRANCH   7   8
ATOM      8  C   UNL     1       3.808   4.048  17.861  0.00  0.00    +0.000 C 
ATOM      9  O   UNL     1       2.965   3.728  17.021  0.00  0.00    +0.000 OA
ATOM     10  N   UNL     1       5.151   4.174  17.518  0.00  0.00    +0.000 N 
ATOM     11  C   UNL     1       6.162   4.867  18.324  0.00  0.00    +0.000 C 
ATOM     12  C   UNL     1       6.180   6.360  17.948  0.00  0.00    +0.000 C 
ATOM     13  O   UNL     1       6.339   6.551  16.529  0.00  0.00    +0.000 OA
ATOM     14  C   UNL     1       5.347   5.833  15.768  0.00  0.00    +0.000 C 
ATOM     15  C   UNL     1       5.426   4.334  16.087  0.00  0.00    +0.000 C 
ENDBRANCH   7   8
BRANCH   1  17
ATOM     16  N   UNL     1       1.637   7.118  20.677  0.00  0.00    +0.000 N 
ATOM     17  C   UNL     1       2.181   6.531  19.538  0.00  0.00    +0.000 C 
ATOM     18  O   UNL     1       2.789   7.189  18.700  0.00  0.00    +0.000 OA
ATOM     19  H   UNL     1       1.025   6.582  21.276  0.00  0.00    +0.000 HD
BRANCH  16  20
ATOM     20  C   UNL     1       1.748   8.579  20.881  0.00  0.00    +0.000 C 
BRANCH  20  22
ATOM     21  N   UNL     1       0.703   9.613  23.242  0.00  0.00    +0.000 NA
ATOM     22  C   UNL     1       1.176   9.144  22.171  0.00  0.00    +0.000 C 
ENDBRANCH  20  22
ENDBRANCH  16  20
ENDBRANCH   1  17
TORSDOF 4
ENDMDL
MODEL 3
REMARK VINA RESULT:      -7.2      3.203      4.829
REMARK  Name = 
REMARK  4 active torsions:
REMARK  status: ('A' for Active; 'I' for Inactive)
REMARK    1  A    between atoms: C_2  and  C_3
REMARK    2  A    between atoms: C_3  and  N_4
REMARK    3  A    between atoms: C_5  and  C_7
REMARK    4  A    between atoms: C_13  and  C_14
REMARK                            x       y       z     vdW  Elec       q    Type
REMARK                         _______ _______ _______ _____ _____    ______ ____
ROOT
ATOM      1  C   UNL     1       2.117   5.008  19.231  0.00  0.00    +0.000 C 
ATOM      2  C   UNL     1       1.320   4.570  20.466  0.00  0.00    +0.000 C 
ATOM      3  C   UNL     1       2.010   3.334  21.021  0.00  0.00    +0.000 C 
ATOM      4  F   UNL     1       2.481   3.592  22.264  0.00  0.00    +0.000 F 
ATOM      5  F   UNL     1       1.143   2.304  21.134  0.00  0.00    +0.000 F 
ATOM      6  C   UNL     1       3.153   2.962  20.110  0.00  0.00    +0.000 C 
ATOM      7  C   UNL     1       3.474   4.244  19.347  0.00  0.00    +0.000 C 
ENDROOT
BRANCH   7   8
ATOM      8  C   UNL     1       4.010   3.864  17.969  0.00  0.00    +0.000 C 
ATOM      9  O   UNL     1       3.289   3.255  17.178  0.00  0.00    +0.000 OA
ATOM     10  N   UNL     1       5.331   4.167  17.652  0.00  0.00    +0.000 N 
ATOM     11  C   UNL     1       6.156   5.162  18.346  0.00  0.00    +0.000 C 
ATOM     12  C   UNL     1       5.942   6.543  17.701  0.00  0.00    +0.000 C 
ATOM     13  O   UNL     1       6.156   6.505  16.276  0.00  0.00    +0.000 OA
ATOM     14  C   UNL     1       5.351   5.498  15.631  0.00  0.00    +0.000 C 
ATOM     15  C   UNL     1       5.666   4.117  16.225  0.00  0.00    +0.000 C 
ENDBRANCH   7   8
BRANCH   1  17
ATOM     16  N   UNL     1       2.356   7.127  17.929  0.00  0.00    +0.000 N 
ATOM     17  C   UNL     1       2.288   6.541  19.190  0.00  0.00    +0.000 C 
ATOM     18  O   UNL     1       2.322   7.214  20.216  0.00  0.00    +0.000 OA
ATOM     19  H   UNL     1       2.467   6.546  17.110  0.00  0.00    +0.000 HD
BRANCH  16  20
ATOM     20  C   UNL     1       2.514   8.591  17.801  0.00  0.00    +0.000 C 
BRANCH  20  22
ATOM     21  N   UNL     1       0.250  10.151  18.224  0.00  0.00    +0.000 NA
ATOM     22  C   UNL     1       1.277   9.444  18.032  0.00  0.00    +0.000 C 
ENDBRANCH  20  22
ENDBRANCH  16  20
ENDBRANCH   1  17
TORSDOF 4
ENDMDL
MODEL 4
REMARK VINA RESULT:      -7.2      1.321      1.456
REMARK  Name = 
REMARK  4 active torsions:
REMARK  status: ('A' for Active; 'I' for Inactive)
REMARK    1  A    between atoms: C_2  and  C_3
REMARK    2  A    between atoms: C_3  and  N_4
REMARK    3  A    between atoms: C_5  and  C_7
REMARK    4  A    between atoms: C_13  and  C_14
REMARK                            x       y       z     vdW  Elec       q    Type
REMARK                         _______ _______ _______ _____ _____    ______ ____
ROOT
ATOM      1  C   UNL     1       4.275   6.144  18.354  0.00  0.00    +0.000 C 
ATOM      2  C   UNL     1       4.988   6.905  17.230  0.00  0.00    +0.000 C 
ATOM      3  C   UNL     1       5.539   5.861  16.271  0.00  0.00    +0.000 C 
ATOM      4  F   UNL     1       4.951   5.997  15.059  0.00  0.00    +0.000 F 
ATOM      5  F   UNL     1       6.867   6.027  16.085  0.00  0.00    +0.000 F 
ATOM      6  C   UNL     1       5.253   4.489  16.826  0.00  0.00    +0.000 C 
ATOM      7  C   UNL     1       4.094   4.696  17.796  0.00  0.00    +0.000 C 
ENDROOT
BRANCH   7   8
ATOM      8  C   UNL     1       4.206   3.660  18.911  0.00  0.00    +0.000 C 
ATOM      9  O   UNL     1       5.245   3.577  19.568  0.00  0.00    +0.000 OA
ATOM     10  N   UNL     1       3.146   2.786  19.130  0.00  0.00    +0.000 N 
ATOM     11  C   UNL     1       1.770   3.001  18.668  0.00  0.00    +0.000 C 
ATOM     12  C   UNL     1       0.997   3.812  19.724  0.00  0.00    +0.000 C 
ATOM     13  O   UNL     1       1.083   3.207  21.029  0.00  0.00    +0.000 OA
ATOM     14  C   UNL     1       2.448   2.985  21.438  0.00  0.00    +0.000 C 
ATOM     15  C   UNL     1       3.160   2.084  20.418  0.00  0.00    +0.000 C 
ENDBRANCH   7   8
BRANCH   1  17
ATOM     16  N   UNL     1       2.620   6.863  20.082  0.00  0.00    +0.000 N 
ATOM     17  C   UNL     1       2.939   6.820  18.727  0.00  0.00    +0.000 C 
ATOM     18  O   UNL     1       2.214   7.329  17.878  0.00  0.00    +0.000 OA
ATOM     19  H   UNL     1       3.157   6.319  20.743  0.00  0.00    +0.000 HD
BRANCH  16  20
ATOM     20  C   UNL     1       1.360   7.498  20.526  0.00  0.00    +0.000 C 
BRANCH  20  22
ATOM     21  N   UNL     1       1.549   9.433  22.515  0.00  0.00    +0.000 NA
ATOM     22  C   UNL     1       1.463   8.556  21.613  0.00  0.00    +0.000 C 
ENDBRANCH  20  22
ENDBRANCH  16  20
ENDBRANCH   1  17
TORSDOF 4
ENDMDL
MODEL 5
REMARK VINA RESULT:      -7.0      2.667      3.788
REMARK  Name = 
REMARK  4 active torsions:
REMARK  status: ('A' for Active; 'I' for Inactive)
REMARK    1  A    between atoms: C_2  and  C_3
REMARK    2  A    between atoms: C_3  and  N_4
REMARK    3  A    between atoms: C_5  and  C_7
REMARK    4  A    between atoms: C_13  and  C_14
REMARK                            x       y       z     vdW  Elec       q    Type
REMARK                         _______ _______ _______ _____ _____    ______ ____
ROOT
ATOM      1  C   UNL     1       6.671   4.514  17.821  0.00  0.00    +0.000 C 
ATOM      2  C   UNL     1       7.185   4.584  16.378  0.00  0.00    +0.000 C 
ATOM      3  C   UNL     1       5.980   4.396  15.470  0.00  0.00    +0.000 C 
ATOM      4  F   UNL     1       5.786   5.513  14.730  0.00  0.00    +0.000 F 
ATOM      5  F   UNL     1       6.180   3.379  14.603  0.00  0.00    +0.000 F 
ATOM      6  C   UNL     1       4.764   4.131  16.321  0.00  0.00    +0.000 C 
ATOM      7  C   UNL     1       5.123   4.687  17.696  0.00  0.00    +0.000 C 
ENDROOT
BRANCH   7   8
ATOM      8  C   UNL     1       4.392   3.867  18.755  0.00  0.00    +0.000 C 
ATOM      9  O   UNL     1       5.020   3.073  19.457  0.00  0.00    +0.000 OA
ATOM     10  N   UNL     1       3.010   3.991  18.871  0.00  0.00    +0.000 N 
ATOM     11  C   UNL     1       2.222   5.115  18.354  0.00  0.00    +0.000 C 
ATOM     12  C   UNL     1       2.164   6.230  19.414  0.00  0.00    +0.000 C 
ATOM     13  O   UNL     1       1.702   5.734  20.685  0.00  0.00    +0.000 OA
ATOM     14  C   UNL     1       2.482   4.613  21.148  0.00  0.00    +0.000 C 
ATOM     15  C   UNL     1       2.431   3.478  20.116  0.00  0.00    +0.000 C 
ENDBRANCH   7   8
BRANCH   1  17
ATOM     16  N   UNL     1       7.787   6.737  18.053  0.00  0.00    +0.000 N 
ATOM     17  C   UNL     1       7.330   5.595  18.704  0.00  0.00    +0.000 C 
ATOM     18  O   UNL     1       7.411   5.471  19.922  0.00  0.00    +0.000 OA
ATOM     19  H   UNL     1       7.837   6.755  17.044  0.00  0.00    +0.000 HD
BRANCH  16  20
ATOM     20  C   UNL     1       8.427   7.823  18.826  0.00  0.00    +0.000 C 
BRANCH  20  22
ATOM     21  N   UNL     1       8.361  10.374  17.720  0.00  0.00    +0.000 NA
ATOM     22  C   UNL     1       8.391   9.218  18.222  0.00  0.00    +0.000 C 
ENDBRANCH  20  22
ENDBRANCH  16  20
ENDBRANCH   1  17
TORSDOF 4
ENDMDL
MODEL 6
REMARK VINA RESULT:      -7.0      3.022      4.670
REMARK  Name = 
REMARK  4 active torsions:
REMARK  status: ('A' for Active; 'I' for Inactive)
REMARK    1  A    between atoms: C_2  and  C_3
REMARK    2  A    between atoms: C_3  and  N_4
REMARK    3  A    between atoms: C_5  and  C_7
REMARK    4  A    between atoms: C_13  and  C_14
REMARK                            x       y       z     vdW  Elec       q    Type
REMARK                         _______ _______ _______ _____ _____    ______ ____
ROOT
ATOM      1  C   UNL     1       5.810   6.178  17.137  0.00  0.00    +0.000 C 
ATOM      2  C   UNL     1       7.316   6.385  17.331  0.00  0.00    +0.000 C 
ATOM      3  C   UNL     1       7.686   5.722  18.649  0.00  0.00    +0.000 C 
ATOM      4  F   UNL     1       8.550   4.704  18.422  0.00  0.00    +0.000 F 
ATOM      5  F   UNL     1       8.311   6.593  19.471  0.00  0.00    +0.000 F 
ATOM      6  C   UNL     1       6.433   5.193  19.298  0.00  0.00    +0.000 C 
ATOM      7  C   UNL     1       5.431   5.056  18.155  0.00  0.00    +0.000 C 
ENDROOT
BRANCH   7   8
ATOM      8  C   UNL     1       4.028   5.271  18.714  0.00  0.00    +0.000 C 
ATOM      9  O   UNL     1       3.520   6.393  18.679  0.00  0.00    +0.000 OA
ATOM     10  N   UNL     1       3.365   4.201  19.308  0.00  0.00    +0.000 N 
ATOM     11  C   UNL     1       3.704   2.788  19.107  0.00  0.00    +0.000 C 
ATOM     12  C   UNL     1       2.953   2.250  17.876  0.00  0.00    +0.000 C 
ATOM     13  O   UNL     1       1.537   2.500  17.964  0.00  0.00    +0.000 OA
ATOM     14  C   UNL     1       1.242   3.894  18.189  0.00  0.00    +0.000 C 
ATOM     15  C   UNL     1       1.919   4.370  19.482  0.00  0.00    +0.000 C 
ENDBRANCH   7   8
BRANCH   1  17
ATOM     16  N   UNL     1       5.574   4.457  15.341  0.00  0.00    +0.000 N 
ATOM     17  C   UNL     1       5.480   5.805  15.676  0.00  0.00    +0.000 C 
ATOM     18  O   UNL     1       5.114   6.648  14.862  0.00  0.00    +0.000 OA
ATOM     19  H   UNL     1       6.008   3.809  15.982  0.00  0.00    +0.000 HD
BRANCH  16  20
ATOM     20  C   UNL     1       5.269   4.015  13.963  0.00  0.00    +0.000 C 
BRANCH  20  22
ATOM     21  N   UNL     1       7.345   4.107  12.114  0.00  0.00    +0.000 NA
ATOM     22  C   UNL     1       6.404   4.065  12.952  0.00  0.00    +0.000 C 
ENDBRANCH  20  22
ENDBRANCH  16  20
ENDBRANCH   1  17
TORSDOF 4
ENDMDL
MODEL 7
REMARK VINA RESULT:      -6.9      3.041      4.838
REMARK  Name = 
REMARK  4 active torsions:
REMARK  status: ('A' for Active; 'I' for Inactive)
REMARK    1  A    between atoms: C_2  and  C_3
REMARK    2  A    between atoms: C_3  and  N_4
REMARK    3  A    between atoms: C_5  and  C_7
REMARK    4  A    between atoms: C_13  and  C_14
REMARK                            x       y       z     vdW  Elec       q    Type
REMARK                         _______ _______ _______ _____ _____    ______ ____
ROOT
ATOM      1  C   UNL     1       5.933   5.297  16.571  0.00  0.00    +0.000 C 
ATOM      2  C   UNL     1       7.350   5.834  16.809  0.00  0.00    +0.000 C 
ATOM      3  C   UNL     1       7.516   5.989  18.312  0.00  0.00    +0.000 C 
ATOM      4  F   UNL     1       8.494   5.162  18.752  0.00  0.00    +0.000 F 
ATOM      5  F   UNL     1       7.891   7.248  18.631  0.00  0.00    +0.000 F 
ATOM      6  C   UNL     1       6.213   5.642  18.986  0.00  0.00    +0.000 C 
ATOM      7  C   UNL     1       5.467   4.782  17.970  0.00  0.00    +0.000 C 
ENDROOT
BRANCH   7   8
ATOM      8  C   UNL     1       3.969   4.997  18.163  0.00  0.00    +0.000 C 
ATOM      9  O   UNL     1       3.377   5.837  17.482  0.00  0.00    +0.000 OA
ATOM     10  N   UNL     1       3.304   4.274  19.149  0.00  0.00    +0.000 N 
ATOM     11  C   UNL     1       3.802   3.040  19.766  0.00  0.00    +0.000 C 
ATOM     12  C   UNL     1       3.354   1.831  18.925  0.00  0.00    +0.000 C 
ATOM     13  O   UNL     1       1.930   1.835  18.702  0.00  0.00    +0.000 OA
ATOM     14  C   UNL     1       1.473   3.073  18.122  0.00  0.00    +0.000 C 
ATOM     15  C   UNL     1       1.842   4.248  19.038  0.00  0.00    +0.000 C 
ENDBRANCH   7   8
BRANCH   1  17
ATOM     16  N   UNL     1       6.352   4.572  14.217  0.00  0.00    +0.000 N 
ATOM     17  C   UNL     1       5.926   4.198  15.488  0.00  0.00    +0.000 C 
ATOM     18  O   UNL     1       5.599   3.043  15.744  0.00  0.00    +0.000 OA
ATOM     19  H   UNL     1       6.481   5.550  13.997  0.00  0.00    +0.000 HD
BRANCH  16  20
ATOM     20  C   UNL     1       6.381   3.578  13.123  0.00  0.00    +0.000 C 
BRANCH  20  22
ATOM     21  N   UNL     1       4.116   3.389  11.520  0.00  0.00    +0.000 NA
ATOM     22  C   UNL     1       5.143   3.475  12.247  0.00  0.00    +0.000 C 
ENDBRANCH  20  22
ENDBRANCH  16  20
ENDBRANCH   1  17
TORSDOF 4
ENDMDL
MODEL 8
REMARK VINA RESULT:      -6.8      2.991      4.684
REMARK  Name = 
REMARK  4 active torsions:
REMARK  status: ('A' for Active; 'I' for Inactive)
REMARK    1  A    between atoms: C_2  and  C_3
REMARK    2  A    between atoms: C_3  and  N_4
REMARK    3  A    between atoms: C_5  and  C_7
REMARK    4  A    between atoms: C_13  and  C_14
REMARK                            x       y       z     vdW  Elec       q    Type
REMARK                         _______ _______ _______ _____ _____    ______ ____
ROOT
ATOM      1  C   UNL     1       5.525   5.481  17.207  0.00  0.00    +0.000 C 
ATOM      2  C   UNL     1       7.014   5.818  17.070  0.00  0.00    +0.000 C 
ATOM      3  C   UNL     1       7.622   5.707  18.459  0.00  0.00    +0.000 C 
ATOM      4  F   UNL     1       8.549   4.721  18.475  0.00  0.00    +0.000 F 
ATOM      5  F   UNL     1       8.256   6.850  18.805  0.00  0.00    +0.000 F 
ATOM      6  C   UNL     1       6.527   5.394  19.448  0.00  0.00    +0.000 C 
ATOM      7  C   UNL     1       5.403   4.796  18.606  0.00  0.00    +0.000 C 
ENDROOT
BRANCH   7   8
ATOM      8  C   UNL     1       4.071   5.134  19.269  0.00  0.00    +0.000 C 
ATOM      9  O   UNL     1       3.582   6.256  19.126  0.00  0.00    +0.000 OA
ATOM     10  N   UNL     1       3.456   4.179  20.074  0.00  0.00    +0.000 N 
ATOM     11  C   UNL     1       3.747   2.742  20.044  0.00  0.00    +0.000 C 
ATOM     12  C   UNL     1       2.860   2.062  18.985  0.00  0.00    +0.000 C 
ATOM     13  O   UNL     1       1.465   2.368  19.182  0.00  0.00    +0.000 OA
ATOM     14  C   UNL     1       1.221   3.788  19.234  0.00  0.00    +0.000 C 
ATOM     15  C   UNL     1       2.040   4.419  20.370  0.00  0.00    +0.000 C 
ENDBRANCH   7   8
BRANCH   1  17
ATOM     16  N   UNL     1       5.652   4.781  14.813  0.00  0.00    +0.000 N 
ATOM     17  C   UNL     1       5.046   4.580  16.049  0.00  0.00    +0.000 C 
ATOM     18  O   UNL     1       4.202   3.705  16.220  0.00  0.00    +0.000 OA
ATOM     19  H   UNL     1       6.236   5.592  14.664  0.00  0.00    +0.000 HD
BRANCH  16  20
ATOM     20  C   UNL     1       5.255   3.956  13.651  0.00  0.00    +0.000 C 
BRANCH  20  22
ATOM     21  N   UNL     1       7.229   3.365  11.783  0.00  0.00    +0.000 NA
ATOM     22  C   UNL     1       6.334   3.633  12.630  0.00  0.00    +0.000 C 
ENDBRANCH  20  22
ENDBRANCH  16  20
ENDBRANCH   1  17
TORSDOF 4
ENDMDL
MODEL 9
REMARK VINA RESULT:      -6.6      3.145      4.778
REMARK  Name = 
REMARK  4 active torsions:
REMARK  status: ('A' for Active; 'I' for Inactive)
REMARK    1  A    between atoms: C_2  and  C_3
REMARK    2  A    between atoms: C_3  and  N_4
REMARK    3  A    between atoms: C_5  and  C_7
REMARK    4  A    between atoms: C_13  and  C_14
REMARK                            x       y       z     vdW  Elec       q    Type
REMARK                         _______ _______ _______ _____ _____    ______ ____
ROOT
ATOM      1  C   UNL     1       2.726   5.431  18.421  0.00  0.00    +0.000 C 
ATOM      2  C   UNL     1       1.720   5.149  19.543  0.00  0.00    +0.000 C 
ATOM      3  C   UNL     1       2.353   4.108  20.452  0.00  0.00    +0.000 C 
ATOM      4  F   UNL     1       2.543   4.632  21.686  0.00  0.00    +0.000 F 
ATOM      5  F   UNL     1       1.543   3.036  20.600  0.00  0.00    +0.000 F 
ATOM      6  C   UNL     1       3.678   3.689  19.867  0.00  0.00    +0.000 C 
ATOM      7  C   UNL     1       4.073   4.836  18.941  0.00  0.00    +0.000 C 
ENDROOT
BRANCH   7   8
ATOM      8  C   UNL     1       4.902   4.267  17.793  0.00  0.00    +0.000 C 
ATOM      9  O   UNL     1       4.355   3.594  16.918  0.00  0.00    +0.000 OA
ATOM     10  N   UNL     1       6.278   4.473  17.787  0.00  0.00    +0.000 N 
ATOM     11  C   UNL     1       6.976   5.511  18.553  0.00  0.00    +0.000 C 
ATOM     12  C   UNL     1       7.026   6.809  17.727  0.00  0.00    +0.000 C 
ATOM     13  O   UNL     1       7.579   6.586  16.415  0.00  0.00    +0.000 OA
ATOM     14  C   UNL     1       6.887   5.540  15.703  0.00  0.00    +0.000 C 
ATOM     15  C   UNL     1       6.948   4.232  16.505  0.00  0.00    +0.000 C 
ENDBRANCH   7   8
BRANCH   1  17
ATOM     16  N   UNL     1       1.872   7.758  18.735  0.00  0.00    +0.000 N 
ATOM     17  C   UNL     1       2.811   6.940  18.112  0.00  0.00    +0.000 C 
ATOM     18  O   UNL     1       3.686   7.401  17.385  0.00  0.00    +0.000 OA
ATOM     19  H   UNL     1       1.083   7.345  19.211  0.00  0.00    +0.000 HD
BRANCH  16  20
ATOM     20  C   UNL     1       1.887   9.217  18.497  0.00  0.00    +0.000 C 
BRANCH  20  22
ATOM     21  N   UNL     1      -0.573  10.481  18.211  0.00  0.00    +0.000 NA
ATOM     22  C   UNL     1       0.542   9.908  18.341  0.00  0.00    +0.000 C 
ENDBRANCH  20  22
ENDBRANCH  16  20
ENDBRANCH   1  17
TORSDOF 4
ENDMDL
