MODEL 1
REMARK VINA RESULT:      -6.4      0.000      0.000
REMARK  Name = 
REMARK  18 active torsions:
REMARK  status: ('A' for Active; 'I' for Inactive)
REMARK    1  A    between atoms: C_1  and  C_2
REMARK    2  A    between atoms: C_2  and  O_3
REMARK    3  A    between atoms: O_3  and  C_4
REMARK    4  A    between atoms: C_4  and  C_5
REMARK    5  A    between atoms: C_5  and  O_6
REMARK    6  A    between atoms: O_6  and  C_7
REMARK    7  A    between atoms: C_7  and  C_9
REMARK    8  A    between atoms: C_9  and  C_10
REMARK    9  A    between atoms: C_12  and  N_13
REMARK   10  A    between atoms: C_12  and  C_24
REMARK   11  A    between atoms: N_13  and  C_14
REMARK   12  A    between atoms: C_14  and  C_15
REMARK   13  A    between atoms: C_18  and  O_19
REMARK   14  A    between atoms: O_19  and  C_20
REMARK   15  A    between atoms: C_20  and  C_21
REMARK   16  A    between atoms: C_20  and  C_22
REMARK   17  A    between atoms: C_24  and  C_25
REMARK   18  A    between atoms: C_24  and  C_26
REMARK                            x       y       z     vdW  Elec       q    Type
REMARK                         _______ _______ _______ _____ _____    ______ ____
ROOT
ATOM      1  C   UNL     1       4.347   3.728  19.126  0.00  0.00    +0.000 C 
ATOM      2  C   UNL     1       3.064   4.198  19.017  0.00  0.00    +0.000 C 
ENDROOT
BRANCH   2   3
ATOM      3  C   UNL     1       1.890   3.468  19.734  0.00  0.00    +0.000 C 
ATOM      4  C   UNL     1       0.963   4.424  20.496  0.00  0.00    +0.000 C 
ATOM      5  C   UNL     1       1.015   2.590  18.831  0.00  0.00    +0.000 C 
ENDBRANCH   2   3
BRANCH   1   6
ATOM      6  C   UNL     1       5.579   4.370  18.562  0.00  0.00    +0.000 C 
ATOM      7  O   UNL     1       6.440   4.905  19.256  0.00  0.00    +0.000 OA
BRANCH   6   8
ATOM      8  O   UNL     1       5.627   4.383  17.209  0.00  0.00    +0.000 OA
BRANCH   8   9
ATOM      9  C   UNL     1       6.947   4.589  16.710  0.00  0.00    +0.000 C 
BRANCH   9  10
ATOM     10  C   UNL     1       7.006   4.737  15.201  0.00  0.00    +0.000 C 
BRANCH  10  11
ATOM     11  O   UNL     1       6.293   3.636  14.629  0.00  0.00    +0.000 OA
BRANCH  11  13
ATOM     12  C   UNL     1       6.214   3.320  12.257  0.00  0.00    +0.000 C 
ATOM     13  C   UNL     1       5.599   4.024  13.449  0.00  0.00    +0.000 C 
ENDBRANCH  11  13
ENDBRANCH  10  11
ENDBRANCH   9  10
ENDBRANCH   8   9
ENDBRANCH   6   8
ENDBRANCH   1   6
BRANCH   1  14
ATOM     14  C   UNL     1       4.658   2.562  19.913  0.00  0.00    +0.000 C 
ATOM     15  N   UNL     1       4.884   1.599  20.500  0.00  0.00    +0.000 NA
ENDBRANCH   1  14
BRANCH   2  16
ATOM     16  N   UNL     1       2.736   5.361  18.303  0.00  0.00    +0.000 N 
ATOM     17  H   UNL     1       2.546   5.209  17.312  0.00  0.00    +0.000 HD
BRANCH  16  18
ATOM     18  C   UNL     1       3.363   6.666  18.532  0.00  0.00    +0.000 C 
BRANCH  18  19
ATOM     19  C   UNL     1       2.367   7.751  18.731  0.00  0.00    +0.000 A 
ATOM     20  C   UNL     1       1.878   8.655  17.814  0.00  0.00    +0.000 A 
ATOM     21  N   UNL     1       0.980   9.571  18.309  0.00  0.00    +0.000 NA
ATOM     22  C   UNL     1       0.760   9.323  19.581  0.00  0.00    +0.000 A 
ATOM     23  S   UNL     1       1.663   8.044  20.264  0.00  0.00    +0.000 S 
BRANCH  22  24
ATOM     24  O   UNL     1      -0.127   9.991  20.312  0.00  0.00    +0.000 OA
BRANCH  24  25
ATOM     25  C   UNL     1       0.418  10.682  21.438  0.00  0.00    +0.000 C 
ATOM     26  C   UNL     1       0.275  12.189  21.231  0.00  0.00    +0.000 C 
ATOM     27  C   UNL     1      -0.384  10.237  22.651  0.00  0.00    +0.000 C 
ENDBRANCH  24  25
ENDBRANCH  22  24
ENDBRANCH  18  19
ENDBRANCH  16  18
ENDBRANCH   2  16
TORSDOF 13
ENDMDL
MODEL 2
REMARK VINA RESULT:      -6.4      1.576      1.778
REMARK  Name = 
REMARK  18 active torsions:
REMARK  status: ('A' for Active; 'I' for Inactive)
REMARK    1  A    between atoms: C_1  and  C_2
REMARK    2  A    between atoms: C_2  and  O_3
REMARK    3  A    between atoms: O_3  and  C_4
REMARK    4  A    between atoms: C_4  and  C_5
REMARK    5  A    between atoms: C_5  and  O_6
REMARK    6  A    between atoms: O_6  and  C_7
REMARK    7  A    between atoms: C_7  and  C_9
REMARK    8  A    between atoms: C_9  and  C_10
REMARK    9  A    between atoms: C_12  and  N_13
REMARK   10  A    between atoms: C_12  and  C_24
REMARK   11  A    between atoms: N_13  and  C_14
REMARK   12  A    between atoms: C_14  and  C_15
REMARK   13  A    between atoms: C_18  and  O_19
REMARK   14  A    between atoms: O_19  and  C_20
REMARK   15  A    between atoms: C_20  and  C_21
REMARK   16  A    between atoms: C_20  and  C_22
REMARK   17  A    between atoms: C_24  and  C_25
REMARK   18  A    between atoms: C_24  and  C_26
REMARK                            x       y       z     vdW  Elec       q    Type
REMARK                         _______ _______ _______ _____ _____    ______ ____
ROOT
ATOM      1  C   UNL     1       4.292   3.667  19.424  0.00  0.00    +0.000 C 
ATOM      2  C   UNL     1       2.964   4.002  19.366  0.00  0.00    +0.000 C 
ENDROOT
BRANCH   2   3
ATOM      3  C   UNL     1       1.869   2.978  19.785  0.00  0.00    +0.000 C 
ATOM      4  C   UNL     1       1.267   3.271  21.165  0.00  0.00    +0.000 C 
ATOM      5  C   UNL     1       0.710   2.817  18.794  0.00  0.00    +0.000 C 
ENDBRANCH   2   3
BRANCH   1   6
ATOM      6  C   UNL     1       5.451   4.571  19.132  0.00  0.00    +0.000 C 
ATOM      7  O   UNL     1       5.620   5.654  19.686  0.00  0.00    +0.000 OA
BRANCH   6   8
ATOM      8  O   UNL     1       6.262   4.130  18.142  0.00  0.00    +0.000 OA
BRANCH   8   9
ATOM      9  C   UNL     1       7.373   4.995  17.917  0.00  0.00    +0.000 C 
BRANCH   9  10
ATOM     10  C   UNL     1       7.108   6.061  16.869  0.00  0.00    +0.000 C 
BRANCH  10  11
ATOM     11  O   UNL     1       7.456   5.511  15.595  0.00  0.00    +0.000 OA
BRANCH  11  13
ATOM     12  C   UNL     1       6.153   3.807  14.530  0.00  0.00    +0.000 C 
ATOM     13  C   UNL     1       6.303   5.292  14.791  0.00  0.00    +0.000 C 
ENDBRANCH  11  13
ENDBRANCH  10  11
ENDBRANCH   9  10
ENDBRANCH   8   9
ENDBRANCH   6   8
ENDBRANCH   1   6
BRANCH   1  14
ATOM     14  C   UNL     1       4.722   2.371  19.886  0.00  0.00    +0.000 C 
ATOM     15  N   UNL     1       5.022   1.314  20.226  0.00  0.00    +0.000 NA
ENDBRANCH   1  14
BRANCH   2  16
ATOM     16  N   UNL     1       2.517   5.273  18.972  0.00  0.00    +0.000 N 
ATOM     17  H   UNL     1       2.892   5.595  18.079  0.00  0.00    +0.000 HD
BRANCH  16  18
ATOM     18  C   UNL     1       2.307   6.390  19.898  0.00  0.00    +0.000 C 
BRANCH  18  19
ATOM     19  C   UNL     1       2.065   7.676  19.195  0.00  0.00    +0.000 A 
ATOM     20  C   UNL     1       2.452   8.056  17.928  0.00  0.00    +0.000 A 
ATOM     21  N   UNL     1       2.105   9.337  17.564  0.00  0.00    +0.000 NA
ATOM     22  C   UNL     1       1.419   9.896  18.536  0.00  0.00    +0.000 A 
ATOM     23  S   UNL     1       1.219   8.959  19.950  0.00  0.00    +0.000 S 
BRANCH  22  24
ATOM     24  O   UNL     1       0.875  11.106  18.443  0.00  0.00    +0.000 OA
BRANCH  24  25
ATOM     25  C   UNL     1       1.555  12.130  19.170  0.00  0.00    +0.000 C 
ATOM     26  C   UNL     1       2.444  12.928  18.218  0.00  0.00    +0.000 C 
ATOM     27  C   UNL     1       0.482  13.026  19.767  0.00  0.00    +0.000 C 
ENDBRANCH  24  25
ENDBRANCH  22  24
ENDBRANCH  18  19
ENDBRANCH  16  18
ENDBRANCH   2  16
TORSDOF 13
ENDMDL
MODEL 3
REMARK VINA RESULT:      -6.3      1.395      1.584
REMARK  Name = 
REMARK  18 active torsions:
REMARK  status: ('A' for Active; 'I' for Inactive)
REMARK    1  A    between atoms: C_1  and  C_2
REMARK    2  A    between atoms: C_2  and  O_3
REMARK    3  A    between atoms: O_3  and  C_4
REMARK    4  A    between atoms: C_4  and  C_5
REMARK    5  A    between atoms: C_5  and  O_6
REMARK    6  A    between atoms: O_6  and  C_7
REMARK    7  A    between atoms: C_7  and  C_9
REMARK    8  A    between atoms: C_9  and  C_10
REMARK    9  A    between atoms: C_12  and  N_13
REMARK   10  A    between atoms: C_12  and  C_24
REMARK   11  A    between atoms: N_13  and  C_14
REMARK   12  A    between atoms: C_14  and  C_15
REMARK   13  A    between atoms: C_18  and  O_19
REMARK   14  A    between atoms: O_19  and  C_20
REMARK   15  A    between atoms: C_20  and  C_21
REMARK   16  A    between atoms: C_20  and  C_22
REMARK   17  A    between atoms: C_24  and  C_25
REMARK   18  A    between atoms: C_24  and  C_26
REMARK                            x       y       z     vdW  Elec       q    Type
REMARK                         _______ _______ _______ _____ _____    ______ ____
ROOT
ATOM      1  C   UNL     1       4.315   3.769  19.365  0.00  0.00    +0.000 C 
ATOM      2  C   UNL     1       3.017   4.203  19.302  0.00  0.00    +0.000 C 
ENDROOT
BRANCH   2   3
ATOM      3  C   UNL     1       1.849   3.276  19.752  0.00  0.00    +0.000 C 
ATOM      4  C   UNL     1       0.796   4.002  20.599  0.00  0.00    +0.000 C 
ATOM      5  C   UNL     1       1.116   2.550  18.617  0.00  0.00    +0.000 C 
ENDBRANCH   2   3
BRANCH   1   6
ATOM      6  C   UNL     1       5.539   4.574  19.045  0.00  0.00    +0.000 C 
ATOM      7  O   UNL     1       5.924   5.518  19.730  0.00  0.00    +0.000 OA
BRANCH   6   8
ATOM      8  O   UNL     1       6.144   4.225  17.886  0.00  0.00    +0.000 OA
BRANCH   8   9
ATOM      9  C   UNL     1       5.817   5.104  16.811  0.00  0.00    +0.000 C 
BRANCH   9  10
ATOM     10  C   UNL     1       7.005   5.457  15.935  0.00  0.00    +0.000 C 
BRANCH  10  11
ATOM     11  O   UNL     1       6.610   5.267  14.573  0.00  0.00    +0.000 OA
BRANCH  11  13
ATOM     12  C   UNL     1       6.174   3.666  12.845  0.00  0.00    +0.000 C 
ATOM     13  C   UNL     1       6.184   3.930  14.337  0.00  0.00    +0.000 C 
ENDBRANCH  11  13
ENDBRANCH  10  11
ENDBRANCH   9  10
ENDBRANCH   8   9
ENDBRANCH   6   8
ENDBRANCH   1   6
BRANCH   1  14
ATOM     14  C   UNL     1       4.648   2.457  19.859  0.00  0.00    +0.000 C 
ATOM     15  N   UNL     1       4.962   1.412  20.224  0.00  0.00    +0.000 NA
ENDBRANCH   1  14
BRANCH   2  16
ATOM     16  N   UNL     1       2.665   5.494  18.877  0.00  0.00    +0.000 N 
ATOM     17  H   UNL     1       2.951   5.716  17.922  0.00  0.00    +0.000 HD
BRANCH  16  18
ATOM     18  C   UNL     1       2.707   6.679  19.737  0.00  0.00    +0.000 C 
BRANCH  18  19
ATOM     19  C   UNL     1       2.163   7.889  19.069  0.00  0.00    +0.000 A 
ATOM     20  C   UNL     1       2.416   8.364  17.800  0.00  0.00    +0.000 A 
ATOM     21  N   UNL     1       1.782   9.541  17.473  0.00  0.00    +0.000 NA
ATOM     22  C   UNL     1       1.021   9.919  18.475  0.00  0.00    +0.000 A 
ATOM     23  S   UNL     1       1.079   8.941  19.875  0.00  0.00    +0.000 S 
BRANCH  22  24
ATOM     24  O   UNL     1       0.219  10.979  18.424  0.00  0.00    +0.000 OA
BRANCH  24  25
ATOM     25  C   UNL     1      -1.128  10.736  18.833  0.00  0.00    +0.000 C 
ATOM     26  C   UNL     1      -1.667  11.962  19.568  0.00  0.00    +0.000 C 
ATOM     27  C   UNL     1      -1.930  10.485  17.566  0.00  0.00    +0.000 C 
ENDBRANCH  24  25
ENDBRANCH  22  24
ENDBRANCH  18  19
ENDBRANCH  16  18
ENDBRANCH   2  16
TORSDOF 13
ENDMDL
MODEL 4
REMARK VINA RESULT:      -6.2      1.780      2.102
REMARK  Name = 
REMARK  18 active torsions:
REMARK  status: ('A' for Active; 'I' for Inactive)
REMARK    1  A    between atoms: C_1  and  C_2
REMARK    2  A    between atoms: C_2  and  O_3
REMARK    3  A    between atoms: O_3  and  C_4
REMARK    4  A    between atoms: C_4  and  C_5
REMARK    5  A    between atoms: C_5  and  O_6
REMARK    6  A    between atoms: O_6  and  C_7
REMARK    7  A    between atoms: C_7  and  C_9
REMARK    8  A    between atoms: C_9  and  C_10
REMARK    9  A    between atoms: C_12  and  N_13
REMARK   10  A    between atoms: C_12  and  C_24
REMARK   11  A    between atoms: N_13  and  C_14
REMARK   12  A    between atoms: C_14  and  C_15
REMARK   13  A    between atoms: C_18  and  O_19
REMARK   14  A    between atoms: O_19  and  C_20
REMARK   15  A    between atoms: C_20  and  C_21
REMARK   16  A    between atoms: C_20  and  C_22
REMARK   17  A    between atoms: C_24  and  C_25
REMARK   18  A    between atoms: C_24  and  C_26
REMARK                            x       y       z     vdW  Elec       q    Type
REMARK                         _______ _______ _______ _____ _____    ______ ____
ROOT
ATOM      1  C   UNL     1       3.840   3.959  19.339  0.00  0.00    +0.000 C 
ATOM      2  C   UNL     1       2.868   4.580  20.079  0.00  0.00    +0.000 C 
ENDROOT
BRANCH   2   3
ATOM      3  C   UNL     1       1.637   3.782  20.600  0.00  0.00    +0.000 C 
ATOM      4  C   UNL     1       0.813   3.143  19.475  0.00  0.00    +0.000 C 
ATOM      5  C   UNL     1       1.954   2.687  21.627  0.00  0.00    +0.000 C 
ENDBRANCH   2   3
BRANCH   1   6
ATOM      6  C   UNL     1       5.113   4.577  18.844  0.00  0.00    +0.000 C 
ATOM      7  O   UNL     1       6.228   4.154  19.135  0.00  0.00    +0.000 OA
BRANCH   6   8
ATOM      8  O   UNL     1       4.933   5.699  18.107  0.00  0.00    +0.000 OA
BRANCH   8   9
ATOM      9  C   UNL     1       4.551   5.417  16.762  0.00  0.00    +0.000 C 
BRANCH   9  10
ATOM     10  C   UNL     1       5.290   6.255  15.736  0.00  0.00    +0.000 C 
BRANCH  10  11
ATOM     11  O   UNL     1       6.585   5.672  15.553  0.00  0.00    +0.000 OA
BRANCH  11  13
ATOM     12  C   UNL     1       6.124   4.048  13.854  0.00  0.00    +0.000 C 
ATOM     13  C   UNL     1       6.494   4.274  15.306  0.00  0.00    +0.000 C 
ENDBRANCH  11  13
ENDBRANCH  10  11
ENDBRANCH   9  10
ENDBRANCH   8   9
ENDBRANCH   6   8
ENDBRANCH   1   6
BRANCH   1  14
ATOM     14  C   UNL     1       3.769   2.552  19.032  0.00  0.00    +0.000 C 
ATOM     15  N   UNL     1       3.659   1.437  18.772  0.00  0.00    +0.000 NA
ENDBRANCH   1  14
BRANCH   2  16
ATOM     16  N   UNL     1       2.936   5.935  20.440  0.00  0.00    +0.000 N 
ATOM     17  H   UNL     1       3.711   6.168  21.062  0.00  0.00    +0.000 HD
BRANCH  16  18
ATOM     18  C   UNL     1       1.762   6.769  20.713  0.00  0.00    +0.000 C 
BRANCH  18  19
ATOM     19  C   UNL     1       1.663   7.933  19.795  0.00  0.00    +0.000 A 
ATOM     20  C   UNL     1       2.146   8.066  18.512  0.00  0.00    +0.000 A 
ATOM     21  N   UNL     1       1.924   9.288  17.921  0.00  0.00    +0.000 NA
ATOM     22  C   UNL     1       1.234  10.050  18.740  0.00  0.00    +0.000 A 
ATOM     23  S   UNL     1       0.884   9.381  20.273  0.00  0.00    +0.000 S 
BRANCH  22  24
ATOM     24  O   UNL     1       0.795  11.262  18.415  0.00  0.00    +0.000 OA
BRANCH  24  25
ATOM     25  C   UNL     1      -0.537  11.556  18.843  0.00  0.00    +0.000 C 
ATOM     26  C   UNL     1      -0.782  13.061  18.751  0.00  0.00    +0.000 C 
ATOM     27  C   UNL     1      -1.470  10.810  17.903  0.00  0.00    +0.000 C 
ENDBRANCH  24  25
ENDBRANCH  22  24
ENDBRANCH  18  19
ENDBRANCH  16  18
ENDBRANCH   2  16
TORSDOF 13
ENDMDL
MODEL 5
REMARK VINA RESULT:      -6.2      2.012      2.779
REMARK  Name = 
REMARK  18 active torsions:
REMARK  status: ('A' for Active; 'I' for Inactive)
REMARK    1  A    between atoms: C_1  and  C_2
REMARK    2  A    between atoms: C_2  and  O_3
REMARK    3  A    between atoms: O_3  and  C_4
REMARK    4  A    between atoms: C_4  and  C_5
REMARK    5  A    between atoms: C_5  and  O_6
REMARK    6  A    between atoms: O_6  and  C_7
REMARK    7  A    between atoms: C_7  and  C_9
REMARK    8  A    between atoms: C_9  and  C_10
REMARK    9  A    between atoms: C_12  and  N_13
REMARK   10  A    between atoms: C_12  and  C_24
REMARK   11  A    between atoms: N_13  and  C_14
REMARK   12  A    between atoms: C_14  and  C_15
REMARK   13  A    between atoms: C_18  and  O_19
REMARK   14  A    between atoms: O_19  and  C_20
REMARK   15  A    between atoms: C_20  and  C_21
REMARK   16  A    between atoms: C_20  and  C_22
REMARK   17  A    between atoms: C_24  and  C_25
REMARK   18  A    between atoms: C_24  and  C_26
REMARK                            x       y       z     vdW  Elec       q    Type
REMARK                         _______ _______ _______ _____ _____    ______ ____
ROOT
ATOM      1  C   UNL     1       3.628   3.839  19.201  0.00  0.00    +0.000 C 
ATOM      2  C   UNL     1       2.635   4.509  19.868  0.00  0.00    +0.000 C 
ENDROOT
BRANCH   2   3
ATOM      3  C   UNL     1       1.389   3.747  20.407  0.00  0.00    +0.000 C 
ATOM      4  C   UNL     1       0.590   3.042  19.304  0.00  0.00    +0.000 C 
ATOM      5  C   UNL     1       1.677   2.716  21.507  0.00  0.00    +0.000 C 
ENDBRANCH   2   3
BRANCH   1   6
ATOM      6  C   UNL     1       4.914   4.423  18.701  0.00  0.00    +0.000 C 
ATOM      7  O   UNL     1       5.734   4.975  19.430  0.00  0.00    +0.000 OA
BRANCH   6   8
ATOM      8  O   UNL     1       5.064   4.364  17.357  0.00  0.00    +0.000 OA
BRANCH   8   9
ATOM      9  C   UNL     1       5.573   5.579  16.808  0.00  0.00    +0.000 C 
BRANCH   9  10
ATOM     10  C   UNL     1       6.948   5.431  16.184  0.00  0.00    +0.000 C 
BRANCH  10  11
ATOM     11  O   UNL     1       7.630   6.680  16.339  0.00  0.00    +0.000 OA
BRANCH  11  13
ATOM     12  C   UNL     1       8.035   8.558  17.768  0.00  0.00    +0.000 C 
ATOM     13  C   UNL     1       7.073   7.447  17.400  0.00  0.00    +0.000 C 
ENDBRANCH  11  13
ENDBRANCH  10  11
ENDBRANCH   9  10
ENDBRANCH   8   9
ENDBRANCH   6   8
ENDBRANCH   1   6
BRANCH   1  14
ATOM     14  C   UNL     1       3.564   2.415  18.989  0.00  0.00    +0.000 C 
ATOM     15  N   UNL     1       3.570   1.276  18.830  0.00  0.00    +0.000 NA
ENDBRANCH   1  14
BRANCH   2  16
ATOM     16  N   UNL     1       2.694   5.885  20.138  0.00  0.00    +0.000 N 
ATOM     17  H   UNL     1       2.161   6.178  20.958  0.00  0.00    +0.000 HD
BRANCH  16  18
ATOM     18  C   UNL     1       2.694   6.923  19.103  0.00  0.00    +0.000 C 
BRANCH  18  19
ATOM     19  C   UNL     1       1.861   8.096  19.471  0.00  0.00    +0.000 A 
ATOM     20  C   UNL     1       1.272   8.394  20.680  0.00  0.00    +0.000 A 
ATOM     21  N   UNL     1       0.525   9.549  20.705  0.00  0.00    +0.000 NA
ATOM     22  C   UNL     1       0.594  10.138  19.532  0.00  0.00    +0.000 A 
ATOM     23  S   UNL     1       1.484   9.314  18.328  0.00  0.00    +0.000 S 
BRANCH  22  24
ATOM     24  O   UNL     1       0.040  11.319  19.274  0.00  0.00    +0.000 OA
BRANCH  24  25
ATOM     25  C   UNL     1      -1.389  11.328  19.274  0.00  0.00    +0.000 C 
ATOM     26  C   UNL     1      -1.891  12.627  19.904  0.00  0.00    +0.000 C 
ATOM     27  C   UNL     1      -1.825  11.244  17.820  0.00  0.00    +0.000 C 
ENDBRANCH  24  25
ENDBRANCH  22  24
ENDBRANCH  18  19
ENDBRANCH  16  18
ENDBRANCH   2  16
TORSDOF 13
ENDMDL
MODEL 6
REMARK VINA RESULT:      -6.1      1.604      1.906
REMARK  Name = 
REMARK  18 active torsions:
REMARK  status: ('A' for Active; 'I' for Inactive)
REMARK    1  A    between atoms: C_1  and  C_2
REMARK    2  A    between atoms: C_2  and  O_3
REMARK    3  A    between atoms: O_3  and  C_4
REMARK    4  A    between atoms: C_4  and  C_5
REMARK    5  A    between atoms: C_5  and  O_6
REMARK    6  A    between atoms: O_6  and  C_7
REMARK    7  A    between atoms: C_7  and  C_9
REMARK    8  A    between atoms: C_9  and  C_10
REMARK    9  A    between atoms: C_12  and  N_13
REMARK   10  A    between atoms: C_12  and  C_24
REMARK   11  A    between atoms: N_13  and  C_14
REMARK   12  A    between atoms: C_14  and  C_15
REMARK   13  A    between atoms: C_18  and  O_19
REMARK   14  A    between atoms: O_19  and  C_20
REMARK   15  A    between atoms: C_20  and  C_21
REMARK   16  A    between atoms: C_20  and  C_22
REMARK   17  A    between atoms: C_24  and  C_25
REMARK   18  A    between atoms: C_24  and  C_26
REMARK                            x       y       z     vdW  Elec       q    Type
REMARK                         _______ _______ _______ _____ _____    ______ ____
ROOT
ATOM      1  C   UNL     1       3.841   3.723  19.091  0.00  0.00    +0.000 C 
ATOM      2  C   UNL     1       2.893   4.421  19.793  0.00  0.00    +0.000 C 
ENDROOT
BRANCH   2   3
ATOM      3  C   UNL     1       1.646   3.696  20.378  0.00  0.00    +0.000 C 
ATOM      4  C   UNL     1       0.828   2.951  19.314  0.00  0.00    +0.000 C 
ATOM      5  C   UNL     1       1.936   2.711  21.518  0.00  0.00    +0.000 C 
ENDBRANCH   2   3
BRANCH   1   6
ATOM      6  C   UNL     1       5.125   4.270  18.544  0.00  0.00    +0.000 C 
ATOM      7  O   UNL     1       6.131   4.443  19.227  0.00  0.00    +0.000 OA
BRANCH   6   8
ATOM      8  O   UNL     1       5.061   4.638  17.242  0.00  0.00    +0.000 OA
BRANCH   8   9
ATOM      9  C   UNL     1       6.186   4.188  16.490  0.00  0.00    +0.000 C 
BRANCH   9  10
ATOM     10  C   UNL     1       6.931   5.308  15.788  0.00  0.00    +0.000 C 
BRANCH  10  11
ATOM     11  O   UNL     1       6.621   5.227  14.393  0.00  0.00    +0.000 OA
BRANCH  11  13
ATOM     12  C   UNL     1       6.418   3.677  12.578  0.00  0.00    +0.000 C 
ATOM     13  C   UNL     1       6.135   3.936  14.044  0.00  0.00    +0.000 C 
ENDBRANCH  11  13
ENDBRANCH  10  11
ENDBRANCH   9  10
ENDBRANCH   8   9
ENDBRANCH   6   8
ENDBRANCH   1   6
BRANCH   1  14
ATOM     14  C   UNL     1       3.729   2.301  18.882  0.00  0.00    +0.000 C 
ATOM     15  N   UNL     1       3.621   1.162  18.770  0.00  0.00    +0.000 NA
ENDBRANCH   1  14
BRANCH   2  16
ATOM     16  N   UNL     1       3.001   5.796  20.059  0.00  0.00    +0.000 N 
ATOM     17  H   UNL     1       2.476   6.110  20.876  0.00  0.00    +0.000 HD
BRANCH  16  18
ATOM     18  C   UNL     1       3.045   6.830  19.021  0.00  0.00    +0.000 C 
BRANCH  18  19
ATOM     19  C   UNL     1       2.099   7.943  19.285  0.00  0.00    +0.000 A 
ATOM     20  C   UNL     1       1.453   8.271  20.457  0.00  0.00    +0.000 A 
ATOM     21  N   UNL     1       0.603   9.350  20.382  0.00  0.00    +0.000 NA
ATOM     22  C   UNL     1       0.649   9.857  19.170  0.00  0.00    +0.000 A 
ATOM     23  S   UNL     1       1.642   9.036  18.048  0.00  0.00    +0.000 S 
BRANCH  22  24
ATOM     24  O   UNL     1      -0.004  10.960  18.815  0.00  0.00    +0.000 OA
BRANCH  24  25
ATOM     25  C   UNL     1      -1.406  10.947  19.091  0.00  0.00    +0.000 C 
ATOM     26  C   UNL     1      -1.878  12.366  19.403  0.00  0.00    +0.000 C 
ATOM     27  C   UNL     1      -2.091  10.425  17.839  0.00  0.00    +0.000 C 
ENDBRANCH  24  25
ENDBRANCH  22  24
ENDBRANCH  18  19
ENDBRANCH  16  18
ENDBRANCH   2  16
TORSDOF 13
ENDMDL
MODEL 7
REMARK VINA RESULT:      -6.0      1.376      1.597
REMARK  Name = 
REMARK  18 active torsions:
REMARK  status: ('A' for Active; 'I' for Inactive)
REMARK    1  A    between atoms: C_1  and  C_2
REMARK    2  A    between atoms: C_2  and  O_3
REMARK    3  A    between atoms: O_3  and  C_4
REMARK    4  A    between atoms: C_4  and  C_5
REMARK    5  A    between atoms: C_5  and  O_6
REMARK    6  A    between atoms: O_6  and  C_7
REMARK    7  A    between atoms: C_7  and  C_9
REMARK    8  A    between atoms: C_9  and  C_10
REMARK    9  A    between atoms: C_12  and  N_13
REMARK   10  A    between atoms: C_12  and  C_24
REMARK   11  A    between atoms: N_13  and  C_14
REMARK   12  A    between atoms: C_14  and  C_15
REMARK   13  A    between atoms: C_18  and  O_19
REMARK   14  A    between atoms: O_19  and  C_20
REMARK   15  A    between atoms: C_20  and  C_21
REMARK   16  A    between atoms: C_20  and  C_22
REMARK   17  A    between atoms: C_24  and  C_25
REMARK   18  A    between atoms: C_24  and  C_26
REMARK                            x       y       z     vdW  Elec       q    Type
REMARK                         _______ _______ _______ _____ _____    ______ ____
ROOT
ATOM      1  C   UNL     1       4.297   4.101  19.185  0.00  0.00    +0.000 C 
ATOM      2  C   UNL     1       2.997   4.531  19.120  0.00  0.00    +0.000 C 
ENDROOT
BRANCH   2   3
ATOM      3  C   UNL     1       1.831   3.603  19.569  0.00  0.00    +0.000 C 
ATOM      4  C   UNL     1       0.844   4.292  20.520  0.00  0.00    +0.000 C 
ATOM      5  C   UNL     1       1.020   2.973  18.429  0.00  0.00    +0.000 C 
ENDBRANCH   2   3
BRANCH   1   6
ATOM      6  C   UNL     1       5.519   4.908  18.867  0.00  0.00    +0.000 C 
ATOM      7  O   UNL     1       6.472   5.023  19.632  0.00  0.00    +0.000 OA
BRANCH   6   8
ATOM      8  O   UNL     1       5.451   5.574  17.689  0.00  0.00    +0.000 OA
BRANCH   8   9
ATOM      9  C   UNL     1       5.622   4.714  16.564  0.00  0.00    +0.000 C 
BRANCH   9  10
ATOM     10  C   UNL     1       7.077   4.464  16.210  0.00  0.00    +0.000 C 
BRANCH  10  11
ATOM     11  O   UNL     1       7.201   4.576  14.788  0.00  0.00    +0.000 OA
BRANCH  11  13
ATOM     12  C   UNL     1       6.480   3.827  12.631  0.00  0.00    +0.000 C 
ATOM     13  C   UNL     1       6.191   3.831  14.118  0.00  0.00    +0.000 C 
ENDBRANCH  11  13
ENDBRANCH  10  11
ENDBRANCH   9  10
ENDBRANCH   8   9
ENDBRANCH   6   8
ENDBRANCH   1   6
BRANCH   1  14
ATOM     14  C   UNL     1       4.632   2.790  19.682  0.00  0.00    +0.000 C 
ATOM     15  N   UNL     1       4.943   1.767  20.107  0.00  0.00    +0.000 NA
ENDBRANCH   1  14
BRANCH   2  16
ATOM     16  N   UNL     1       2.643   5.821  18.692  0.00  0.00    +0.000 N 
ATOM     17  H   UNL     1       2.614   5.936  17.678  0.00  0.00    +0.000 HD
BRANCH  16  18
ATOM     18  C   UNL     1       3.077   7.052  19.357  0.00  0.00    +0.000 C 
BRANCH  18  19
ATOM     19  C   UNL     1       2.009   8.083  19.403  0.00  0.00    +0.000 A 
ATOM     20  C   UNL     1       1.257   8.503  20.478  0.00  0.00    +0.000 A 
ATOM     21  N   UNL     1       0.311   9.462  20.199  0.00  0.00    +0.000 NA
ATOM     22  C   UNL     1       0.387   9.793  18.930  0.00  0.00    +0.000 A 
ATOM     23  S   UNL     1       1.530   8.933  17.995  0.00  0.00    +0.000 S 
BRANCH  22  24
ATOM     24  O   UNL     1      -0.346  10.758  18.381  0.00  0.00    +0.000 OA
BRANCH  24  25
ATOM     25  C   UNL     1      -0.519  11.920  19.195  0.00  0.00    +0.000 C 
ATOM     26  C   UNL     1       0.055  13.138  18.473  0.00  0.00    +0.000 C 
ATOM     27  C   UNL     1      -2.016  12.086  19.403  0.00  0.00    +0.000 C 
ENDBRANCH  24  25
ENDBRANCH  22  24
ENDBRANCH  18  19
ENDBRANCH  16  18
ENDBRANCH   2  16
TORSDOF 13
ENDMDL
MODEL 8
REMARK VINA RESULT:      -6.0      2.000      2.828
REMARK  Name = 
REMARK  18 active torsions:
REMARK  status: ('A' for Active; 'I' for Inactive)
REMARK    1  A    between atoms: C_1  and  C_2
REMARK    2  A    between atoms: C_2  and  O_3
REMARK    3  A    between atoms: O_3  and  C_4
REMARK    4  A    between atoms: C_4  and  C_5
REMARK    5  A    between atoms: C_5  and  O_6
REMARK    6  A    between atoms: O_6  and  C_7
REMARK    7  A    between atoms: C_7  and  C_9
REMARK    8  A    between atoms: C_9  and  C_10
REMARK    9  A    between atoms: C_12  and  N_13
REMARK   10  A    between atoms: C_12  and  C_24
REMARK   11  A    between atoms: N_13  and  C_14
REMARK   12  A    between atoms: C_14  and  C_15
REMARK   13  A    between atoms: C_18  and  O_19
REMARK   14  A    between atoms: O_19  and  C_20
REMARK   15  A    between atoms: C_20  and  C_21
REMARK   16  A    between atoms: C_20  and  C_22
REMARK   17  A    between atoms: C_24  and  C_25
REMARK   18  A    between atoms: C_24  and  C_26
REMARK                            x       y       z     vdW  Elec       q    Type
REMARK                         _______ _______ _______ _____ _____    ______ ____
ROOT
ATOM      1  C   UNL     1       3.710   3.780  19.157  0.00  0.00    +0.000 C 
ATOM      2  C   UNL     1       2.730   4.448  19.844  0.00  0.00    +0.000 C 
ENDROOT
BRANCH   2   3
ATOM      3  C   UNL     1       1.477   3.691  20.374  0.00  0.00    +0.000 C 
ATOM      4  C   UNL     1       0.680   2.994  19.264  0.00  0.00    +0.000 C 
ATOM      5  C   UNL     1       1.753   2.656  21.472  0.00  0.00    +0.000 C 
ENDBRANCH   2   3
BRANCH   1   6
ATOM      6  C   UNL     1       5.001   4.359  18.663  0.00  0.00    +0.000 C 
ATOM      7  O   UNL     1       5.919   4.697  19.406  0.00  0.00    +0.000 OA
BRANCH   6   8
ATOM      8  O   UNL     1       5.043   4.555  17.324  0.00  0.00    +0.000 OA
BRANCH   8   9
ATOM      9  C   UNL     1       5.658   5.793  16.970  0.00  0.00    +0.000 C 
BRANCH   9  10
ATOM     10  C   UNL     1       6.962   5.626  16.212  0.00  0.00    +0.000 C 
BRANCH  10  11
ATOM     11  O   UNL     1       7.729   6.819  16.403  0.00  0.00    +0.000 OA
BRANCH  11  13
ATOM     12  C   UNL     1       8.025   8.751  17.786  0.00  0.00    +0.000 C 
ATOM     13  C   UNL     1       7.634   7.288  17.743  0.00  0.00    +0.000 C 
ENDBRANCH  11  13
ENDBRANCH  10  11
ENDBRANCH   9  10
ENDBRANCH   8   9
ENDBRANCH   6   8
ENDBRANCH   1   6
BRANCH   1  14
ATOM     14  C   UNL     1       3.627   2.362  18.915  0.00  0.00    +0.000 C 
ATOM     15  N   UNL     1       3.524   1.226  18.764  0.00  0.00    +0.000 NA
ENDBRANCH   1  14
BRANCH   2  16
ATOM     16  N   UNL     1       2.808   5.818  20.143  0.00  0.00    +0.000 N 
ATOM     17  H   UNL     1       3.751   6.152  20.349  0.00  0.00    +0.000 HD
BRANCH  16  18
ATOM     18  C   UNL     1       1.802   6.545  20.922  0.00  0.00    +0.000 C 
BRANCH  18  19
ATOM     19  C   UNL     1       1.489   7.879  20.348  0.00  0.00    +0.000 A 
ATOM     20  C   UNL     1       1.815   8.385  19.109  0.00  0.00    +0.000 A 
ATOM     21  N   UNL     1       1.412   9.679  18.874  0.00  0.00    +0.000 NA
ATOM     22  C   UNL     1       0.743  10.122  19.916  0.00  0.00    +0.000 A 
ATOM     23  S   UNL     1       0.628   9.055  21.245  0.00  0.00    +0.000 S 
BRANCH  22  24
ATOM     24  O   UNL     1       0.154  11.314  19.952  0.00  0.00    +0.000 OA
BRANCH  24  25
ATOM     25  C   UNL     1      -0.355  11.773  18.698  0.00  0.00    +0.000 C 
ATOM     26  C   UNL     1      -1.881  11.819  18.753  0.00  0.00    +0.000 C 
ATOM     27  C   UNL     1       0.208  13.169  18.484  0.00  0.00    +0.000 C 
ENDBRANCH  24  25
ENDBRANCH  22  24
ENDBRANCH  18  19
ENDBRANCH  16  18
ENDBRANCH   2  16
TORSDOF 13
ENDMDL
MODEL 9
REMARK VINA RESULT:      -5.9      1.860      2.597
REMARK  Name = 
REMARK  18 active torsions:
REMARK  status: ('A' for Active; 'I' for Inactive)
REMARK    1  A    between atoms: C_1  and  C_2
REMARK    2  A    between atoms: C_2  and  O_3
REMARK    3  A    between atoms: O_3  and  C_4
REMARK    4  A    between atoms: C_4  and  C_5
REMARK    5  A    between atoms: C_5  and  O_6
REMARK    6  A    between atoms: O_6  and  C_7
REMARK    7  A    between atoms: C_7  and  C_9
REMARK    8  A    between atoms: C_9  and  C_10
REMARK    9  A    between atoms: C_12  and  N_13
REMARK   10  A    between atoms: C_12  and  C_24
REMARK   11  A    between atoms: N_13  and  C_14
REMARK   12  A    between atoms: C_14  and  C_15
REMARK   13  A    between atoms: C_18  and  O_19
REMARK   14  A    between atoms: O_19  and  C_20
REMARK   15  A    between atoms: C_20  and  C_21
REMARK   16  A    between atoms: C_20  and  C_22
REMARK   17  A    between atoms: C_24  and  C_25
REMARK   18  A    between atoms: C_24  and  C_26
REMARK                            x       y       z     vdW  Elec       q    Type
REMARK                         _______ _______ _______ _____ _____    ______ ____
ROOT
ATOM      1  C   UNL     1       3.794   3.896  19.238  0.00  0.00    +0.000 C 
ATOM      2  C   UNL     1       2.799   4.573  19.893  0.00  0.00    +0.000 C 
ENDROOT
BRANCH   2   3
ATOM      3  C   UNL     1       1.541   3.819  20.417  0.00  0.00    +0.000 C 
ATOM      4  C   UNL     1       0.770   3.091  19.308  0.00  0.00    +0.000 C 
ATOM      5  C   UNL     1       1.803   2.812  21.543  0.00  0.00    +0.000 C 
ENDBRANCH   2   3
BRANCH   1   6
ATOM      6  C   UNL     1       5.091   4.472  18.754  0.00  0.00    +0.000 C 
ATOM      7  O   UNL     1       6.156   4.334  19.350  0.00  0.00    +0.000 OA
BRANCH   6   8
ATOM      8  O   UNL     1       4.978   5.231  17.638  0.00  0.00    +0.000 OA
BRANCH   8   9
ATOM      9  C   UNL     1       5.689   4.684  16.529  0.00  0.00    +0.000 C 
BRANCH   9  10
ATOM     10  C   UNL     1       6.886   5.516  16.109  0.00  0.00    +0.000 C 
BRANCH  10  11
ATOM     11  O   UNL     1       6.707   6.833  16.641  0.00  0.00    +0.000 OA
BRANCH  11  13
ATOM     12  C   UNL     1       7.873   8.621  17.725  0.00  0.00    +0.000 C 
ATOM     13  C   UNL     1       7.670   7.122  17.648  0.00  0.00    +0.000 C 
ENDBRANCH  11  13
ENDBRANCH  10  11
ENDBRANCH   9  10
ENDBRANCH   8   9
ENDBRANCH   6   8
ENDBRANCH   1   6
BRANCH   1  14
ATOM     14  C   UNL     1       3.723   2.473  19.023  0.00  0.00    +0.000 C 
ATOM     15  N   UNL     1       3.615   1.338  18.875  0.00  0.00    +0.000 NA
ENDBRANCH   1  14
BRANCH   2  16
ATOM     16  N   UNL     1       2.864   5.949  20.165  0.00  0.00    +0.000 N 
ATOM     17  H   UNL     1       2.545   6.210  21.099  0.00  0.00    +0.000 HD
BRANCH  16  18
ATOM     18  C   UNL     1       2.556   6.992  19.184  0.00  0.00    +0.000 C 
BRANCH  18  19
ATOM     19  C   UNL     1       1.769   8.109  19.766  0.00  0.00    +0.000 A 
ATOM     20  C   UNL     1       1.342   8.282  21.065  0.00  0.00    +0.000 A 
ATOM     21  N   UNL     1       0.595   9.413  21.295  0.00  0.00    +0.000 NA
ATOM     22  C   UNL     1       0.503  10.110  20.184  0.00  0.00    +0.000 A 
ATOM     23  S   UNL     1       1.233   9.419  18.802  0.00  0.00    +0.000 S 
BRANCH  22  24
ATOM     24  O   UNL     1      -0.090  11.298  20.114  0.00  0.00    +0.000 OA
BRANCH  24  25
ATOM     25  C   UNL     1      -0.297  11.944  21.371  0.00  0.00    +0.000 C 
ATOM     26  C   UNL     1       0.489  13.254  21.407  0.00  0.00    +0.000 C 
ATOM     27  C   UNL     1      -1.788  12.219  21.479  0.00  0.00    +0.000 C 
ENDBRANCH  24  25
ENDBRANCH  22  24
ENDBRANCH  18  19
ENDBRANCH  16  18
ENDBRANCH   2  16
TORSDOF 13
ENDMDL
