MODEL 1
REMARK VINA RESULT:      -6.6      0.000      0.000
REMARK  Name = 
REMARK  6 active torsions:
REMARK  status: ('A' for Active; 'I' for Inactive)
REMARK    1  A    between atoms: C_1  and  C_2
REMARK    2  A    between atoms: C_2  and  C_3
REMARK    3  A    between atoms: C_2  and  C_4
REMARK    4  A    between atoms: C_2  and  N_5
REMARK    5  A    between atoms: C_7  and  C_8
REMARK    6  A    between atoms: C_11  and  N_12
REMARK                            x       y       z     vdW  Elec       q    Type
REMARK                         _______ _______ _______ _____ _____    ______ ____
ROOT
ATOM      1  C   UNL     1       5.262   4.893  18.498  0.00  0.00    +0.000 A 
ATOM      2  C   UNL     1       6.521   5.255  18.948  0.00  0.00    +0.000 A 
ATOM      3  C   UNL     1       7.394   5.212  17.836  0.00  0.00    +0.000 A 
ATOM      4  C   UNL     1       6.613   4.815  16.781  0.00  0.00    +0.000 A 
ATOM      5  O   UNL     1       5.320   4.607  17.158  0.00  0.00    +0.000 OA
ENDROOT
BRANCH   1   8
ATOM      6  N   UNL     1       3.452   3.705  19.692  0.00  0.00    +0.000 N 
ATOM      7  O   UNL     1       4.106   2.606  19.649  0.00  0.00    +0.000 OA
ATOM      8  C   UNL     1       3.988   4.788  19.158  0.00  0.00    +0.000 C 
BRANCH   6  10
ATOM      9  C   UNL     1       1.089   3.032  19.404  0.00  0.00    +0.000 C 
ATOM     10  C   UNL     1       2.096   3.691  20.361  0.00  0.00    +0.000 C 
ATOM     11  C   UNL     1       1.683   5.138  20.628  0.00  0.00    +0.000 C 
ATOM     12  C   UNL     1       2.198   2.864  21.644  0.00  0.00    +0.000 C 
ENDBRANCH   6  10
ENDBRANCH   1   8
BRANCH   4  13
ATOM     13  N   UNL     1       6.931   4.612  15.405  0.00  0.00    +0.000 N 
ATOM     14  O   UNL     1       6.339   3.685  14.834  0.00  0.00    +0.000 OA
ATOM     15  O   UNL     1       7.762   5.364  14.885  0.00  0.00    +0.000 OA
ENDBRANCH   4  13
TORSDOF 3
ENDMDL
MODEL 2
REMARK VINA RESULT:      -6.6      0.183      1.400
REMARK  Name = 
REMARK  6 active torsions:
REMARK  status: ('A' for Active; 'I' for Inactive)
REMARK    1  A    between atoms: C_1  and  C_2
REMARK    2  A    between atoms: C_2  and  C_3
REMARK    3  A    between atoms: C_2  and  C_4
REMARK    4  A    between atoms: C_2  and  N_5
REMARK    5  A    between atoms: C_7  and  C_8
REMARK    6  A    between atoms: C_11  and  N_12
REMARK                            x       y       z     vdW  Elec       q    Type
REMARK                         _______ _______ _______ _____ _____    ______ ____
ROOT
ATOM      1  C   UNL     1       5.148   4.746  18.424  0.00  0.00    +0.000 A 
ATOM      2  C   UNL     1       6.399   5.087  18.911  0.00  0.00    +0.000 A 
ATOM      3  C   UNL     1       7.293   5.084  17.816  0.00  0.00    +0.000 A 
ATOM      4  C   UNL     1       6.532   4.728  16.731  0.00  0.00    +0.000 A 
ATOM      5  O   UNL     1       5.231   4.509  17.076  0.00  0.00    +0.000 OA
ENDROOT
BRANCH   1   8
ATOM      6  N   UNL     1       3.363   3.546  19.645  0.00  0.00    +0.000 N 
ATOM      7  O   UNL     1       4.070   2.481  19.691  0.00  0.00    +0.000 OA
ATOM      8  C   UNL     1       3.862   4.619  19.056  0.00  0.00    +0.000 C 
BRANCH   6  10
ATOM      9  C   UNL     1       2.082   2.714  21.591  0.00  0.00    +0.000 C 
ATOM     10  C   UNL     1       1.990   3.507  20.276  0.00  0.00    +0.000 C 
ATOM     11  C   UNL     1       1.043   2.794  19.311  0.00  0.00    +0.000 C 
ATOM     12  C   UNL     1       1.553   4.942  20.574  0.00  0.00    +0.000 C 
ENDBRANCH   6  10
ENDBRANCH   1   8
BRANCH   4  13
ATOM     13  N   UNL     1       6.875   4.576  15.355  0.00  0.00    +0.000 N 
ATOM     14  O   UNL     1       7.728   5.357  14.910  0.00  0.00    +0.000 OA
ATOM     15  O   UNL     1       6.306   3.688  14.710  0.00  0.00    +0.000 OA
ENDBRANCH   4  13
TORSDOF 3
ENDMDL
MODEL 3
REMARK VINA RESULT:      -6.6      0.266      1.414
REMARK  Name = 
REMARK  6 active torsions:
REMARK  status: ('A' for Active; 'I' for Inactive)
REMARK    1  A    between atoms: C_1  and  C_2
REMARK    2  A    between atoms: C_2  and  C_3
REMARK    3  A    between atoms: C_2  and  C_4
REMARK    4  A    between atoms: C_2  and  N_5
REMARK    5  A    between atoms: C_7  and  C_8
REMARK    6  A    between atoms: C_11  and  N_12
REMARK                            x       y       z     vdW  Elec       q    Type
REMARK                         _______ _______ _______ _____ _____    ______ ____
ROOT
ATOM      1  C   UNL     1       5.176   4.696  18.233  0.00  0.00    +0.000 A 
ATOM      2  C   UNL     1       6.442   4.978  18.719  0.00  0.00    +0.000 A 
ATOM      3  C   UNL     1       7.327   4.980  17.616  0.00  0.00    +0.000 A 
ATOM      4  C   UNL     1       6.544   4.688  16.528  0.00  0.00    +0.000 A 
ATOM      5  O   UNL     1       5.240   4.501  16.877  0.00  0.00    +0.000 OA
ENDROOT
BRANCH   1   8
ATOM      6  N   UNL     1       3.452   3.600  19.626  0.00  0.00    +0.000 N 
ATOM      7  O   UNL     1       4.222   2.602  19.847  0.00  0.00    +0.000 OA
ATOM      8  C   UNL     1       3.892   4.592  18.872  0.00  0.00    +0.000 C 
BRANCH   6  10
ATOM      9  C   UNL     1       1.660   5.023  20.567  0.00  0.00    +0.000 C 
ATOM     10  C   UNL     1       2.075   3.576  20.251  0.00  0.00    +0.000 C 
ATOM     11  C   UNL     1       2.155   2.768  21.546  0.00  0.00    +0.000 C 
ATOM     12  C   UNL     1       1.097   2.972  19.242  0.00  0.00    +0.000 C 
ENDBRANCH   6  10
ENDBRANCH   1   8
BRANCH   4  13
ATOM     13  N   UNL     1       6.871   4.569  15.144  0.00  0.00    +0.000 N 
ATOM     14  O   UNL     1       7.680   5.393  14.696  0.00  0.00    +0.000 OA
ATOM     15  O   UNL     1       6.331   3.666  14.496  0.00  0.00    +0.000 OA
ENDBRANCH   4  13
TORSDOF 3
ENDMDL
MODEL 4
REMARK VINA RESULT:      -6.4      1.648      2.056
REMARK  Name = 
REMARK  6 active torsions:
REMARK  status: ('A' for Active; 'I' for Inactive)
REMARK    1  A    between atoms: C_1  and  C_2
REMARK    2  A    between atoms: C_2  and  C_3
REMARK    3  A    between atoms: C_2  and  C_4
REMARK    4  A    between atoms: C_2  and  N_5
REMARK    5  A    between atoms: C_7  and  C_8
REMARK    6  A    between atoms: C_11  and  N_12
REMARK                            x       y       z     vdW  Elec       q    Type
REMARK                         _______ _______ _______ _____ _____    ______ ____
ROOT
ATOM      1  C   UNL     1       4.319   5.191  17.444  0.00  0.00    +0.000 A 
ATOM      2  C   UNL     1       4.342   6.511  17.027  0.00  0.00    +0.000 A 
ATOM      3  C   UNL     1       5.227   6.592  15.928  0.00  0.00    +0.000 A 
ATOM      4  C   UNL     1       5.698   5.316  15.751  0.00  0.00    +0.000 A 
ATOM      5  O   UNL     1       5.170   4.451  16.663  0.00  0.00    +0.000 OA
ENDROOT
BRANCH   1   8
ATOM      6  N   UNL     1       2.427   3.897  18.370  0.00  0.00    +0.000 N 
ATOM      7  O   UNL     1       1.850   3.867  17.228  0.00  0.00    +0.000 OA
ATOM      8  C   UNL     1       3.591   4.513  18.482  0.00  0.00    +0.000 C 
BRANCH   6  10
ATOM      9  C   UNL     1       1.024   4.289  20.370  0.00  0.00    +0.000 C 
ATOM     10  C   UNL     1       1.732   3.215  19.527  0.00  0.00    +0.000 C 
ATOM     11  C   UNL     1       2.793   2.514  20.374  0.00  0.00    +0.000 C 
ATOM     12  C   UNL     1       0.695   2.242  18.963  0.00  0.00    +0.000 C 
ENDBRANCH   6  10
ENDBRANCH   1   8
BRANCH   4  13
ATOM     13  N   UNL     1       6.604   4.776  14.790  0.00  0.00    +0.000 N 
ATOM     14  O   UNL     1       6.247   3.735  14.221  0.00  0.00    +0.000 OA
ATOM     15  O   UNL     1       7.667   5.376  14.595  0.00  0.00    +0.000 OA
ENDBRANCH   4  13
TORSDOF 3
ENDMDL
MODEL 5
REMARK VINA RESULT:      -6.4      1.001      1.283
REMARK  Name = 
REMARK  6 active torsions:
REMARK  status: ('A' for Active; 'I' for Inactive)
REMARK    1  A    between atoms: C_1  and  C_2
REMARK    2  A    between atoms: C_2  and  C_3
REMARK    3  A    between atoms: C_2  and  C_4
REMARK    4  A    between atoms: C_2  and  N_5
REMARK    5  A    between atoms: C_7  and  C_8
REMARK    6  A    between atoms: C_11  and  N_12
REMARK                            x       y       z     vdW  Elec       q    Type
REMARK                         _______ _______ _______ _____ _____    ______ ____
ROOT
ATOM      1  C   UNL     1       5.493   4.314  18.381  0.00  0.00    +0.000 A 
ATOM      2  C   UNL     1       6.481   5.214  18.744  0.00  0.00    +0.000 A 
ATOM      3  C   UNL     1       7.232   5.507  17.582  0.00  0.00    +0.000 A 
ATOM      4  C   UNL     1       6.661   4.757  16.586  0.00  0.00    +0.000 A 
ATOM      5  O   UNL     1       5.612   4.019  17.047  0.00  0.00    +0.000 OA
ENDROOT
BRANCH   1   8
ATOM      6  N   UNL     1       3.164   4.072  19.176  0.00  0.00    +0.000 N 
ATOM      7  O   UNL     1       2.798   5.100  18.507  0.00  0.00    +0.000 OA
ATOM      8  C   UNL     1       4.428   3.691  19.120  0.00  0.00    +0.000 C 
BRANCH   6  10
ATOM      9  C   UNL     1       1.451   2.288  19.103  0.00  0.00    +0.000 C 
ATOM     10  C   UNL     1       2.114   3.354  19.992  0.00  0.00    +0.000 C 
ATOM     11  C   UNL     1       1.069   4.380  20.431  0.00  0.00    +0.000 C 
ATOM     12  C   UNL     1       2.802   2.676  21.177  0.00  0.00    +0.000 C 
ENDBRANCH   6  10
ENDBRANCH   1   8
BRANCH   4  13
ATOM     13  N   UNL     1       6.973   4.649  15.198  0.00  0.00    +0.000 N 
ATOM     14  O   UNL     1       7.779   5.476  14.749  0.00  0.00    +0.000 OA
ATOM     15  O   UNL     1       6.427   3.750  14.549  0.00  0.00    +0.000 OA
ENDBRANCH   4  13
TORSDOF 3
ENDMDL
MODEL 6
REMARK VINA RESULT:      -6.4      1.665      1.786
REMARK  Name = 
REMARK  6 active torsions:
REMARK  status: ('A' for Active; 'I' for Inactive)
REMARK    1  A    between atoms: C_1  and  C_2
REMARK    2  A    between atoms: C_2  and  C_3
REMARK    3  A    between atoms: C_2  and  C_4
REMARK    4  A    between atoms: C_2  and  N_5
REMARK    5  A    between atoms: C_7  and  C_8
REMARK    6  A    between atoms: C_11  and  N_12
REMARK                            x       y       z     vdW  Elec       q    Type
REMARK                         _______ _______ _______ _____ _____    ______ ____
ROOT
ATOM      1  C   UNL     1       4.328   5.162  17.437  0.00  0.00    +0.000 A 
ATOM      2  C   UNL     1       4.346   6.486  17.033  0.00  0.00    +0.000 A 
ATOM      3  C   UNL     1       5.226   6.580  15.931  0.00  0.00    +0.000 A 
ATOM      4  C   UNL     1       5.699   5.306  15.740  0.00  0.00    +0.000 A 
ATOM      5  O   UNL     1       5.177   4.431  16.646  0.00  0.00    +0.000 OA
ENDROOT
BRANCH   1   8
ATOM      6  N   UNL     1       2.401   3.936  18.384  0.00  0.00    +0.000 N 
ATOM      7  O   UNL     1       1.772   4.006  17.272  0.00  0.00    +0.000 OA
ATOM      8  C   UNL     1       3.606   4.471  18.472  0.00  0.00    +0.000 C 
BRANCH   6  10
ATOM      9  C   UNL     1       0.695   2.238  18.960  0.00  0.00    +0.000 C 
ATOM     10  C   UNL     1       1.716   3.234  19.535  0.00  0.00    +0.000 C 
ATOM     11  C   UNL     1       0.992   4.288  20.371  0.00  0.00    +0.000 C 
ATOM     12  C   UNL     1       2.775   2.476  20.337  0.00  0.00    +0.000 C 
ENDBRANCH   6  10
ENDBRANCH   1   8
BRANCH   4  13
ATOM     13  N   UNL     1       6.603   4.778  14.770  0.00  0.00    +0.000 N 
ATOM     14  O   UNL     1       6.256   3.729  14.208  0.00  0.00    +0.000 OA
ATOM     15  O   UNL     1       7.653   5.394  14.560  0.00  0.00    +0.000 OA
ENDBRANCH   4  13
TORSDOF 3
ENDMDL
MODEL 7
REMARK VINA RESULT:      -6.4      0.990      1.497
REMARK  Name = 
REMARK  6 active torsions:
REMARK  status: ('A' for Active; 'I' for Inactive)
REMARK    1  A    between atoms: C_1  and  C_2
REMARK    2  A    between atoms: C_2  and  C_3
REMARK    3  A    between atoms: C_2  and  C_4
REMARK    4  A    between atoms: C_2  and  N_5
REMARK    5  A    between atoms: C_7  and  C_8
REMARK    6  A    between atoms: C_11  and  N_12
REMARK                            x       y       z     vdW  Elec       q    Type
REMARK                         _______ _______ _______ _____ _____    ______ ____
ROOT
ATOM      1  C   UNL     1       5.517   4.474  18.409  0.00  0.00    +0.000 A 
ATOM      2  C   UNL     1       6.490   5.397  18.752  0.00  0.00    +0.000 A 
ATOM      3  C   UNL     1       7.252   5.658  17.590  0.00  0.00    +0.000 A 
ATOM      4  C   UNL     1       6.702   4.867  16.614  0.00  0.00    +0.000 A 
ATOM      5  O   UNL     1       5.655   4.133  17.088  0.00  0.00    +0.000 OA
ENDROOT
BRANCH   1   8
ATOM      6  N   UNL     1       3.162   4.151  19.090  0.00  0.00    +0.000 N 
ATOM      7  O   UNL     1       2.772   5.059  18.277  0.00  0.00    +0.000 OA
ATOM      8  C   UNL     1       4.450   3.864  19.157  0.00  0.00    +0.000 C 
BRANCH   6  10
ATOM      9  C   UNL     1       2.814   2.722  21.080  0.00  0.00    +0.000 C 
ATOM     10  C   UNL     1       2.111   3.458  19.927  0.00  0.00    +0.000 C 
ATOM     11  C   UNL     1       1.385   2.448  19.039  0.00  0.00    +0.000 C 
ATOM     12  C   UNL     1       1.169   4.520  20.497  0.00  0.00    +0.000 C 
ENDBRANCH   6  10
ENDBRANCH   1   8
BRANCH   4  13
ATOM     13  N   UNL     1       7.033   4.713  15.234  0.00  0.00    +0.000 N 
ATOM     14  O   UNL     1       6.469   3.789  14.632  0.00  0.00    +0.000 OA
ATOM     15  O   UNL     1       7.847   5.503  14.743  0.00  0.00    +0.000 OA
ENDBRANCH   4  13
TORSDOF 3
ENDMDL
MODEL 8
REMARK VINA RESULT:      -6.4      1.392      1.906
REMARK  Name = 
REMARK  6 active torsions:
REMARK  status: ('A' for Active; 'I' for Inactive)
REMARK    1  A    between atoms: C_1  and  C_2
REMARK    2  A    between atoms: C_2  and  C_3
REMARK    3  A    between atoms: C_2  and  C_4
REMARK    4  A    between atoms: C_2  and  N_5
REMARK    5  A    between atoms: C_7  and  C_8
REMARK    6  A    between atoms: C_11  and  N_12
REMARK                            x       y       z     vdW  Elec       q    Type
REMARK                         _______ _______ _______ _____ _____    ______ ____
ROOT
ATOM      1  C   UNL     1       3.980   5.225  17.384  0.00  0.00    +0.000 A 
ATOM      2  C   UNL     1       4.331   6.556  17.238  0.00  0.00    +0.000 A 
ATOM      3  C   UNL     1       5.373   6.617  16.284  0.00  0.00    +0.000 A 
ATOM      4  C   UNL     1       5.599   5.314  15.917  0.00  0.00    +0.000 A 
ATOM      5  O   UNL     1       4.775   4.452  16.576  0.00  0.00    +0.000 OA
ENDROOT
BRANCH   1   8
ATOM      6  N   UNL     1       3.175   3.819  19.252  0.00  0.00    +0.000 N 
ATOM      7  O   UNL     1       4.370   3.641  19.672  0.00  0.00    +0.000 OA
ATOM      8  C   UNL     1       2.979   4.565  18.179  0.00  0.00    +0.000 C 
BRANCH   6  10
ATOM      9  C   UNL     1       0.950   4.198  20.265  0.00  0.00    +0.000 C 
ATOM     10  C   UNL     1       2.054   3.156  20.020  0.00  0.00    +0.000 C 
ATOM     11  C   UNL     1       2.614   2.676  21.359  0.00  0.00    +0.000 C 
ATOM     12  C   UNL     1       1.498   2.011  19.173  0.00  0.00    +0.000 C 
ENDBRANCH   6  10
ENDBRANCH   1   8
BRANCH   4  13
ATOM     13  N   UNL     1       6.515   4.751  14.979  0.00  0.00    +0.000 N 
ATOM     14  O   UNL     1       7.577   5.366  14.809  0.00  0.00    +0.000 OA
ATOM     15  O   UNL     1       6.191   3.703  14.410  0.00  0.00    +0.000 OA
ENDBRANCH   4  13
TORSDOF 3
ENDMDL
MODEL 9
REMARK VINA RESULT:      -6.3      1.404      1.855
REMARK  Name = 
REMARK  6 active torsions:
REMARK  status: ('A' for Active; 'I' for Inactive)
REMARK    1  A    between atoms: C_1  and  C_2
REMARK    2  A    between atoms: C_2  and  C_3
REMARK    3  A    between atoms: C_2  and  C_4
REMARK    4  A    between atoms: C_2  and  N_5
REMARK    5  A    between atoms: C_7  and  C_8
REMARK    6  A    between atoms: C_11  and  N_12
REMARK                            x       y       z     vdW  Elec       q    Type
REMARK                         _______ _______ _______ _____ _____    ______ ____
ROOT
ATOM      1  C   UNL     1       3.996   5.229  17.338  0.00  0.00    +0.000 A 
ATOM      2  C   UNL     1       4.358   6.558  17.206  0.00  0.00    +0.000 A 
ATOM      3  C   UNL     1       5.402   6.620  16.254  0.00  0.00    +0.000 A 
ATOM      4  C   UNL     1       5.618   5.319  15.875  0.00  0.00    +0.000 A 
ATOM      5  O   UNL     1       4.785   4.457  16.524  0.00  0.00    +0.000 OA
ENDROOT
BRANCH   1   8
ATOM      6  N   UNL     1       3.168   3.886  19.242  0.00  0.00    +0.000 N 
ATOM      7  O   UNL     1       4.351   3.777  19.718  0.00  0.00    +0.000 OA
ATOM      8  C   UNL     1       2.989   4.570  18.126  0.00  0.00    +0.000 C 
BRANCH   6  10
ATOM      9  C   UNL     1       2.605   2.656  21.315  0.00  0.00    +0.000 C 
ATOM     10  C   UNL     1       2.042   3.218  19.999  0.00  0.00    +0.000 C 
ATOM     11  C   UNL     1       1.504   2.074  19.139  0.00  0.00    +0.000 C 
ATOM     12  C   UNL     1       0.976   4.270  20.307  0.00  0.00    +0.000 C 
ENDBRANCH   6  10
ENDBRANCH   1   8
BRANCH   4  13
ATOM     13  N   UNL     1       6.531   4.757  14.932  0.00  0.00    +0.000 N 
ATOM     14  O   UNL     1       6.175   3.708  14.379  0.00  0.00    +0.000 OA
ATOM     15  O   UNL     1       7.598   5.349  14.736  0.00  0.00    +0.000 OA
ENDBRANCH   4  13
TORSDOF 3
ENDMDL
