MODEL 1
REMARK VINA RESULT:      -7.5      0.000      0.000
REMARK  Name = 
REMARK  5 active torsions:
REMARK  status: ('A' for Active; 'I' for Inactive)
REMARK    1  A    between atoms: C_1  and  N_2
REMARK    2  A    between atoms: N_2  and  C_3
REMARK    3  A    between atoms: N_2  and  S_10
REMARK    4  A    between atoms: S_10  and  C_13
REMARK    5  A    between atoms: C_16  and  N_17
REMARK                            x       y       z     vdW  Elec       q    Type
REMARK                         _______ _______ _______ _____ _____    ______ ____
ROOT
ATOM      1  S   UNL     1       4.319   5.817  18.044  0.00  0.00    +0.000 S 
ATOM      2  O   UNL     1       5.315   5.809  19.089  0.00  0.00    +0.000 OA
ATOM      3  O   UNL     1       4.694   6.049  16.667  0.00  0.00    +0.000 OA
ENDROOT
BRANCH   1   4
ATOM      4  C   UNL     1       3.097   7.022  18.514  0.00  0.00    +0.000 A 
ATOM      5  C   UNL     1       2.780   8.054  17.633  0.00  0.00    +0.000 A 
ATOM      6  C   UNL     1       1.863   9.040  18.027  0.00  0.00    +0.000 A 
ATOM      7  C   UNL     1       1.288   9.027  19.306  0.00  0.00    +0.000 A 
ATOM      8  C   UNL     1       1.568   7.932  20.141  0.00  0.00    +0.000 A 
ATOM      9  C   UNL     1       2.459   6.926  19.747  0.00  0.00    +0.000 A 
BRANCH   7  10
ATOM     10  N   UNL     1       0.501  10.114  19.781  0.00  0.00    +0.000 N 
ATOM     11  C   UNL     1      -0.669  10.565  19.062  0.00  0.00    +0.000 C 
ATOM     12  C   UNL     1      -1.137  11.787  19.822  0.00  0.00    +0.000 C 
ATOM     13  C   UNL     1      -0.715  11.501  21.249  0.00  0.00    +0.000 C 
ATOM     14  C   UNL     1       0.506  10.626  21.088  0.00  0.00    +0.000 C 
ATOM     15  O   UNL     1       1.295  10.414  21.996  0.00  0.00    +0.000 OA
ENDBRANCH   7  10
ENDBRANCH   1   4
BRANCH   1  17
ATOM     16  C   UNL     1       3.527   3.633  16.728  0.00  0.00    +0.000 C 
ATOM     17  N   UNL     1       3.399   4.304  18.067  0.00  0.00    +0.000 NA
BRANCH  17  18
ATOM     18  C   UNL     1       3.754   3.381  19.223  0.00  0.00    +0.000 C 
ATOM     19  C   UNL     1       3.200   1.943  19.068  0.00  0.00    +0.000 C 
ATOM     20  C   UNL     1       1.713   1.977  19.391  0.00  0.00    +0.000 C 
ATOM     21  S   UNL     1       1.576   3.112  20.750  0.00  0.00    +0.000 S 
ATOM     22  O   UNL     1       1.558   2.349  21.980  0.00  0.00    +0.000 OA
ATOM     23  O   UNL     1       0.557   4.089  20.432  0.00  0.00    +0.000 OA
ATOM     24  C   UNL     1       3.186   3.848  20.573  0.00  0.00    +0.000 C 
ENDBRANCH  17  18
ENDBRANCH   1  17
TORSDOF 4
ENDMDL
MODEL 2
REMARK VINA RESULT:      -7.5      2.524      4.367
REMARK  Name = 
REMARK  5 active torsions:
REMARK  status: ('A' for Active; 'I' for Inactive)
REMARK    1  A    between atoms: C_1  and  N_2
REMARK    2  A    between atoms: N_2  and  C_3
REMARK    3  A    between atoms: N_2  and  S_10
REMARK    4  A    between atoms: S_10  and  C_13
REMARK    5  A    between atoms: C_16  and  N_17
REMARK                            x       y       z     vdW  Elec       q    Type
REMARK                         _______ _______ _______ _____ _____    ______ ____
ROOT
ATOM      1  S   UNL     1       2.844   5.576  18.951  0.00  0.00    +0.000 S 
ATOM      2  O   UNL     1       1.987   4.879  18.021  0.00  0.00    +0.000 OA
ATOM      3  O   UNL     1       3.009   5.096  20.305  0.00  0.00    +0.000 OA
ENDROOT
BRANCH   1   4
ATOM      4  C   UNL     1       2.270   7.259  19.008  0.00  0.00    +0.000 A 
ATOM      5  C   UNL     1       1.727   7.758  20.191  0.00  0.00    +0.000 A 
ATOM      6  C   UNL     1       1.218   9.064  20.220  0.00  0.00    +0.000 A 
ATOM      7  C   UNL     1       1.211   9.866  19.070  0.00  0.00    +0.000 A 
ATOM      8  C   UNL     1       1.835   9.364  17.915  0.00  0.00    +0.000 A 
ATOM      9  C   UNL     1       2.374   8.072  17.883  0.00  0.00    +0.000 A 
BRANCH   7  10
ATOM     10  N   UNL     1       0.537  11.119  19.038  0.00  0.00    +0.000 N 
ATOM     11  C   UNL     1       1.251  12.361  19.230  0.00  0.00    +0.000 C 
ATOM     12  C   UNL     1       0.174  13.424  19.242  0.00  0.00    +0.000 C 
ATOM     13  C   UNL     1      -0.898  12.852  18.336  0.00  0.00    +0.000 C 
ATOM     14  C   UNL     1      -0.733  11.359  18.490  0.00  0.00    +0.000 C 
ATOM     15  O   UNL     1      -1.585  10.557  18.139  0.00  0.00    +0.000 OA
ENDBRANCH   7  10
ENDBRANCH   1   4
BRANCH   1  17
ATOM     16  C   UNL     1       5.470   5.202  19.257  0.00  0.00    +0.000 C 
ATOM     17  N   UNL     1       4.471   5.744  18.273  0.00  0.00    +0.000 NA
BRANCH  17  18
ATOM     18  C   UNL     1       4.628   5.143  16.884  0.00  0.00    +0.000 C 
ATOM     19  C   UNL     1       5.553   3.901  16.841  0.00  0.00    +0.000 C 
ATOM     20  C   UNL     1       6.993   4.387  16.928  0.00  0.00    +0.000 C 
ATOM     21  S   UNL     1       7.025   5.867  15.948  0.00  0.00    +0.000 S 
ATOM     22  O   UNL     1       7.495   5.525  14.621  0.00  0.00    +0.000 OA
ATOM     23  O   UNL     1       7.626   6.925  16.731  0.00  0.00    +0.000 OA
ATOM     24  C   UNL     1       5.263   6.107  15.870  0.00  0.00    +0.000 C 
ENDBRANCH  17  18
ENDBRANCH   1  17
TORSDOF 4
ENDMDL
MODEL 3
REMARK VINA RESULT:      -7.5      2.303      4.174
REMARK  Name = 
REMARK  5 active torsions:
REMARK  status: ('A' for Active; 'I' for Inactive)
REMARK    1  A    between atoms: C_1  and  N_2
REMARK    2  A    between atoms: N_2  and  C_3
REMARK    3  A    between atoms: N_2  and  S_10
REMARK    4  A    between atoms: S_10  and  C_13
REMARK    5  A    between atoms: C_16  and  N_17
REMARK                            x       y       z     vdW  Elec       q    Type
REMARK                         _______ _______ _______ _____ _____    ______ ____
ROOT
ATOM      1  S   UNL     1       2.873   5.513  18.941  0.00  0.00    +0.000 S 
ATOM      2  O   UNL     1       2.008   4.845  17.998  0.00  0.00    +0.000 OA
ATOM      3  O   UNL     1       3.070   4.978  20.270  0.00  0.00    +0.000 OA
ENDROOT
BRANCH   1   4
ATOM      4  C   UNL     1       2.278   7.184  19.081  0.00  0.00    +0.000 A 
ATOM      5  C   UNL     1       1.727   7.616  20.287  0.00  0.00    +0.000 A 
ATOM      6  C   UNL     1       1.202   8.913  20.379  0.00  0.00    +0.000 A 
ATOM      7  C   UNL     1       1.186   9.771  19.270  0.00  0.00    +0.000 A 
ATOM      8  C   UNL     1       1.818   9.335  18.093  0.00  0.00    +0.000 A 
ATOM      9  C   UNL     1       2.373   8.053  17.998  0.00  0.00    +0.000 A 
BRANCH   7  10
ATOM     10  N   UNL     1       0.497  11.016  19.299  0.00  0.00    +0.000 N 
ATOM     11  C   UNL     1      -0.719  11.220  18.544  0.00  0.00    +0.000 C 
ATOM     12  C   UNL     1      -1.057  12.680  18.751  0.00  0.00    +0.000 C 
ATOM     13  C   UNL     1      -0.507  12.980  20.131  0.00  0.00    +0.000 C 
ATOM     14  C   UNL     1       0.653  12.023  20.265  0.00  0.00    +0.000 C 
ATOM     15  O   UNL     1       1.519  12.145  21.118  0.00  0.00    +0.000 OA
ENDBRANCH   7  10
ENDBRANCH   1   4
BRANCH   1  17
ATOM     16  C   UNL     1       5.512   5.205  19.205  0.00  0.00    +0.000 C 
ATOM     17  N   UNL     1       4.485   5.732  18.243  0.00  0.00    +0.000 NA
BRANCH  17  18
ATOM     18  C   UNL     1       4.637   5.154  16.844  0.00  0.00    +0.000 C 
ATOM     19  C   UNL     1       5.552   3.905  16.779  0.00  0.00    +0.000 C 
ATOM     20  C   UNL     1       6.995   4.378  16.874  0.00  0.00    +0.000 C 
ATOM     21  S   UNL     1       7.039   5.874  15.919  0.00  0.00    +0.000 S 
ATOM     22  O   UNL     1       7.507   5.551  14.587  0.00  0.00    +0.000 OA
ATOM     23  O   UNL     1       7.649   6.914  16.720  0.00  0.00    +0.000 OA
ATOM     24  C   UNL     1       5.280   6.130  15.846  0.00  0.00    +0.000 C 
ENDBRANCH  17  18
ENDBRANCH   1  17
TORSDOF 4
ENDMDL
MODEL 4
REMARK VINA RESULT:      -7.5      1.115      1.689
REMARK  Name = 
REMARK  5 active torsions:
REMARK  status: ('A' for Active; 'I' for Inactive)
REMARK    1  A    between atoms: C_1  and  N_2
REMARK    2  A    between atoms: N_2  and  C_3
REMARK    3  A    between atoms: N_2  and  S_10
REMARK    4  A    between atoms: S_10  and  C_13
REMARK    5  A    between atoms: C_16  and  N_17
REMARK                            x       y       z     vdW  Elec       q    Type
REMARK                         _______ _______ _______ _____ _____    ______ ____
ROOT
ATOM      1  S   UNL     1       4.320   5.719  17.911  0.00  0.00    +0.000 S 
ATOM      2  O   UNL     1       5.358   5.661  18.913  0.00  0.00    +0.000 OA
ATOM      3  O   UNL     1       4.651   5.875  16.512  0.00  0.00    +0.000 OA
ENDROOT
BRANCH   1   4
ATOM      4  C   UNL     1       3.224   7.037  18.390  0.00  0.00    +0.000 A 
ATOM      5  C   UNL     1       2.566   6.967  19.618  0.00  0.00    +0.000 A 
ATOM      6  C   UNL     1       1.656   7.974  19.969  0.00  0.00    +0.000 A 
ATOM      7  C   UNL     1       1.366   9.030  19.093  0.00  0.00    +0.000 A 
ATOM      8  C   UNL     1       2.102   9.113  17.899  0.00  0.00    +0.000 A 
ATOM      9  C   UNL     1       3.036   8.130  17.551  0.00  0.00    +0.000 A 
BRANCH   7  10
ATOM     10  N   UNL     1       0.316   9.954  19.359  0.00  0.00    +0.000 N 
ATOM     11  C   UNL     1       0.421  10.923  20.426  0.00  0.00    +0.000 C 
ATOM     12  C   UNL     1      -0.925  11.615  20.447  0.00  0.00    +0.000 C 
ATOM     13  C   UNL     1      -1.378  11.553  19.002  0.00  0.00    +0.000 C 
ATOM     14  C   UNL     1      -0.722  10.297  18.478  0.00  0.00    +0.000 C 
ATOM     15  O   UNL     1      -1.064   9.753  17.440  0.00  0.00    +0.000 OA
ENDBRANCH   7  10
ENDBRANCH   1   4
BRANCH   1  17
ATOM     16  C   UNL     1       3.217   3.621  16.682  0.00  0.00    +0.000 C 
ATOM     17  N   UNL     1       3.281   4.289  18.026  0.00  0.00    +0.000 NA
BRANCH  17  18
ATOM     18  C   UNL     1       3.668   3.331  19.143  0.00  0.00    +0.000 C 
ATOM     19  C   UNL     1       3.043   1.921  19.001  0.00  0.00    +0.000 C 
ATOM     20  C   UNL     1       1.582   2.012  19.419  0.00  0.00    +0.000 C 
ATOM     21  S   UNL     1       1.582   3.126  20.802  0.00  0.00    +0.000 S 
ATOM     22  O   UNL     1       1.610   2.341  22.019  0.00  0.00    +0.000 OA
ATOM     23  O   UNL     1       0.588   4.151  20.566  0.00  0.00    +0.000 OA
ATOM     24  C   UNL     1       3.208   3.796  20.533  0.00  0.00    +0.000 C 
ENDBRANCH  17  18
ENDBRANCH   1  17
TORSDOF 4
ENDMDL
MODEL 5
REMARK VINA RESULT:      -7.5      0.433      1.075
REMARK  Name = 
REMARK  5 active torsions:
REMARK  status: ('A' for Active; 'I' for Inactive)
REMARK    1  A    between atoms: C_1  and  N_2
REMARK    2  A    between atoms: N_2  and  C_3
REMARK    3  A    between atoms: N_2  and  S_10
REMARK    4  A    between atoms: S_10  and  C_13
REMARK    5  A    between atoms: C_16  and  N_17
REMARK                            x       y       z     vdW  Elec       q    Type
REMARK                         _______ _______ _______ _____ _____    ______ ____
ROOT
ATOM      1  S   UNL     1       4.282   5.697  17.912  0.00  0.00    +0.000 S 
ATOM      2  O   UNL     1       5.325   5.616  18.907  0.00  0.00    +0.000 OA
ATOM      3  O   UNL     1       4.608   5.829  16.510  0.00  0.00    +0.000 OA
ENDROOT
BRANCH   1   4
ATOM      4  C   UNL     1       3.232   7.053  18.386  0.00  0.00    +0.000 A 
ATOM      5  C   UNL     1       2.575   7.013  19.614  0.00  0.00    +0.000 A 
ATOM      6  C   UNL     1       1.699   8.051  19.962  0.00  0.00    +0.000 A 
ATOM      7  C   UNL     1       1.444   9.112  19.080  0.00  0.00    +0.000 A 
ATOM      8  C   UNL     1       2.181   9.164  17.885  0.00  0.00    +0.000 A 
ATOM      9  C   UNL     1       3.080   8.148  17.541  0.00  0.00    +0.000 A 
BRANCH   7  10
ATOM     10  N   UNL     1       0.426  10.072  19.343  0.00  0.00    +0.000 N 
ATOM     11  C   UNL     1      -0.794  10.105  18.568  0.00  0.00    +0.000 C 
ATOM     12  C   UNL     1      -1.537  11.320  19.078  0.00  0.00    +0.000 C 
ATOM     13  C   UNL     1      -1.102  11.421  20.526  0.00  0.00    +0.000 C 
ATOM     14  C   UNL     1       0.284  10.820  20.522  0.00  0.00    +0.000 C 
ATOM     15  O   UNL     1       1.074  10.970  21.441  0.00  0.00    +0.000 OA
ENDBRANCH   7  10
ENDBRANCH   1   4
BRANCH   1  17
ATOM     16  C   UNL     1       3.094   3.631  16.708  0.00  0.00    +0.000 C 
ATOM     17  N   UNL     1       3.199   4.302  18.049  0.00  0.00    +0.000 NA
BRANCH  17  18
ATOM     18  C   UNL     1       3.572   3.336  19.164  0.00  0.00    +0.000 C 
ATOM     19  C   UNL     1       2.903   1.945  19.034  0.00  0.00    +0.000 C 
ATOM     20  C   UNL     1       1.451   2.082  19.471  0.00  0.00    +0.000 C 
ATOM     21  S   UNL     1       1.502   3.199  20.850  0.00  0.00    +0.000 S 
ATOM     22  O   UNL     1       1.521   2.418  22.069  0.00  0.00    +0.000 OA
ATOM     23  O   UNL     1       0.536   4.253  20.623  0.00  0.00    +0.000 OA
ATOM     24  C   UNL     1       3.144   3.820  20.558  0.00  0.00    +0.000 C 
ENDBRANCH  17  18
ENDBRANCH   1  17
TORSDOF 4
ENDMDL
MODEL 6
REMARK VINA RESULT:      -7.5      0.993      1.262
REMARK  Name = 
REMARK  5 active torsions:
REMARK  status: ('A' for Active; 'I' for Inactive)
REMARK    1  A    between atoms: C_1  and  N_2
REMARK    2  A    between atoms: N_2  and  C_3
REMARK    3  A    between atoms: N_2  and  S_10
REMARK    4  A    between atoms: S_10  and  C_13
REMARK    5  A    between atoms: C_16  and  N_17
REMARK                            x       y       z     vdW  Elec       q    Type
REMARK                         _______ _______ _______ _____ _____    ______ ____
ROOT
ATOM      1  S   UNL     1       4.321   5.831  18.158  0.00  0.00    +0.000 S 
ATOM      2  O   UNL     1       5.260   5.812  19.255  0.00  0.00    +0.000 OA
ATOM      3  O   UNL     1       4.772   6.063  16.804  0.00  0.00    +0.000 OA
ENDROOT
BRANCH   1   4
ATOM      4  C   UNL     1       3.087   7.046  18.566  0.00  0.00    +0.000 A 
ATOM      5  C   UNL     1       2.761   8.030  17.634  0.00  0.00    +0.000 A 
ATOM      6  C   UNL     1       1.834   9.025  17.976  0.00  0.00    +0.000 A 
ATOM      7  C   UNL     1       1.256   9.069  19.253  0.00  0.00    +0.000 A 
ATOM      8  C   UNL     1       1.544   8.019  20.141  0.00  0.00    +0.000 A 
ATOM      9  C   UNL     1       2.445   7.004  19.800  0.00  0.00    +0.000 A 
BRANCH   7  10
ATOM     10  N   UNL     1       0.456  10.170  19.672  0.00  0.00    +0.000 N 
ATOM     11  C   UNL     1       0.972  11.171  20.578  0.00  0.00    +0.000 C 
ATOM     12  C   UNL     1      -0.206  12.078  20.857  0.00  0.00    +0.000 C 
ATOM     13  C   UNL     1      -1.020  12.005  19.580  0.00  0.00    +0.000 C 
ATOM     14  C   UNL     1      -0.711  10.628  19.042  0.00  0.00    +0.000 C 
ATOM     15  O   UNL     1      -1.385  10.087  18.178  0.00  0.00    +0.000 OA
ENDBRANCH   7  10
ENDBRANCH   1   4
BRANCH   1  17
ATOM     16  C   UNL     1       3.531   3.689  16.773  0.00  0.00    +0.000 C 
ATOM     17  N   UNL     1       3.389   4.326  18.127  0.00  0.00    +0.000 NA
BRANCH  17  18
ATOM     18  C   UNL     1       3.719   3.370  19.265  0.00  0.00    +0.000 C 
ATOM     19  C   UNL     1       3.137   1.947  19.074  0.00  0.00    +0.000 C 
ATOM     20  C   UNL     1       1.649   2.004  19.389  0.00  0.00    +0.000 C 
ATOM     21  S   UNL     1       1.527   3.110  20.773  0.00  0.00    +0.000 S 
ATOM     22  O   UNL     1       1.488   2.320  21.986  0.00  0.00    +0.000 OA
ATOM     23  O   UNL     1       0.529   4.114  20.473  0.00  0.00    +0.000 OA
ATOM     24  C   UNL     1       3.153   3.818  20.621  0.00  0.00    +0.000 C 
ENDBRANCH  17  18
ENDBRANCH   1  17
TORSDOF 4
ENDMDL
MODEL 7
REMARK VINA RESULT:      -7.3      0.995      1.026
REMARK  Name = 
REMARK  5 active torsions:
REMARK  status: ('A' for Active; 'I' for Inactive)
REMARK    1  A    between atoms: C_1  and  N_2
REMARK    2  A    between atoms: N_2  and  C_3
REMARK    3  A    between atoms: N_2  and  S_10
REMARK    4  A    between atoms: S_10  and  C_13
REMARK    5  A    between atoms: C_16  and  N_17
REMARK                            x       y       z     vdW  Elec       q    Type
REMARK                         _______ _______ _______ _____ _____    ______ ____
ROOT
ATOM      1  S   UNL     1       4.445   5.645  18.194  0.00  0.00    +0.000 S 
ATOM      2  O   UNL     1       5.306   5.604  19.353  0.00  0.00    +0.000 OA
ATOM      3  O   UNL     1       4.997   5.829  16.870  0.00  0.00    +0.000 OA
ENDROOT
BRANCH   1   4
ATOM      4  C   UNL     1       3.246   6.924  18.496  0.00  0.00    +0.000 A 
ATOM      5  C   UNL     1       2.995   7.874  17.507  0.00  0.00    +0.000 A 
ATOM      6  C   UNL     1       2.096   8.919  17.767  0.00  0.00    +0.000 A 
ATOM      7  C   UNL     1       1.472   9.045  19.016  0.00  0.00    +0.000 A 
ATOM      8  C   UNL     1       1.684   8.029  19.963  0.00  0.00    +0.000 A 
ATOM      9  C   UNL     1       2.557   6.965  19.704  0.00  0.00    +0.000 A 
BRANCH   7  10
ATOM     10  N   UNL     1       0.702  10.194  19.352  0.00  0.00    +0.000 N 
ATOM     11  C   UNL     1      -0.451  10.099  20.219  0.00  0.00    +0.000 C 
ATOM     12  C   UNL     1      -1.041  11.493  20.225  0.00  0.00    +0.000 C 
ATOM     13  C   UNL     1       0.164  12.389  20.023  0.00  0.00    +0.000 C 
ATOM     14  C   UNL     1       1.115  11.530  19.224  0.00  0.00    +0.000 C 
ATOM     15  O   UNL     1       2.079  11.985  18.627  0.00  0.00    +0.000 OA
ENDBRANCH   7  10
ENDBRANCH   1   4
BRANCH   1  17
ATOM     16  C   UNL     1       3.577   3.566  16.761  0.00  0.00    +0.000 C 
ATOM     17  N   UNL     1       3.447   4.184  18.125  0.00  0.00    +0.000 NA
BRANCH  17  18
ATOM     18  C   UNL     1       3.718   3.195  19.248  0.00  0.00    +0.000 C 
ATOM     19  C   UNL     1       3.025   1.824  19.055  0.00  0.00    +0.000 C 
ATOM     20  C   UNL     1       1.551   1.993  19.394  0.00  0.00    +0.000 C 
ATOM     21  S   UNL     1       1.536   3.091  20.789  0.00  0.00    +0.000 S 
ATOM     22  O   UNL     1       1.453   2.294  21.996  0.00  0.00    +0.000 OA
ATOM     23  O   UNL     1       0.615   4.173  20.513  0.00  0.00    +0.000 OA
ATOM     24  C   UNL     1       3.209   3.672  20.618  0.00  0.00    +0.000 C 
ENDBRANCH  17  18
ENDBRANCH   1  17
TORSDOF 4
ENDMDL
MODEL 8
REMARK VINA RESULT:      -7.3      2.471      4.268
REMARK  Name = 
REMARK  5 active torsions:
REMARK  status: ('A' for Active; 'I' for Inactive)
REMARK    1  A    between atoms: C_1  and  N_2
REMARK    2  A    between atoms: N_2  and  C_3
REMARK    3  A    between atoms: N_2  and  S_10
REMARK    4  A    between atoms: S_10  and  C_13
REMARK    5  A    between atoms: C_16  and  N_17
REMARK                            x       y       z     vdW  Elec       q    Type
REMARK                         _______ _______ _______ _____ _____    ______ ____
ROOT
ATOM      1  S   UNL     1       2.832   5.646  19.025  0.00  0.00    +0.000 S 
ATOM      2  O   UNL     1       1.993   4.860  18.151  0.00  0.00    +0.000 OA
ATOM      3  O   UNL     1       3.021   5.266  20.407  0.00  0.00    +0.000 OA
ENDROOT
BRANCH   1   4
ATOM      4  C   UNL     1       2.204   7.310  18.971  0.00  0.00    +0.000 A 
ATOM      5  C   UNL     1       2.289   8.036  17.783  0.00  0.00    +0.000 A 
ATOM      6  C   UNL     1       1.851   9.367  17.756  0.00  0.00    +0.000 A 
ATOM      7  C   UNL     1       1.363   9.995  18.911  0.00  0.00    +0.000 A 
ATOM      8  C   UNL     1       1.217   9.215  20.070  0.00  0.00    +0.000 A 
ATOM      9  C   UNL     1       1.622   7.875  20.101  0.00  0.00    +0.000 A 
BRANCH   7  10
ATOM     10  N   UNL     1       1.087  11.391  18.941  0.00  0.00    +0.000 N 
ATOM     11  C   UNL     1       2.085  12.363  18.555  0.00  0.00    +0.000 C 
ATOM     12  C   UNL     1       1.442  13.703  18.839  0.00  0.00    +0.000 C 
ATOM     13  C   UNL     1      -0.036  13.440  18.629  0.00  0.00    +0.000 C 
ATOM     14  C   UNL     1      -0.188  11.978  18.978  0.00  0.00    +0.000 C 
ATOM     15  O   UNL     1      -1.270  11.458  19.201  0.00  0.00    +0.000 OA
ENDBRANCH   7  10
ENDBRANCH   1   4
BRANCH   1  17
ATOM     16  C   UNL     1       5.462   5.269  19.289  0.00  0.00    +0.000 C 
ATOM     17  N   UNL     1       4.449   5.819  18.325  0.00  0.00    +0.000 NA
BRANCH  17  18
ATOM     18  C   UNL     1       4.586   5.231  16.928  0.00  0.00    +0.000 C 
ATOM     19  C   UNL     1       5.457   3.952  16.871  0.00  0.00    +0.000 C 
ATOM     20  C   UNL     1       6.916   4.375  16.968  0.00  0.00    +0.000 C 
ATOM     21  S   UNL     1       7.014   5.865  16.009  0.00  0.00    +0.000 S 
ATOM     22  O   UNL     1       7.474   5.522  14.679  0.00  0.00    +0.000 OA
ATOM     23  O   UNL     1       7.657   6.886  16.808  0.00  0.00    +0.000 OA
ATOM     24  C   UNL     1       5.265   6.181  15.929  0.00  0.00    +0.000 C 
ENDBRANCH  17  18
ENDBRANCH   1  17
TORSDOF 4
ENDMDL
MODEL 9
REMARK VINA RESULT:      -7.1      2.485      4.240
REMARK  Name = 
REMARK  5 active torsions:
REMARK  status: ('A' for Active; 'I' for Inactive)
REMARK    1  A    between atoms: C_1  and  N_2
REMARK    2  A    between atoms: N_2  and  C_3
REMARK    3  A    between atoms: N_2  and  S_10
REMARK    4  A    between atoms: S_10  and  C_13
REMARK    5  A    between atoms: C_16  and  N_17
REMARK                            x       y       z     vdW  Elec       q    Type
REMARK                         _______ _______ _______ _____ _____    ______ ____
ROOT
ATOM      1  S   UNL     1       2.836   5.595  19.052  0.00  0.00    +0.000 S 
ATOM      2  O   UNL     1       1.997   4.804  18.183  0.00  0.00    +0.000 OA
ATOM      3  O   UNL     1       3.059   5.198  20.425  0.00  0.00    +0.000 OA
ENDROOT
BRANCH   1   4
ATOM      4  C   UNL     1       2.173   7.246  19.035  0.00  0.00    +0.000 A 
ATOM      5  C   UNL     1       2.156   7.964  17.839  0.00  0.00    +0.000 A 
ATOM      6  C   UNL     1       1.692   9.287  17.836  0.00  0.00    +0.000 A 
ATOM      7  C   UNL     1       1.278   9.914  19.021  0.00  0.00    +0.000 A 
ATOM      8  C   UNL     1       1.233   9.140  20.192  0.00  0.00    +0.000 A 
ATOM      9  C   UNL     1       1.666   7.809  20.202  0.00  0.00    +0.000 A 
BRANCH   7  10
ATOM     10  N   UNL     1       0.977  11.304  19.063  0.00  0.00    +0.000 N 
ATOM     11  C   UNL     1      -0.088  11.818  19.895  0.00  0.00    +0.000 C 
ATOM     12  C   UNL     1      -0.152  13.293  19.565  0.00  0.00    +0.000 C 
ATOM     13  C   UNL     1       1.277  13.638  19.199  0.00  0.00    +0.000 C 
ATOM     14  C   UNL     1       1.824  12.344  18.645  0.00  0.00    +0.000 C 
ATOM     15  O   UNL     1       2.852  12.284  17.989  0.00  0.00    +0.000 OA
ENDBRANCH   7  10
ENDBRANCH   1   4
BRANCH   1  17
ATOM     16  C   UNL     1       5.478   5.275  19.264  0.00  0.00    +0.000 C 
ATOM     17  N   UNL     1       4.436   5.811  18.324  0.00  0.00    +0.000 NA
BRANCH  17  18
ATOM     18  C   UNL     1       4.559   5.239  16.920  0.00  0.00    +0.000 C 
ATOM     19  C   UNL     1       5.424   3.956  16.842  0.00  0.00    +0.000 C 
ATOM     20  C   UNL     1       6.885   4.371  16.933  0.00  0.00    +0.000 C 
ATOM     21  S   UNL     1       6.984   5.872  15.990  0.00  0.00    +0.000 S 
ATOM     22  O   UNL     1       7.433   5.542  14.654  0.00  0.00    +0.000 OA
ATOM     23  O   UNL     1       7.637   6.880  16.797  0.00  0.00    +0.000 OA
ATOM     24  C   UNL     1       5.236   6.197  15.927  0.00  0.00    +0.000 C 
ENDBRANCH  17  18
ENDBRANCH   1  17
TORSDOF 4
ENDMDL
