MODEL 1
REMARK VINA RESULT:      -7.2      0.000      0.000
REMARK  Name = 
REMARK  5 active torsions:
REMARK  status: ('A' for Active; 'I' for Inactive)
REMARK    1  A    between atoms: C_1  and  C_2
REMARK    2  A    between atoms: C_2  and  C_4
REMARK    3  A    between atoms: C_5  and  C_6
REMARK    4  A    between atoms: C_13  and  C_14
REMARK    5  A    between atoms: C_13  and  C_15
REMARK                            x       y       z     vdW  Elec       q    Type
REMARK                         _______ _______ _______ _____ _____    ______ ____
ROOT
ATOM      1  C   UNL     1       4.949   4.205  19.455  0.00  0.00    +0.000 C 
ATOM      2  C   UNL     1       3.656   3.826  19.372  0.00  0.00    +0.000 C 
ATOM      3  C   UNL     1       2.993   2.859  20.350  0.00  0.00    +0.000 C 
ATOM      4  C   UNL     1       1.996   3.652  21.215  0.00  0.00    +0.000 C 
ATOM      5  C   UNL     1       0.852   3.956  20.231  0.00  0.00    +0.000 C 
ATOM      6  C   UNL     1       1.377   3.374  18.901  0.00  0.00    +0.000 C 
ATOM      7  C   UNL     1       2.051   2.097  19.420  0.00  0.00    +0.000 C 
ATOM      8  C   UNL     1       2.586   4.191  18.329  0.00  0.00    +0.000 C 
ATOM      9  C   UNL     1       2.277   5.697  18.259  0.00  0.00    +0.000 C 
ATOM     10  C   UNL     1       2.935   3.677  16.917  0.00  0.00    +0.000 C 
ENDROOT
BRANCH   1  12
ATOM     11  C   UNL     1       6.628   4.808  17.729  0.00  0.00    +0.000 C 
ATOM     12  C   UNL     1       5.595   5.105  18.531  0.00  0.00    +0.000 C 
BRANCH  11  14
ATOM     13  C   UNL     1       7.441   7.216  17.509  0.00  0.00    +0.000 C 
ATOM     14  C   UNL     1       7.172   5.889  16.856  0.00  0.00    +0.000 C 
ATOM     15  O   UNL     1       7.389   5.714  15.656  0.00  0.00    +0.000 OA
ENDBRANCH  11  14
ENDBRANCH   1  12
TORSDOF 2
ENDMDL
MODEL 2
REMARK VINA RESULT:      -7.1      1.231      1.850
REMARK  Name = 
REMARK  5 active torsions:
REMARK  status: ('A' for Active; 'I' for Inactive)
REMARK    1  A    between atoms: C_1  and  C_2
REMARK    2  A    between atoms: C_2  and  C_4
REMARK    3  A    between atoms: C_5  and  C_6
REMARK    4  A    between atoms: C_13  and  C_14
REMARK    5  A    between atoms: C_13  and  C_15
REMARK                            x       y       z     vdW  Elec       q    Type
REMARK                         _______ _______ _______ _____ _____    ______ ____
ROOT
ATOM      1  C   UNL     1       3.986   5.419  19.736  0.00  0.00    +0.000 C 
ATOM      2  C   UNL     1       3.199   4.345  19.955  0.00  0.00    +0.000 C 
ATOM      3  C   UNL     1       2.082   4.312  20.997  0.00  0.00    +0.000 C 
ATOM      4  C   UNL     1       0.732   4.299  20.258  0.00  0.00    +0.000 C 
ATOM      5  C   UNL     1       0.672   2.876  19.673  0.00  0.00    +0.000 C 
ATOM      6  C   UNL     1       2.039   2.281  20.076  0.00  0.00    +0.000 C 
ATOM      7  C   UNL     1       2.177   2.870  21.487  0.00  0.00    +0.000 C 
ATOM      8  C   UNL     1       3.231   2.951  19.308  0.00  0.00    +0.000 C 
ATOM      9  C   UNL     1       2.994   2.967  17.788  0.00  0.00    +0.000 C 
ATOM     10  C   UNL     1       4.536   2.186  19.613  0.00  0.00    +0.000 C 
ENDROOT
BRANCH   1  12
ATOM     11  C   UNL     1       6.365   5.353  19.030  0.00  0.00    +0.000 C 
ATOM     12  C   UNL     1       5.055   5.462  18.768  0.00  0.00    +0.000 C 
BRANCH  11  14
ATOM     13  C   UNL     1       7.496   6.798  17.259  0.00  0.00    +0.000 C 
ATOM     14  C   UNL     1       7.320   5.444  17.887  0.00  0.00    +0.000 C 
ATOM     15  O   UNL     1       7.936   4.462  17.468  0.00  0.00    +0.000 OA
ENDBRANCH  11  14
ENDBRANCH   1  12
TORSDOF 2
ENDMDL
MODEL 3
REMARK VINA RESULT:      -7.1      1.496      2.266
REMARK  Name = 
REMARK  5 active torsions:
REMARK  status: ('A' for Active; 'I' for Inactive)
REMARK    1  A    between atoms: C_1  and  C_2
REMARK    2  A    between atoms: C_2  and  C_4
REMARK    3  A    between atoms: C_5  and  C_6
REMARK    4  A    between atoms: C_13  and  C_14
REMARK    5  A    between atoms: C_13  and  C_15
REMARK                            x       y       z     vdW  Elec       q    Type
REMARK                         _______ _______ _______ _____ _____    ______ ____
ROOT
ATOM      1  C   UNL     1       4.396   5.101  19.341  0.00  0.00    +0.000 C 
ATOM      2  C   UNL     1       3.475   4.242  19.827  0.00  0.00    +0.000 C 
ATOM      3  C   UNL     1       2.351   4.654  20.776  0.00  0.00    +0.000 C 
ATOM      4  C   UNL     1       1.019   4.582  20.008  0.00  0.00    +0.000 C 
ATOM      5  C   UNL     1       0.784   3.068  19.865  0.00  0.00    +0.000 C 
ATOM      6  C   UNL     1       2.059   2.461  20.492  0.00  0.00    +0.000 C 
ATOM      7  C   UNL     1       2.254   3.423  21.672  0.00  0.00    +0.000 C 
ATOM      8  C   UNL     1       3.335   2.725  19.621  0.00  0.00    +0.000 C 
ATOM      9  C   UNL     1       3.121   2.316  18.154  0.00  0.00    +0.000 C 
ATOM     10  C   UNL     1       4.528   1.936  20.202  0.00  0.00    +0.000 C 
ENDROOT
BRANCH   1  12
ATOM     11  C   UNL     1       5.583   5.052  17.161  0.00  0.00    +0.000 C 
ATOM     12  C   UNL     1       5.473   4.725  18.457  0.00  0.00    +0.000 C 
BRANCH  11  14
ATOM     13  C   UNL     1       6.545   4.167  14.970  0.00  0.00    +0.000 C 
ATOM     14  C   UNL     1       6.768   4.547  16.408  0.00  0.00    +0.000 C 
ATOM     15  O   UNL     1       7.878   4.438  16.931  0.00  0.00    +0.000 OA
ENDBRANCH  11  14
ENDBRANCH   1  12
TORSDOF 2
ENDMDL
MODEL 4
REMARK VINA RESULT:      -7.0      0.805      1.089
REMARK  Name = 
REMARK  5 active torsions:
REMARK  status: ('A' for Active; 'I' for Inactive)
REMARK    1  A    between atoms: C_1  and  C_2
REMARK    2  A    between atoms: C_2  and  C_4
REMARK    3  A    between atoms: C_5  and  C_6
REMARK    4  A    between atoms: C_13  and  C_14
REMARK    5  A    between atoms: C_13  and  C_15
REMARK                            x       y       z     vdW  Elec       q    Type
REMARK                         _______ _______ _______ _____ _____    ______ ____
ROOT
ATOM      1  C   UNL     1       4.945   4.123  19.237  0.00  0.00    +0.000 C 
ATOM      2  C   UNL     1       3.637   3.803  19.325  0.00  0.00    +0.000 C 
ATOM      3  C   UNL     1       3.034   3.022  20.492  0.00  0.00    +0.000 C 
ATOM      4  C   UNL     1       2.155   3.982  21.313  0.00  0.00    +0.000 C 
ATOM      5  C   UNL     1       0.934   4.198  20.401  0.00  0.00    +0.000 C 
ATOM      6  C   UNL     1       1.309   3.403  19.131  0.00  0.00    +0.000 C 
ATOM      7  C   UNL     1       1.981   2.182  19.773  0.00  0.00    +0.000 C 
ATOM      8  C   UNL     1       2.488   4.067  18.339  0.00  0.00    +0.000 C 
ATOM      9  C   UNL     1       2.230   5.560  18.074  0.00  0.00    +0.000 C 
ATOM     10  C   UNL     1       2.682   3.336  16.994  0.00  0.00    +0.000 C 
ENDROOT
BRANCH   1  12
ATOM     11  C   UNL     1       6.317   4.328  17.177  0.00  0.00    +0.000 C 
ATOM     12  C   UNL     1       5.534   4.846  18.136  0.00  0.00    +0.000 C 
BRANCH  11  14
ATOM     13  C   UNL     1       6.618   4.851  14.699  0.00  0.00    +0.000 C 
ATOM     14  C   UNL     1       6.847   5.250  16.130  0.00  0.00    +0.000 C 
ATOM     15  O   UNL     1       7.449   6.287  16.415  0.00  0.00    +0.000 OA
ENDBRANCH  11  14
ENDBRANCH   1  12
TORSDOF 2
ENDMDL
MODEL 5
REMARK VINA RESULT:      -7.0      1.260      1.792
REMARK  Name = 
REMARK  5 active torsions:
REMARK  status: ('A' for Active; 'I' for Inactive)
REMARK    1  A    between atoms: C_1  and  C_2
REMARK    2  A    between atoms: C_2  and  C_4
REMARK    3  A    between atoms: C_5  and  C_6
REMARK    4  A    between atoms: C_13  and  C_14
REMARK    5  A    between atoms: C_13  and  C_15
REMARK                            x       y       z     vdW  Elec       q    Type
REMARK                         _______ _______ _______ _____ _____    ______ ____
ROOT
ATOM      1  C   UNL     1       4.729   4.593  19.304  0.00  0.00    +0.000 C 
ATOM      2  C   UNL     1       3.590   3.923  19.579  0.00  0.00    +0.000 C 
ATOM      3  C   UNL     1       2.809   4.082  20.883  0.00  0.00    +0.000 C 
ATOM      4  C   UNL     1       1.495   4.822  20.573  0.00  0.00    +0.000 C 
ATOM      5  C   UNL     1       0.669   3.760  19.826  0.00  0.00    +0.000 C 
ATOM      6  C   UNL     1       1.649   2.570  19.723  0.00  0.00    +0.000 C 
ATOM      7  C   UNL     1       2.312   2.656  21.105  0.00  0.00    +0.000 C 
ATOM      8  C   UNL     1       2.843   2.864  18.752  0.00  0.00    +0.000 C 
ATOM      9  C   UNL     1       2.356   3.376  17.385  0.00  0.00    +0.000 C 
ATOM     10  C   UNL     1       3.672   1.578  18.549  0.00  0.00    +0.000 C 
ENDROOT
BRANCH   1  12
ATOM     11  C   UNL     1       5.661   5.381  17.142  0.00  0.00    +0.000 C 
ATOM     12  C   UNL     1       5.487   4.444  18.085  0.00  0.00    +0.000 C 
BRANCH  11  14
ATOM     13  C   UNL     1       6.026   3.812  15.164  0.00  0.00    +0.000 C 
ATOM     14  C   UNL     1       6.467   5.024  15.937  0.00  0.00    +0.000 C 
ATOM     15  O   UNL     1       7.449   5.680  15.588  0.00  0.00    +0.000 OA
ENDBRANCH  11  14
ENDBRANCH   1  12
TORSDOF 2
ENDMDL
MODEL 6
REMARK VINA RESULT:      -6.9      1.399      1.513
REMARK  Name = 
REMARK  5 active torsions:
REMARK  status: ('A' for Active; 'I' for Inactive)
REMARK    1  A    between atoms: C_1  and  C_2
REMARK    2  A    between atoms: C_2  and  C_4
REMARK    3  A    between atoms: C_5  and  C_6
REMARK    4  A    between atoms: C_13  and  C_14
REMARK    5  A    between atoms: C_13  and  C_15
REMARK                            x       y       z     vdW  Elec       q    Type
REMARK                         _______ _______ _______ _____ _____    ______ ____
ROOT
ATOM      1  C   UNL     1       4.357   3.238  18.279  0.00  0.00    +0.000 C 
ATOM      2  C   UNL     1       3.182   3.340  18.935  0.00  0.00    +0.000 C 
ATOM      3  C   UNL     1       2.570   2.206  19.755  0.00  0.00    +0.000 C 
ATOM      4  C   UNL     1       2.655   2.586  21.245  0.00  0.00    +0.000 C 
ATOM      5  C   UNL     1       1.595   3.694  21.379  0.00  0.00    +0.000 C 
ATOM      6  C   UNL     1       1.097   3.872  19.928  0.00  0.00    +0.000 C 
ATOM      7  C   UNL     1       1.083   2.406  19.474  0.00  0.00    +0.000 C 
ATOM      8  C   UNL     1       2.186   4.509  18.998  0.00  0.00    +0.000 C 
ATOM      9  C   UNL     1       2.776   5.794  19.604  0.00  0.00    +0.000 C 
ATOM     10  C   UNL     1       1.565   4.833  17.623  0.00  0.00    +0.000 C 
ENDROOT
BRANCH   1  12
ATOM     11  C   UNL     1       5.600   4.140  16.328  0.00  0.00    +0.000 C 
ATOM     12  C   UNL     1       4.942   4.292  17.487  0.00  0.00    +0.000 C 
BRANCH  11  14
ATOM     13  C   UNL     1       5.245   6.556  15.591  0.00  0.00    +0.000 C 
ATOM     14  C   UNL     1       6.152   5.359  15.668  0.00  0.00    +0.000 C 
ATOM     15  O   UNL     1       7.292   5.393  15.203  0.00  0.00    +0.000 OA
ENDBRANCH  11  14
ENDBRANCH   1  12
TORSDOF 2
ENDMDL
MODEL 7
REMARK VINA RESULT:      -6.9      1.532      2.705
REMARK  Name = 
REMARK  5 active torsions:
REMARK  status: ('A' for Active; 'I' for Inactive)
REMARK    1  A    between atoms: C_1  and  C_2
REMARK    2  A    between atoms: C_2  and  C_4
REMARK    3  A    between atoms: C_5  and  C_6
REMARK    4  A    between atoms: C_13  and  C_14
REMARK    5  A    between atoms: C_13  and  C_15
REMARK                            x       y       z     vdW  Elec       q    Type
REMARK                         _______ _______ _______ _____ _____    ______ ____
ROOT
ATOM      1  C   UNL     1       3.028   3.868  17.100  0.00  0.00    +0.000 C 
ATOM      2  C   UNL     1       2.709   3.916  18.410  0.00  0.00    +0.000 C 
ATOM      3  C   UNL     1       1.277   4.018  18.929  0.00  0.00    +0.000 C 
ATOM      4  C   UNL     1       0.904   2.676  19.587  0.00  0.00    +0.000 C 
ATOM      5  C   UNL     1       1.723   2.690  20.889  0.00  0.00    +0.000 C 
ATOM      6  C   UNL     1       2.533   4.001  20.773  0.00  0.00    +0.000 C 
ATOM      7  C   UNL     1       1.467   4.913  20.151  0.00  0.00    +0.000 C 
ATOM      8  C   UNL     1       3.622   3.930  19.648  0.00  0.00    +0.000 C 
ATOM      9  C   UNL     1       4.503   2.676  19.782  0.00  0.00    +0.000 C 
ATOM     10  C   UNL     1       4.513   5.188  19.712  0.00  0.00    +0.000 C 
ENDROOT
BRANCH   1  12
ATOM     11  C   UNL     1       5.108   4.810  16.124  0.00  0.00    +0.000 C 
ATOM     12  C   UNL     1       4.376   3.787  16.592  0.00  0.00    +0.000 C 
BRANCH  11  14
ATOM     13  C   UNL     1       6.611   4.178  14.162  0.00  0.00    +0.000 C 
ATOM     14  C   UNL     1       6.482   4.517  15.621  0.00  0.00    +0.000 C 
ATOM     15  O   UNL     1       7.469   4.544  16.358  0.00  0.00    +0.000 OA
ENDBRANCH  11  14
ENDBRANCH   1  12
TORSDOF 2
ENDMDL
MODEL 8
REMARK VINA RESULT:      -6.9      1.028      1.109
REMARK  Name = 
REMARK  5 active torsions:
REMARK  status: ('A' for Active; 'I' for Inactive)
REMARK    1  A    between atoms: C_1  and  C_2
REMARK    2  A    between atoms: C_2  and  C_4
REMARK    3  A    between atoms: C_5  and  C_6
REMARK    4  A    between atoms: C_13  and  C_14
REMARK    5  A    between atoms: C_13  and  C_15
REMARK                            x       y       z     vdW  Elec       q    Type
REMARK                         _______ _______ _______ _____ _____    ______ ____
ROOT
ATOM      1  C   UNL     1       4.637   3.706  18.683  0.00  0.00    +0.000 C 
ATOM      2  C   UNL     1       3.386   3.522  19.157  0.00  0.00    +0.000 C 
ATOM      3  C   UNL     1       2.942   2.268  19.908  0.00  0.00    +0.000 C 
ATOM      4  C   UNL     1       2.713   2.643  21.383  0.00  0.00    +0.000 C 
ATOM      5  C   UNL     1       1.415   3.468  21.332  0.00  0.00    +0.000 C 
ATOM      6  C   UNL     1       1.110   3.538  19.819  0.00  0.00    +0.000 C 
ATOM      7  C   UNL     1       1.509   2.115  19.406  0.00  0.00    +0.000 C 
ATOM      8  C   UNL     1       2.145   4.422  19.043  0.00  0.00    +0.000 C 
ATOM      9  C   UNL     1       2.320   5.804  19.696  0.00  0.00    +0.000 C 
ATOM     10  C   UNL     1       1.677   4.604  17.584  0.00  0.00    +0.000 C 
ENDROOT
BRANCH   1  12
ATOM     11  C   UNL     1       6.296   5.417  17.988  0.00  0.00    +0.000 C 
ATOM     12  C   UNL     1       5.069   4.877  17.959  0.00  0.00    +0.000 C 
BRANCH  11  14
ATOM     13  C   UNL     1       7.639   7.560  17.650  0.00  0.00    +0.000 C 
ATOM     14  C   UNL     1       6.540   6.648  17.180  0.00  0.00    +0.000 C 
ATOM     15  O   UNL     1       5.876   6.915  16.177  0.00  0.00    +0.000 OA
ENDBRANCH  11  14
ENDBRANCH   1  12
TORSDOF 2
ENDMDL
MODEL 9
REMARK VINA RESULT:      -6.9      2.734      5.583
REMARK  Name = 
REMARK  5 active torsions:
REMARK  status: ('A' for Active; 'I' for Inactive)
REMARK    1  A    between atoms: C_1  and  C_2
REMARK    2  A    between atoms: C_2  and  C_4
REMARK    3  A    between atoms: C_5  and  C_6
REMARK    4  A    between atoms: C_13  and  C_14
REMARK    5  A    between atoms: C_13  and  C_15
REMARK                            x       y       z     vdW  Elec       q    Type
REMARK                         _______ _______ _______ _____ _____    ______ ____
ROOT
ATOM      1  C   UNL     1       3.940   3.039  17.567  0.00  0.00    +0.000 C 
ATOM      2  C   UNL     1       4.820   3.972  17.146  0.00  0.00    +0.000 C 
ATOM      3  C   UNL     1       5.787   3.759  15.983  0.00  0.00    +0.000 C 
ATOM      4  C   UNL     1       5.330   4.641  14.807  0.00  0.00    +0.000 C 
ATOM      5  C   UNL     1       5.695   6.060  15.278  0.00  0.00    +0.000 C 
ATOM      6  C   UNL     1       6.235   5.822  16.705  0.00  0.00    +0.000 C 
ATOM      7  C   UNL     1       7.015   4.520  16.477  0.00  0.00    +0.000 C 
ATOM      8  C   UNL     1       5.110   5.376  17.701  0.00  0.00    +0.000 C 
ATOM      9  C   UNL     1       3.897   6.322  17.655  0.00  0.00    +0.000 C 
ATOM     10  C   UNL     1       5.675   5.342  19.136  0.00  0.00    +0.000 C 
ENDROOT
BRANCH   1  12
ATOM     11  C   UNL     1       3.185   2.724  19.911  0.00  0.00    +0.000 C 
ATOM     12  C   UNL     1       3.031   3.217  18.673  0.00  0.00    +0.000 C 
BRANCH  11  14
ATOM     13  C   UNL     1       0.971   3.864  20.463  0.00  0.00    +0.000 C 
ATOM     14  C   UNL     1       2.117   3.003  20.916  0.00  0.00    +0.000 C 
ATOM     15  O   UNL     1       2.166   2.558  22.064  0.00  0.00    +0.000 OA
ENDBRANCH  11  14
ENDBRANCH   1  12
TORSDOF 2
ENDMDL
