MODEL 1
REMARK VINA RESULT:      -7.0      0.000      0.000
REMARK  Name = 
REMARK  11 active torsions:
REMARK  status: ('A' for Active; 'I' for Inactive)
REMARK    1  A    between atoms: C_1  and  O_2
REMARK    2  A    between atoms: O_2  and  C_3
REMARK    3  A    between atoms: C_7  and  C_8
REMARK    4  A    between atoms: C_9  and  C_10
REMARK    5  A    between atoms: C_13  and  C_14
REMARK    6  A    between atoms: N_16  and  C_17
REMARK    7  A    between atoms: C_19  and  C_20
REMARK    8  A    between atoms: N_22  and  C_23
REMARK    9  A    between atoms: C_23  and  C_24
REMARK   10  A    between atoms: C_24  and  N_25
REMARK   11  A    between atoms: N_31  and  C_32
REMARK                            x       y       z     vdW  Elec       q    Type
REMARK                         _______ _______ _______ _____ _____    ______ ____
ROOT
ATOM      1  C   UNL     1       1.939   8.110  19.399  0.00  0.00    +0.000 C 
ATOM      2  O   UNL     1       2.251   8.418  18.250  0.00  0.00    +0.000 OA
ATOM      3  N   UNL     1       2.345   6.978  20.082  0.00  0.00    +0.000 N 
ATOM      4  H   UNL     1       1.894   6.727  20.954  0.00  0.00    +0.000 HD
ENDROOT
BRANCH   1   8
ATOM      5  C   UNL     1      -0.683  10.875  21.358  0.00  0.00    +0.000 A 
ATOM      6  C   UNL     1      -0.530  10.885  19.969  0.00  0.00    +0.000 A 
ATOM      7  C   UNL     1       0.304   9.955  19.343  0.00  0.00    +0.000 A 
ATOM      8  C   UNL     1       0.993   9.003  20.104  0.00  0.00    +0.000 A 
ATOM      9  C   UNL     1       0.851   8.982  21.491  0.00  0.00    +0.000 A 
ATOM     10  C   UNL     1       0.021   9.921  22.113  0.00  0.00    +0.000 A 
BRANCH   5  12
ATOM     11  C   UNL     1      -1.082  12.752  22.937  0.00  0.00    +0.000 C 
ATOM     12  C   UNL     1      -1.516  11.917  21.981  0.00  0.00    +0.000 C 
BRANCH  11  17
ATOM     13  C   UNL     1      -4.045  14.819  24.112  0.00  0.00    +0.000 A 
ATOM     14  C   UNL     1      -3.389  15.776  24.885  0.00  0.00    +0.000 A 
ATOM     15  C   UNL     1      -2.002  15.747  25.013  0.00  0.00    +0.000 A 
ATOM     16  C   UNL     1      -1.261  14.763  24.361  0.00  0.00    +0.000 A 
ATOM     17  C   UNL     1      -1.899  13.800  23.570  0.00  0.00    +0.000 A 
ATOM     18  C   UNL     1      -3.298  13.830  23.464  0.00  0.00    +0.000 A 
BRANCH  13  20
ATOM     19  C   UNL     1      -6.137  13.846  23.553  0.00  0.00    +0.000 C 
ATOM     20  O   UNL     1      -5.407  14.951  24.071  0.00  0.00    +0.000 OA
ENDBRANCH  13  20
ENDBRANCH  11  17
ENDBRANCH   5  12
ENDBRANCH   1   8
BRANCH   3  21
ATOM     21  C   UNL     1       3.184   6.038  19.520  0.00  0.00    +0.000 A 
ATOM     22  C   UNL     1       4.213   6.227  18.574  0.00  0.00    +0.000 A 
ATOM     23  C   UNL     1       4.763   4.998  18.222  0.00  0.00    +0.000 A 
ATOM     24  N   UNL     1       4.023   4.062  18.930  0.00  0.00    +0.000 N 
ATOM     25  C   UNL     1       4.034   2.620  18.802  0.00  0.00    +0.000 C 
ATOM     26  C   UNL     1       3.150   4.696  19.794  0.00  0.00    +0.000 A 
BRANCH  23  27
ATOM     27  C   UNL     1       5.870   4.741  17.305  0.00  0.00    +0.000 C 
ATOM     28  O   UNL     1       7.036   4.602  17.660  0.00  0.00    +0.000 OA
ATOM     29  N   UNL     1       5.511   4.689  15.968  0.00  0.00    +0.000 N 
ATOM     30  H   UNL     1       4.531   4.639  15.738  0.00  0.00    +0.000 HD
BRANCH  29  31
ATOM     31  C   UNL     1       6.458   4.402  14.901  0.00  0.00    +0.000 C 
BRANCH  31  32
ATOM     32  C   UNL     1       5.890   3.366  13.903  0.00  0.00    +0.000 C 
BRANCH  32  33
ATOM     33  N   UNL     1       5.795   3.821  12.500  0.00  0.00    +0.000 NA
ATOM     34  C   UNL     1       4.947   2.949  11.654  0.00  0.00    +0.000 C 
ATOM     35  C   UNL     1       5.562   1.564  11.398  0.00  0.00    +0.000 C 
ATOM     36  O   UNL     1       6.839   1.685  10.758  0.00  0.00    +0.000 OA
ATOM     37  C   UNL     1       7.736   2.488  11.536  0.00  0.00    +0.000 C 
ATOM     38  C   UNL     1       7.136   3.871  11.862  0.00  0.00    +0.000 C 
ENDBRANCH  32  33
ENDBRANCH  31  32
ENDBRANCH  29  31
ENDBRANCH  23  27
ENDBRANCH   3  21
TORSDOF 9
ENDMDL
MODEL 2
REMARK VINA RESULT:      -6.9      2.355      3.001
REMARK  Name = 
REMARK  11 active torsions:
REMARK  status: ('A' for Active; 'I' for Inactive)
REMARK    1  A    between atoms: C_1  and  O_2
REMARK    2  A    between atoms: O_2  and  C_3
REMARK    3  A    between atoms: C_7  and  C_8
REMARK    4  A    between atoms: C_9  and  C_10
REMARK    5  A    between atoms: C_13  and  C_14
REMARK    6  A    between atoms: N_16  and  C_17
REMARK    7  A    between atoms: C_19  and  C_20
REMARK    8  A    between atoms: N_22  and  C_23
REMARK    9  A    between atoms: C_23  and  C_24
REMARK   10  A    between atoms: C_24  and  N_25
REMARK   11  A    between atoms: N_31  and  C_32
REMARK                            x       y       z     vdW  Elec       q    Type
REMARK                         _______ _______ _______ _____ _____    ______ ____
ROOT
ATOM      1  C   UNL     1       1.238   8.256  20.326  0.00  0.00    +0.000 C 
ATOM      2  O   UNL     1       1.882   8.469  19.301  0.00  0.00    +0.000 OA
ATOM      3  N   UNL     1       1.186   7.066  21.029  0.00  0.00    +0.000 N 
ATOM      4  H   UNL     1       0.492   6.939  21.756  0.00  0.00    +0.000 HD
ENDROOT
BRANCH   1   8
ATOM      5  C   UNL     1      -1.088  11.594  21.671  0.00  0.00    +0.000 A 
ATOM      6  C   UNL     1      -0.975  11.292  20.311  0.00  0.00    +0.000 A 
ATOM      7  C   UNL     1      -0.239  10.182  19.892  0.00  0.00    +0.000 A 
ATOM      8  C   UNL     1       0.390   9.358  20.832  0.00  0.00    +0.000 A 
ATOM      9  C   UNL     1       0.287   9.648  22.193  0.00  0.00    +0.000 A 
ATOM     10  C   UNL     1      -0.443  10.766  22.606  0.00  0.00    +0.000 A 
BRANCH   5  12
ATOM     11  C   UNL     1      -2.767  12.848  23.008  0.00  0.00    +0.000 C 
ATOM     12  C   UNL     1      -1.813  12.813  22.064  0.00  0.00    +0.000 C 
BRANCH  11  17
ATOM     13  C   UNL     1      -5.300  15.676  23.137  0.00  0.00    +0.000 A 
ATOM     14  C   UNL     1      -4.902  16.312  24.311  0.00  0.00    +0.000 A 
ATOM     15  C   UNL     1      -3.821  15.826  25.043  0.00  0.00    +0.000 A 
ATOM     16  C   UNL     1      -3.125  14.703  24.599  0.00  0.00    +0.000 A 
ATOM     17  C   UNL     1      -3.500  14.057  23.415  0.00  0.00    +0.000 A 
ATOM     18  C   UNL     1      -4.602  14.546  22.697  0.00  0.00    +0.000 A 
BRANCH  13  20
ATOM     19  C   UNL     1      -7.507  16.529  23.331  0.00  0.00    +0.000 C 
ATOM     20  O   UNL     1      -6.379  16.244  22.514  0.00  0.00    +0.000 OA
ENDBRANCH  13  20
ENDBRANCH  11  17
ENDBRANCH   5  12
ENDBRANCH   1   8
BRANCH   3  21
ATOM     21  C   UNL     1       1.888   5.945  20.634  0.00  0.00    +0.000 A 
ATOM     22  C   UNL     1       3.232   5.847  20.216  0.00  0.00    +0.000 A 
ATOM     23  C   UNL     1       3.514   4.538  19.836  0.00  0.00    +0.000 A 
ATOM     24  N   UNL     1       2.314   3.858  19.984  0.00  0.00    +0.000 N 
ATOM     25  C   UNL     1       1.978   2.518  19.554  0.00  0.00    +0.000 C 
ATOM     26  C   UNL     1       1.367   4.679  20.570  0.00  0.00    +0.000 A 
BRANCH  23  27
ATOM     27  C   UNL     1       4.788   3.994  19.375  0.00  0.00    +0.000 C 
ATOM     28  O   UNL     1       4.974   2.809  19.116  0.00  0.00    +0.000 OA
ATOM     29  N   UNL     1       5.809   4.924  19.272  0.00  0.00    +0.000 N 
ATOM     30  H   UNL     1       5.572   5.902  19.330  0.00  0.00    +0.000 HD
BRANCH  29  31
ATOM     31  C   UNL     1       7.142   4.592  18.791  0.00  0.00    +0.000 C 
BRANCH  31  32
ATOM     32  C   UNL     1       7.128   4.236  17.286  0.00  0.00    +0.000 C 
BRANCH  32  33
ATOM     33  N   UNL     1       7.572   5.311  16.374  0.00  0.00    +0.000 NA
ATOM     34  C   UNL     1       7.058   6.649  16.745  0.00  0.00    +0.000 C 
ATOM     35  C   UNL     1       5.542   6.797  16.541  0.00  0.00    +0.000 C 
ATOM     36  O   UNL     1       5.187   6.558  15.173  0.00  0.00    +0.000 OA
ATOM     37  C   UNL     1       5.619   5.259  14.745  0.00  0.00    +0.000 C 
ATOM     38  C   UNL     1       7.128   5.047  14.981  0.00  0.00    +0.000 C 
ENDBRANCH  32  33
ENDBRANCH  31  32
ENDBRANCH  29  31
ENDBRANCH  23  27
ENDBRANCH   3  21
TORSDOF 9
ENDMDL
MODEL 3
REMARK VINA RESULT:      -6.9      2.540      3.453
REMARK  Name = 
REMARK  11 active torsions:
REMARK  status: ('A' for Active; 'I' for Inactive)
REMARK    1  A    between atoms: C_1  and  O_2
REMARK    2  A    between atoms: O_2  and  C_3
REMARK    3  A    between atoms: C_7  and  C_8
REMARK    4  A    between atoms: C_9  and  C_10
REMARK    5  A    between atoms: C_13  and  C_14
REMARK    6  A    between atoms: N_16  and  C_17
REMARK    7  A    between atoms: C_19  and  C_20
REMARK    8  A    between atoms: N_22  and  C_23
REMARK    9  A    between atoms: C_23  and  C_24
REMARK   10  A    between atoms: C_24  and  N_25
REMARK   11  A    between atoms: N_31  and  C_32
REMARK                            x       y       z     vdW  Elec       q    Type
REMARK                         _______ _______ _______ _____ _____    ______ ____
ROOT
ATOM      1  C   UNL     1       1.349   7.980  20.664  0.00  0.00    +0.000 C 
ATOM      2  O   UNL     1       2.204   8.245  19.821  0.00  0.00    +0.000 OA
ATOM      3  N   UNL     1       0.991   6.716  21.098  0.00  0.00    +0.000 N 
ATOM      4  H   UNL     1       0.158   6.594  21.662  0.00  0.00    +0.000 HD
ENDROOT
BRANCH   1   8
ATOM      5  C   UNL     1      -1.011  11.111  22.391  0.00  0.00    +0.000 A 
ATOM      6  C   UNL     1      -0.485  10.084  23.179  0.00  0.00    +0.000 A 
ATOM      7  C   UNL     1       0.309   9.089  22.605  0.00  0.00    +0.000 A 
ATOM      8  C   UNL     1       0.588   9.114  21.234  0.00  0.00    +0.000 A 
ATOM      9  C   UNL     1       0.069  10.132  20.435  0.00  0.00    +0.000 A 
ATOM     10  C   UNL     1      -0.733  11.121  21.013  0.00  0.00    +0.000 A 
BRANCH   5  12
ATOM     11  C   UNL     1      -2.766  12.870  22.350  0.00  0.00    +0.000 C 
ATOM     12  C   UNL     1      -1.900  12.099  23.024  0.00  0.00    +0.000 C 
BRANCH  11  17
ATOM     13  C   UNL     1      -4.178  16.119  23.721  0.00  0.00    +0.000 A 
ATOM     14  C   UNL     1      -5.467  15.708  24.056  0.00  0.00    +0.000 A 
ATOM     15  C   UNL     1      -5.862  14.389  23.842  0.00  0.00    +0.000 A 
ATOM     16  C   UNL     1      -4.967  13.471  23.297  0.00  0.00    +0.000 A 
ATOM     17  C   UNL     1      -3.663  13.861  22.965  0.00  0.00    +0.000 A 
ATOM     18  C   UNL     1      -3.284  15.196  23.169  0.00  0.00    +0.000 A 
BRANCH  13  20
ATOM     19  C   UNL     1      -2.616  17.905  23.623  0.00  0.00    +0.000 C 
ATOM     20  O   UNL     1      -3.914  17.439  23.973  0.00  0.00    +0.000 OA
ENDBRANCH  13  20
ENDBRANCH  11  17
ENDBRANCH   5  12
ENDBRANCH   1   8
BRANCH   3  21
ATOM     21  C   UNL     1       1.586   5.572  20.608  0.00  0.00    +0.000 A 
ATOM     22  C   UNL     1       2.904   5.395  20.134  0.00  0.00    +0.000 A 
ATOM     23  C   UNL     1       3.066   4.096  19.664  0.00  0.00    +0.000 A 
ATOM     24  N   UNL     1       1.821   3.505  19.814  0.00  0.00    +0.000 N 
ATOM     25  C   UNL     1       1.364   2.225  19.314  0.00  0.00    +0.000 C 
ATOM     26  C   UNL     1       0.964   4.357  20.485  0.00  0.00    +0.000 A 
BRANCH  23  27
ATOM     27  C   UNL     1       4.277   3.485  19.122  0.00  0.00    +0.000 C 
ATOM     28  O   UNL     1       4.938   2.634  19.710  0.00  0.00    +0.000 OA
ATOM     29  N   UNL     1       4.656   3.959  17.877  0.00  0.00    +0.000 N 
ATOM     30  H   UNL     1       4.000   4.526  17.362  0.00  0.00    +0.000 HD
BRANCH  29  31
ATOM     31  C   UNL     1       5.808   3.449  17.149  0.00  0.00    +0.000 C 
BRANCH  31  32
ATOM     32  C   UNL     1       7.096   4.225  17.508  0.00  0.00    +0.000 C 
BRANCH  32  33
ATOM     33  N   UNL     1       7.592   5.151  16.468  0.00  0.00    +0.000 NA
ATOM     34  C   UNL     1       7.474   6.578  16.844  0.00  0.00    +0.000 C 
ATOM     35  C   UNL     1       6.020   7.073  16.907  0.00  0.00    +0.000 C 
ATOM     36  O   UNL     1       5.369   6.900  15.642  0.00  0.00    +0.000 OA
ATOM     37  C   UNL     1       5.407   5.530  15.222  0.00  0.00    +0.000 C 
ATOM     38  C   UNL     1       6.845   4.975  15.196  0.00  0.00    +0.000 C 
ENDBRANCH  32  33
ENDBRANCH  31  32
ENDBRANCH  29  31
ENDBRANCH  23  27
ENDBRANCH   3  21
TORSDOF 9
ENDMDL
MODEL 4
REMARK VINA RESULT:      -6.8      4.710     14.316
REMARK  Name = 
REMARK  11 active torsions:
REMARK  status: ('A' for Active; 'I' for Inactive)
REMARK    1  A    between atoms: C_1  and  O_2
REMARK    2  A    between atoms: O_2  and  C_3
REMARK    3  A    between atoms: C_7  and  C_8
REMARK    4  A    between atoms: C_9  and  C_10
REMARK    5  A    between atoms: C_13  and  C_14
REMARK    6  A    between atoms: N_16  and  C_17
REMARK    7  A    between atoms: C_19  and  C_20
REMARK    8  A    between atoms: N_22  and  C_23
REMARK    9  A    between atoms: C_23  and  C_24
REMARK   10  A    between atoms: C_24  and  N_25
REMARK   11  A    between atoms: N_31  and  C_32
REMARK                            x       y       z     vdW  Elec       q    Type
REMARK                         _______ _______ _______ _____ _____    ______ ____
ROOT
ATOM      1  C   UNL     1      -0.872  11.541  21.737  0.00  0.00    +0.000 C 
ATOM      2  O   UNL     1      -1.088  11.116  22.870  0.00  0.00    +0.000 OA
ATOM      3  N   UNL     1      -1.269  12.766  21.232  0.00  0.00    +0.000 N 
ATOM      4  H   UNL     1      -1.197  12.949  20.239  0.00  0.00    +0.000 HD
ENDROOT
BRANCH   1   8
ATOM      5  C   UNL     1       1.366   8.975  19.137  0.00  0.00    +0.000 A 
ATOM      6  C   UNL     1       1.319   8.745  20.515  0.00  0.00    +0.000 A 
ATOM      7  C   UNL     1       0.559   9.572  21.344  0.00  0.00    +0.000 A 
ATOM      8  C   UNL     1      -0.166  10.639  20.800  0.00  0.00    +0.000 A 
ATOM      9  C   UNL     1      -0.129  10.881  19.427  0.00  0.00    +0.000 A 
ATOM     10  C   UNL     1       0.642  10.054  18.603  0.00  0.00    +0.000 A 
BRANCH   5  12
ATOM     11  C   UNL     1       2.467   6.823  18.556  0.00  0.00    +0.000 C 
ATOM     12  C   UNL     1       2.235   8.121  18.310  0.00  0.00    +0.000 C 
BRANCH  11  17
ATOM     13  C   UNL     1       5.225   5.595  16.251  0.00  0.00    +0.000 A 
ATOM     14  C   UNL     1       4.987   4.222  16.289  0.00  0.00    +0.000 A 
ATOM     15  C   UNL     1       3.939   3.711  17.051  0.00  0.00    +0.000 A 
ATOM     16  C   UNL     1       3.116   4.572  17.775  0.00  0.00    +0.000 A 
ATOM     17  C   UNL     1       3.330   5.955  17.741  0.00  0.00    +0.000 A 
ATOM     18  C   UNL     1       4.401   6.455  16.983  0.00  0.00    +0.000 A 
BRANCH  13  20
ATOM     19  C   UNL     1       7.035   4.924  14.868  0.00  0.00    +0.000 C 
ATOM     20  O   UNL     1       6.286   5.972  15.472  0.00  0.00    +0.000 OA
ENDBRANCH  13  20
ENDBRANCH  11  17
ENDBRANCH   5  12
ENDBRANCH   1   8
BRANCH   3  21
ATOM     21  C   UNL     1      -1.980  13.679  21.985  0.00  0.00    +0.000 A 
ATOM     22  C   UNL     1      -3.365  13.945  21.973  0.00  0.00    +0.000 A 
ATOM     23  C   UNL     1      -3.651  14.996  22.838  0.00  0.00    +0.000 A 
ATOM     24  N   UNL     1      -2.419  15.393  23.336  0.00  0.00    +0.000 N 
ATOM     25  C   UNL     1      -2.101  16.562  24.128  0.00  0.00    +0.000 C 
ATOM     26  C   UNL     1      -1.429  14.528  22.908  0.00  0.00    +0.000 A 
BRANCH  23  27
ATOM     27  C   UNL     1      -4.958  15.567  23.153  0.00  0.00    +0.000 C 
ATOM     28  O   UNL     1      -5.307  15.901  24.281  0.00  0.00    +0.000 OA
ATOM     29  N   UNL     1      -5.812  15.686  22.069  0.00  0.00    +0.000 N 
ATOM     30  H   UNL     1      -5.430  15.562  21.144  0.00  0.00    +0.000 HD
BRANCH  29  31
ATOM     31  C   UNL     1      -7.142  16.271  22.165  0.00  0.00    +0.000 C 
BRANCH  31  32
ATOM     32  C   UNL     1      -7.616  16.825  20.801  0.00  0.00    +0.000 C 
BRANCH  32  33
ATOM     33  N   UNL     1      -6.579  16.907  19.752  0.00  0.00    +0.000 NA
ATOM     34  C   UNL     1      -6.678  18.128  18.919  0.00  0.00    +0.000 C 
ATOM     35  C   UNL     1      -7.916  18.147  18.010  0.00  0.00    +0.000 C 
ATOM     36  O   UNL     1      -7.916  17.016  17.128  0.00  0.00    +0.000 OA
ATOM     37  C   UNL     1      -7.860  15.786  17.862  0.00  0.00    +0.000 C 
ATOM     38  C   UNL     1      -6.659  15.746  18.829  0.00  0.00    +0.000 C 
ENDBRANCH  32  33
ENDBRANCH  31  32
ENDBRANCH  29  31
ENDBRANCH  23  27
ENDBRANCH   3  21
TORSDOF 9
ENDMDL
MODEL 5
REMARK VINA RESULT:      -6.7      1.371      1.650
REMARK  Name = 
REMARK  11 active torsions:
REMARK  status: ('A' for Active; 'I' for Inactive)
REMARK    1  A    between atoms: C_1  and  O_2
REMARK    2  A    between atoms: O_2  and  C_3
REMARK    3  A    between atoms: C_7  and  C_8
REMARK    4  A    between atoms: C_9  and  C_10
REMARK    5  A    between atoms: C_13  and  C_14
REMARK    6  A    between atoms: N_16  and  C_17
REMARK    7  A    between atoms: C_19  and  C_20
REMARK    8  A    between atoms: N_22  and  C_23
REMARK    9  A    between atoms: C_23  and  C_24
REMARK   10  A    between atoms: C_24  and  N_25
REMARK   11  A    between atoms: N_31  and  C_32
REMARK                            x       y       z     vdW  Elec       q    Type
REMARK                         _______ _______ _______ _____ _____    ______ ____
ROOT
ATOM      1  C   UNL     1       1.440   8.172  20.117  0.00  0.00    +0.000 C 
ATOM      2  O   UNL     1       2.015   8.446  19.065  0.00  0.00    +0.000 OA
ATOM      3  N   UNL     1       1.460   6.951  20.766  0.00  0.00    +0.000 N 
ATOM      4  H   UNL     1       0.815   6.774  21.527  0.00  0.00    +0.000 HD
ENDROOT
BRANCH   1   8
ATOM      5  C   UNL     1      -0.880  11.384  21.744  0.00  0.00    +0.000 A 
ATOM      6  C   UNL     1      -0.876  11.118  20.372  0.00  0.00    +0.000 A 
ATOM      7  C   UNL     1      -0.140  10.047  19.862  0.00  0.00    +0.000 A 
ATOM      8  C   UNL     1       0.600   9.228  20.723  0.00  0.00    +0.000 A 
ATOM      9  C   UNL     1       0.607   9.483  22.094  0.00  0.00    +0.000 A 
ATOM     10  C   UNL     1      -0.126  10.562  22.598  0.00  0.00    +0.000 A 
BRANCH   5  12
ATOM     11  C   UNL     1      -1.477  13.079  23.461  0.00  0.00    +0.000 C 
ATOM     12  C   UNL     1      -1.614  12.566  22.229  0.00  0.00    +0.000 C 
BRANCH  11  17
ATOM     13  C   UNL     1      -4.212  15.613  24.188  0.00  0.00    +0.000 A 
ATOM     14  C   UNL     1      -3.528  16.481  25.038  0.00  0.00    +0.000 A 
ATOM     15  C   UNL     1      -2.194  16.241  25.361  0.00  0.00    +0.000 A 
ATOM     16  C   UNL     1      -1.533  15.135  24.829  0.00  0.00    +0.000 A 
ATOM     17  C   UNL     1      -2.199  14.259  23.963  0.00  0.00    +0.000 A 
ATOM     18  C   UNL     1      -3.547  14.502  23.660  0.00  0.00    +0.000 A 
BRANCH  13  20
ATOM     19  C   UNL     1      -5.960  15.880  22.603  0.00  0.00    +0.000 C 
ATOM     20  O   UNL     1      -5.518  15.952  23.953  0.00  0.00    +0.000 OA
ENDBRANCH  13  20
ENDBRANCH  11  17
ENDBRANCH   5  12
ENDBRANCH   1   8
BRANCH   3  21
ATOM     21  C   UNL     1       2.162   5.867  20.279  0.00  0.00    +0.000 A 
ATOM     22  C   UNL     1       3.496   5.812  19.822  0.00  0.00    +0.000 A 
ATOM     23  C   UNL     1       3.780   4.535  19.348  0.00  0.00    +0.000 A 
ATOM     24  N   UNL     1       2.591   3.834  19.479  0.00  0.00    +0.000 N 
ATOM     25  C   UNL     1       2.258   2.522  18.968  0.00  0.00    +0.000 C 
ATOM     26  C   UNL     1       1.652   4.602  20.142  0.00  0.00    +0.000 A 
BRANCH  23  27
ATOM     27  C   UNL     1       5.048   4.038  18.820  0.00  0.00    +0.000 C 
ATOM     28  O   UNL     1       5.576   2.989  19.179  0.00  0.00    +0.000 OA
ATOM     29  N   UNL     1       5.645   4.862  17.881  0.00  0.00    +0.000 N 
ATOM     30  H   UNL     1       5.102   5.618  17.495  0.00  0.00    +0.000 HD
BRANCH  29  31
ATOM     31  C   UNL     1       6.889   4.525  17.205  0.00  0.00    +0.000 C 
BRANCH  31  32
ATOM     32  C   UNL     1       6.627   3.910  15.810  0.00  0.00    +0.000 C 
BRANCH  32  33
ATOM     33  N   UNL     1       5.969   4.803  14.834  0.00  0.00    +0.000 NA
ATOM     34  C   UNL     1       5.237   4.077  13.770  0.00  0.00    +0.000 C 
ATOM     35  C   UNL     1       6.161   3.326  12.799  0.00  0.00    +0.000 C 
ATOM     36  O   UNL     1       7.072   4.232  12.161  0.00  0.00    +0.000 OA
ATOM     37  C   UNL     1       7.850   4.951  13.127  0.00  0.00    +0.000 C 
ATOM     38  C   UNL     1       6.961   5.678  14.157  0.00  0.00    +0.000 C 
ENDBRANCH  32  33
ENDBRANCH  31  32
ENDBRANCH  29  31
ENDBRANCH  23  27
ENDBRANCH   3  21
TORSDOF 9
ENDMDL
MODEL 6
REMARK VINA RESULT:      -6.6      4.114     14.741
REMARK  Name = 
REMARK  11 active torsions:
REMARK  status: ('A' for Active; 'I' for Inactive)
REMARK    1  A    between atoms: C_1  and  O_2
REMARK    2  A    between atoms: O_2  and  C_3
REMARK    3  A    between atoms: C_7  and  C_8
REMARK    4  A    between atoms: C_9  and  C_10
REMARK    5  A    between atoms: C_13  and  C_14
REMARK    6  A    between atoms: N_16  and  C_17
REMARK    7  A    between atoms: C_19  and  C_20
REMARK    8  A    between atoms: N_22  and  C_23
REMARK    9  A    between atoms: C_23  and  C_24
REMARK   10  A    between atoms: C_24  and  N_25
REMARK   11  A    between atoms: N_31  and  C_32
REMARK                            x       y       z     vdW  Elec       q    Type
REMARK                         _______ _______ _______ _____ _____    ______ ____
ROOT
ATOM      1  C   UNL     1      -0.004  10.856  20.389  0.00  0.00    +0.000 C 
ATOM      2  O   UNL     1      -0.103  10.910  21.614  0.00  0.00    +0.000 OA
ATOM      3  N   UNL     1      -0.690  11.639  19.478  0.00  0.00    +0.000 N 
ATOM      4  H   UNL     1      -0.672  11.399  18.494  0.00  0.00    +0.000 HD
ENDROOT
BRANCH   1   8
ATOM      5  C   UNL     1       2.440   7.833  18.589  0.00  0.00    +0.000 A 
ATOM      6  C   UNL     1       2.141   9.019  17.912  0.00  0.00    +0.000 A 
ATOM      7  C   UNL     1       1.370  10.008  18.526  0.00  0.00    +0.000 A 
ATOM      8  C   UNL     1       0.891   9.820  19.828  0.00  0.00    +0.000 A 
ATOM      9  C   UNL     1       1.180   8.641  20.515  0.00  0.00    +0.000 A 
ATOM     10  C   UNL     1       1.945   7.651  19.892  0.00  0.00    +0.000 A 
BRANCH   5  12
ATOM     11  C   UNL     1       4.484   6.907  17.520  0.00  0.00    +0.000 C 
ATOM     12  C   UNL     1       3.197   6.789  17.878  0.00  0.00    +0.000 C 
BRANCH  11  17
ATOM     13  C   UNL     1       5.671   4.443  14.884  0.00  0.00    +0.000 A 
ATOM     14  C   UNL     1       6.835   3.974  15.489  0.00  0.00    +0.000 A 
ATOM     15  C   UNL     1       7.220   4.452  16.740  0.00  0.00    +0.000 A 
ATOM     16  C   UNL     1       6.436   5.400  17.397  0.00  0.00    +0.000 A 
ATOM     17  C   UNL     1       5.256   5.875  16.812  0.00  0.00    +0.000 A 
ATOM     18  C   UNL     1       4.890   5.397  15.544  0.00  0.00    +0.000 A 
BRANCH  13  20
ATOM     19  C   UNL     1       6.501   3.803  12.753  0.00  0.00    +0.000 C 
ATOM     20  O   UNL     1       5.405   3.901  13.655  0.00  0.00    +0.000 OA
ENDBRANCH  13  20
ENDBRANCH  11  17
ENDBRANCH   5  12
ENDBRANCH   1   8
BRANCH   3  21
ATOM     21  C   UNL     1      -1.594  12.606  19.869  0.00  0.00    +0.000 A 
ATOM     22  C   UNL     1      -1.348  13.942  20.250  0.00  0.00    +0.000 A 
ATOM     23  C   UNL     1      -2.538  14.548  20.640  0.00  0.00    +0.000 A 
ATOM     24  N   UNL     1      -3.497  13.551  20.535  0.00  0.00    +0.000 N 
ATOM     25  C   UNL     1      -4.869  13.569  20.994  0.00  0.00    +0.000 C 
ATOM     26  C   UNL     1      -2.948  12.417  19.965  0.00  0.00    +0.000 A 
BRANCH  23  27
ATOM     27  C   UNL     1      -2.740  15.929  21.072  0.00  0.00    +0.000 C 
ATOM     28  O   UNL     1      -2.964  16.861  20.306  0.00  0.00    +0.000 OA
ATOM     29  N   UNL     1      -2.634  16.127  22.438  0.00  0.00    +0.000 N 
ATOM     30  H   UNL     1      -2.620  15.317  23.039  0.00  0.00    +0.000 HD
BRANCH  29  31
ATOM     31  C   UNL     1      -2.844  17.420  23.073  0.00  0.00    +0.000 C 
BRANCH  31  32
ATOM     32  C   UNL     1      -4.331  17.841  23.021  0.00  0.00    +0.000 C 
BRANCH  32  33
ATOM     33  N   UNL     1      -5.131  17.502  24.216  0.00  0.00    +0.000 NA
ATOM     34  C   UNL     1      -5.733  16.149  24.158  0.00  0.00    +0.000 C 
ATOM     35  C   UNL     1      -6.843  16.022  23.103  0.00  0.00    +0.000 C 
ATOM     36  O   UNL     1      -7.898  16.958  23.359  0.00  0.00    +0.000 OA
ATOM     37  C   UNL     1      -7.402  18.302  23.394  0.00  0.00    +0.000 C 
ATOM     38  C   UNL     1      -6.247  18.465  24.403  0.00  0.00    +0.000 C 
ENDBRANCH  32  33
ENDBRANCH  31  32
ENDBRANCH  29  31
ENDBRANCH  23  27
ENDBRANCH   3  21
TORSDOF 9
ENDMDL
MODEL 7
REMARK VINA RESULT:      -6.4      5.104     13.691
REMARK  Name = 
REMARK  11 active torsions:
REMARK  status: ('A' for Active; 'I' for Inactive)
REMARK    1  A    between atoms: C_1  and  O_2
REMARK    2  A    between atoms: O_2  and  C_3
REMARK    3  A    between atoms: C_7  and  C_8
REMARK    4  A    between atoms: C_9  and  C_10
REMARK    5  A    between atoms: C_13  and  C_14
REMARK    6  A    between atoms: N_16  and  C_17
REMARK    7  A    between atoms: C_19  and  C_20
REMARK    8  A    between atoms: N_22  and  C_23
REMARK    9  A    between atoms: C_23  and  C_24
REMARK   10  A    between atoms: C_24  and  N_25
REMARK   11  A    between atoms: N_31  and  C_32
REMARK                            x       y       z     vdW  Elec       q    Type
REMARK                         _______ _______ _______ _____ _____    ______ ____
ROOT
ATOM      1  C   UNL     1       0.377  11.871  19.319  0.00  0.00    +0.000 C 
ATOM      2  O   UNL     1      -0.848  11.894  19.422  0.00  0.00    +0.000 OA
ATOM      3  N   UNL     1       1.214  12.969  19.248  0.00  0.00    +0.000 N 
ATOM      4  H   UNL     1       2.185  12.847  18.988  0.00  0.00    +0.000 HD
ENDROOT
BRANCH   1   8
ATOM      5  C   UNL     1       2.106   7.985  18.804  0.00  0.00    +0.000 A 
ATOM      6  C   UNL     1       2.185   8.951  17.797  0.00  0.00    +0.000 A 
ATOM      7  C   UNL     1       1.645  10.223  17.994  0.00  0.00    +0.000 A 
ATOM      8  C   UNL     1       1.020  10.543  19.205  0.00  0.00    +0.000 A 
ATOM      9  C   UNL     1       0.932   9.589  20.219  0.00  0.00    +0.000 A 
ATOM     10  C   UNL     1       1.467   8.314  20.012  0.00  0.00    +0.000 A 
BRANCH   5  12
ATOM     11  C   UNL     1       2.201   5.525  19.150  0.00  0.00    +0.000 C 
ATOM     12  C   UNL     1       2.627   6.635  18.528  0.00  0.00    +0.000 C 
BRANCH  11  17
ATOM     13  C   UNL     1       4.158   2.278  19.396  0.00  0.00    +0.000 A 
ATOM     14  C   UNL     1       3.549   1.545  18.378  0.00  0.00    +0.000 A 
ATOM     15  C   UNL     1       2.522   2.106  17.624  0.00  0.00    +0.000 A 
ATOM     16  C   UNL     1       2.101   3.411  17.877  0.00  0.00    +0.000 A 
ATOM     17  C   UNL     1       2.707   4.169  18.886  0.00  0.00    +0.000 A 
ATOM     18  C   UNL     1       3.729   3.585  19.650  0.00  0.00    +0.000 A 
BRANCH  13  20
ATOM     19  C   UNL     1       4.928   1.378  21.453  0.00  0.00    +0.000 C 
ATOM     20  O   UNL     1       5.148   1.614  20.068  0.00  0.00    +0.000 OA
ENDBRANCH  13  20
ENDBRANCH  11  17
ENDBRANCH   5  12
ENDBRANCH   1   8
BRANCH   3  21
ATOM     21  C   UNL     1       0.738  14.264  19.290  0.00  0.00    +0.000 A 
ATOM     22  C   UNL     1      -0.480  14.740  19.820  0.00  0.00    +0.000 A 
ATOM     23  C   UNL     1      -0.594  16.107  19.588  0.00  0.00    +0.000 A 
ATOM     24  N   UNL     1       0.545  16.442  18.872  0.00  0.00    +0.000 N 
ATOM     25  C   UNL     1       0.855  17.688  18.204  0.00  0.00    +0.000 C 
ATOM     26  C   UNL     1       1.397  15.357  18.791  0.00  0.00    +0.000 A 
BRANCH  23  27
ATOM     27  C   UNL     1      -1.676  16.998  19.999  0.00  0.00    +0.000 C 
ATOM     28  O   UNL     1      -1.499  18.103  20.503  0.00  0.00    +0.000 OA
ATOM     29  N   UNL     1      -2.949  16.490  19.803  0.00  0.00    +0.000 N 
ATOM     30  H   UNL     1      -3.050  15.661  19.237  0.00  0.00    +0.000 HD
BRANCH  29  31
ATOM     31  C   UNL     1      -4.160  17.238  20.106  0.00  0.00    +0.000 C 
BRANCH  31  32
ATOM     32  C   UNL     1      -5.422  16.357  19.957  0.00  0.00    +0.000 C 
BRANCH  32  33
ATOM     33  N   UNL     1      -5.297  14.974  20.462  0.00  0.00    +0.000 NA
ATOM     34  C   UNL     1      -6.305  14.047  19.897  0.00  0.00    +0.000 C 
ATOM     35  C   UNL     1      -7.734  14.333  20.382  0.00  0.00    +0.000 C 
ATOM     36  O   UNL     1      -7.813  14.245  21.811  0.00  0.00    +0.000 OA
ATOM     37  C   UNL     1      -6.890  15.145  22.437  0.00  0.00    +0.000 C 
ATOM     38  C   UNL     1      -5.446  14.929  21.939  0.00  0.00    +0.000 C 
ENDBRANCH  32  33
ENDBRANCH  31  32
ENDBRANCH  29  31
ENDBRANCH  23  27
ENDBRANCH   3  21
TORSDOF 9
ENDMDL
MODEL 8
REMARK VINA RESULT:      -6.4      4.852     14.294
REMARK  Name = 
REMARK  11 active torsions:
REMARK  status: ('A' for Active; 'I' for Inactive)
REMARK    1  A    between atoms: C_1  and  O_2
REMARK    2  A    between atoms: O_2  and  C_3
REMARK    3  A    between atoms: C_7  and  C_8
REMARK    4  A    between atoms: C_9  and  C_10
REMARK    5  A    between atoms: C_13  and  C_14
REMARK    6  A    between atoms: N_16  and  C_17
REMARK    7  A    between atoms: C_19  and  C_20
REMARK    8  A    between atoms: N_22  and  C_23
REMARK    9  A    between atoms: C_23  and  C_24
REMARK   10  A    between atoms: C_24  and  N_25
REMARK   11  A    between atoms: N_31  and  C_32
REMARK                            x       y       z     vdW  Elec       q    Type
REMARK                         _______ _______ _______ _____ _____    ______ ____
ROOT
ATOM      1  C   UNL     1      -0.111  12.856  20.481  0.00  0.00    +0.000 C 
ATOM      2  O   UNL     1      -0.243  13.946  19.928  0.00  0.00    +0.000 OA
ATOM      3  N   UNL     1      -0.416  12.563  21.798  0.00  0.00    +0.000 N 
ATOM      4  H   UNL     1      -0.108  11.688  22.204  0.00  0.00    +0.000 HD
ENDROOT
BRANCH   1   8
ATOM      5  C   UNL     1       1.689   9.597  18.361  0.00  0.00    +0.000 A 
ATOM      6  C   UNL     1       0.739   9.372  19.361  0.00  0.00    +0.000 A 
ATOM      7  C   UNL     1       0.138  10.447  20.020  0.00  0.00    +0.000 A 
ATOM      8  C   UNL     1       0.481  11.761  19.681  0.00  0.00    +0.000 A 
ATOM      9  C   UNL     1       1.429  12.001  18.687  0.00  0.00    +0.000 A 
ATOM     10  C   UNL     1       2.034  10.920  18.037  0.00  0.00    +0.000 A 
BRANCH   5  12
ATOM     11  C   UNL     1       2.755   7.352  18.423  0.00  0.00    +0.000 C 
ATOM     12  C   UNL     1       2.349   8.435  17.742  0.00  0.00    +0.000 C 
BRANCH  11  17
ATOM     13  C   UNL     1       5.327   5.088  16.783  0.00  0.00    +0.000 A 
ATOM     14  C   UNL     1       4.629   3.882  16.779  0.00  0.00    +0.000 A 
ATOM     15  C   UNL     1       3.338   3.814  17.299  0.00  0.00    +0.000 A 
ATOM     16  C   UNL     1       2.734   4.957  17.820  0.00  0.00    +0.000 A 
ATOM     17  C   UNL     1       3.413   6.182  17.822  0.00  0.00    +0.000 A 
ATOM     18  C   UNL     1       4.719   6.232  17.311  0.00  0.00    +0.000 A 
BRANCH  13  20
ATOM     19  C   UNL     1       6.686   4.574  14.905  0.00  0.00    +0.000 C 
ATOM     20  O   UNL     1       6.587   5.023  16.251  0.00  0.00    +0.000 OA
ENDBRANCH  13  20
ENDBRANCH  11  17
ENDBRANCH   5  12
ENDBRANCH   1   8
BRANCH   3  21
ATOM     21  C   UNL     1      -0.926  13.508  22.665  0.00  0.00    +0.000 A 
ATOM     22  C   UNL     1      -0.321  14.694  23.133  0.00  0.00    +0.000 A 
ATOM     23  C   UNL     1      -1.157  15.319  24.052  0.00  0.00    +0.000 A 
ATOM     24  N   UNL     1      -2.252  14.475  24.170  0.00  0.00    +0.000 N 
ATOM     25  C   UNL     1      -3.337  14.534  25.126  0.00  0.00    +0.000 C 
ATOM     26  C   UNL     1      -2.162  13.445  23.252  0.00  0.00    +0.000 A 
BRANCH  23  27
ATOM     27  C   UNL     1      -0.936  16.583  24.750  0.00  0.00    +0.000 C 
ATOM     28  O   UNL     1      -1.191  17.684  24.272  0.00  0.00    +0.000 OA
ATOM     29  N   UNL     1      -0.378  16.456  26.012  0.00  0.00    +0.000 N 
ATOM     30  H   UNL     1      -0.344  15.538  26.428  0.00  0.00    +0.000 HD
BRANCH  29  31
ATOM     31  C   UNL     1      -0.120  17.590  26.885  0.00  0.00    +0.000 C 
BRANCH  31  32
ATOM     32  C   UNL     1       1.379  17.970  26.891  0.00  0.00    +0.000 C 
BRANCH  32  33
ATOM     33  N   UNL     1       2.322  16.846  26.712  0.00  0.00    +0.000 NA
ATOM     34  C   UNL     1       2.860  16.319  27.987  0.00  0.00    +0.000 C 
ATOM     35  C   UNL     1       3.811  17.296  28.696  0.00  0.00    +0.000 C 
ATOM     36  O   UNL     1       4.925  17.623  27.855  0.00  0.00    +0.000 OA
ATOM     37  C   UNL     1       4.487  18.178  26.608  0.00  0.00    +0.000 C 
ATOM     38  C   UNL     1       3.487  17.252  25.884  0.00  0.00    +0.000 C 
ENDBRANCH  32  33
ENDBRANCH  31  32
ENDBRANCH  29  31
ENDBRANCH  23  27
ENDBRANCH   3  21
TORSDOF 9
ENDMDL
MODEL 9
REMARK VINA RESULT:      -6.4      2.429      3.253
REMARK  Name = 
REMARK  11 active torsions:
REMARK  status: ('A' for Active; 'I' for Inactive)
REMARK    1  A    between atoms: C_1  and  O_2
REMARK    2  A    between atoms: O_2  and  C_3
REMARK    3  A    between atoms: C_7  and  C_8
REMARK    4  A    between atoms: C_9  and  C_10
REMARK    5  A    between atoms: C_13  and  C_14
REMARK    6  A    between atoms: N_16  and  C_17
REMARK    7  A    between atoms: C_19  and  C_20
REMARK    8  A    between atoms: N_22  and  C_23
REMARK    9  A    between atoms: C_23  and  C_24
REMARK   10  A    between atoms: C_24  and  N_25
REMARK   11  A    between atoms: N_31  and  C_32
REMARK                            x       y       z     vdW  Elec       q    Type
REMARK                         _______ _______ _______ _____ _____    ______ ____
ROOT
ATOM      1  C   UNL     1       1.133   8.176  20.497  0.00  0.00    +0.000 C 
ATOM      2  O   UNL     1       1.692   8.447  19.436  0.00  0.00    +0.000 OA
ATOM      3  N   UNL     1       1.175   6.960  21.156  0.00  0.00    +0.000 N 
ATOM      4  H   UNL     1       0.542   6.783  21.926  0.00  0.00    +0.000 HD
ENDROOT
BRANCH   1   8
ATOM      5  C   UNL     1      -1.153  11.375  22.196  0.00  0.00    +0.000 A 
ATOM      6  C   UNL     1      -0.813  11.370  20.841  0.00  0.00    +0.000 A 
ATOM      7  C   UNL     1      -0.095  10.304  20.296  0.00  0.00    +0.000 A 
ATOM      8  C   UNL     1       0.288   9.227  21.104  0.00  0.00    +0.000 A 
ATOM      9  C   UNL     1      -0.043   9.218  22.459  0.00  0.00    +0.000 A 
ATOM     10  C   UNL     1      -0.755  10.294  23.001  0.00  0.00    +0.000 A 
BRANCH   5  12
ATOM     11  C   UNL     1      -1.302  13.407  23.621  0.00  0.00    +0.000 C 
ATOM     12  C   UNL     1      -1.849  12.552  22.744  0.00  0.00    +0.000 C 
BRANCH  11  17
ATOM     13  C   UNL     1      -1.965  16.721  25.354  0.00  0.00    +0.000 A 
ATOM     14  C   UNL     1      -3.333  16.854  25.120  0.00  0.00    +0.000 A 
ATOM     15  C   UNL     1      -4.024  15.873  24.412  0.00  0.00    +0.000 A 
ATOM     16  C   UNL     1      -3.351  14.747  23.941  0.00  0.00    +0.000 A 
ATOM     17  C   UNL     1      -1.981  14.588  24.176  0.00  0.00    +0.000 A 
ATOM     18  C   UNL     1      -1.293  15.592  24.874  0.00  0.00    +0.000 A 
BRANCH  13  20
ATOM     19  C   UNL     1      -0.561  17.398  27.145  0.00  0.00    +0.000 C 
ATOM     20  O   UNL     1      -1.400  17.753  26.053  0.00  0.00    +0.000 OA
ENDBRANCH  13  20
ENDBRANCH  11  17
ENDBRANCH   5  12
ENDBRANCH   1   8
BRANCH   3  21
ATOM     21  C   UNL     1       1.883   5.880  20.669  0.00  0.00    +0.000 A 
ATOM     22  C   UNL     1       3.095   5.873  19.946  0.00  0.00    +0.000 A 
ATOM     23  C   UNL     1       3.422   4.569  19.586  0.00  0.00    +0.000 A 
ATOM     24  N   UNL     1       2.371   3.796  20.058  0.00  0.00    +0.000 N 
ATOM     25  C   UNL     1       2.094   2.399  19.800  0.00  0.00    +0.000 C 
ATOM     26  C   UNL     1       1.504   4.571  20.806  0.00  0.00    +0.000 A 
BRANCH  23  27
ATOM     27  C   UNL     1       4.605   4.109  18.864  0.00  0.00    +0.000 C 
ATOM     28  O   UNL     1       5.693   3.904  19.392  0.00  0.00    +0.000 OA
ATOM     29  N   UNL     1       4.420   3.940  17.502  0.00  0.00    +0.000 N 
ATOM     30  H   UNL     1       3.478   3.955  17.142  0.00  0.00    +0.000 HD
BRANCH  29  31
ATOM     31  C   UNL     1       5.462   3.448  16.613  0.00  0.00    +0.000 C 
BRANCH  31  32
ATOM     32  C   UNL     1       5.205   3.874  15.148  0.00  0.00    +0.000 C 
BRANCH  32  33
ATOM     33  N   UNL     1       6.035   4.993  14.656  0.00  0.00    +0.000 NA
ATOM     34  C   UNL     1       7.357   5.082  15.319  0.00  0.00    +0.000 C 
ATOM     35  C   UNL     1       7.271   5.502  16.794  0.00  0.00    +0.000 C 
ATOM     36  O   UNL     1       6.631   6.778  16.924  0.00  0.00    +0.000 OA
ATOM     37  C   UNL     1       5.323   6.764  16.337  0.00  0.00    +0.000 C 
ATOM     38  C   UNL     1       5.355   6.296  14.867  0.00  0.00    +0.000 C 
ENDBRANCH  32  33
ENDBRANCH  31  32
ENDBRANCH  29  31
ENDBRANCH  23  27
ENDBRANCH   3  21
TORSDOF 9
ENDMDL
