MODEL 1
REMARK VINA RESULT:      -7.8      0.000      0.000
REMARK  Name = 
REMARK  10 active torsions:
REMARK  status: ('A' for Active; 'I' for Inactive)
REMARK    1  A    between atoms: C_1  and  C_2
REMARK    2  A    between atoms: C_2  and  C_3
REMARK    3  A    between atoms: C_2  and  C_4
REMARK    4  A    between atoms: C_4  and  C_5
REMARK    5  A    between atoms: C_5  and  N_6
REMARK    6  A    between atoms: N_6  and  C_7
REMARK    7  A    between atoms: C_7  and  C_8
REMARK    8  A    between atoms: C_8  and  O_9
REMARK    9  A    between atoms: N_13  and  C_14
REMARK   10  A    between atoms: C_14  and  C_15
REMARK                            x       y       z     vdW  Elec       q    Type
REMARK                         _______ _______ _______ _____ _____    ______ ____
ROOT
ATOM      1  C   UNL     1       6.595   5.636  16.970  0.00  0.00    +0.000 C 
ATOM      2  C   UNL     1       7.319   5.049  18.199  0.00  0.00    +0.000 C 
ATOM      3  C   UNL     1       6.665   5.480  19.510  0.00  0.00    +0.000 C 
ATOM      4  C   UNL     1       5.165   5.229  19.479  0.00  0.00    +0.000 C 
ATOM      5  N   UNL     1       4.546   5.772  18.277  0.00  0.00    +0.000 N 
ATOM      6  C   UNL     1       5.084   5.297  17.067  0.00  0.00    +0.000 C 
ATOM      7  O   UNL     1       4.402   4.779  16.192  0.00  0.00    +0.000 OA
ENDROOT
BRANCH   1   8
ATOM      8  O   UNL     1       6.738   7.074  17.014  0.00  0.00    +0.000 OA
ATOM      9  H   UNL     1       7.464   7.253  17.641  0.00  0.00    +0.000 HD
ENDBRANCH   1   8
BRANCH   1  10
ATOM     10  C   UNL     1       7.270   5.120  15.679  0.00  0.00    +0.000 C 
BRANCH  10  11
ATOM     11  N   UNL     1       6.628   5.574  14.431  0.00  0.00    +0.000 NA
ATOM     12  H   UNL     1       6.905   6.544  14.267  0.00  0.00    +0.000 HD
BRANCH  11  13
ATOM     13  C   UNL     1       6.923   4.706  13.267  0.00  0.00    +0.000 C 
ATOM     14  C   UNL     1       8.357   4.713  12.778  0.00  0.00    +0.000 C 
ATOM     15  C   UNL     1       7.290   5.370  11.957  0.00  0.00    +0.000 C 
BRANCH  13  16
ATOM     16  C   UNL     1       6.130   3.404  13.157  0.00  0.00    +0.000 C 
BRANCH  16  18
ATOM     17  C   UNL     1       5.953   1.597  11.363  0.00  0.00    +0.000 C 
ATOM     18  C   UNL     1       5.685   3.059  11.719  0.00  0.00    +0.000 C 
ATOM     19  C   UNL     1       4.194   3.363  11.546  0.00  0.00    +0.000 C 
ENDBRANCH  16  18
ENDBRANCH  13  16
ENDBRANCH  11  13
ENDBRANCH  10  11
ENDBRANCH   1  10
BRANCH   5  20
ATOM     20  C   UNL     1       3.121   6.080  18.332  0.00  0.00    +0.000 C 
BRANCH  20  21
ATOM     21  C   UNL     1       2.393   5.015  19.121  0.00  0.00    +0.000 A 
ATOM     22  C   UNL     1       2.489   4.969  20.525  0.00  0.00    +0.000 A 
ATOM     23  C   UNL     1       1.858   3.950  21.251  0.00  0.00    +0.000 A 
ATOM     24  C   UNL     1       1.141   2.960  20.584  0.00  0.00    +0.000 A 
ATOM     25  C   UNL     1       1.048   2.998  19.197  0.00  0.00    +0.000 A 
ATOM     26  F   UNL     1       0.370   2.033  18.559  0.00  0.00    +0.000 F 
ATOM     27  C   UNL     1       1.662   4.015  18.472  0.00  0.00    +0.000 A 
ATOM     28  F   UNL     1       1.560   4.023  17.135  0.00  0.00    +0.000 F 
ENDBRANCH  20  21
ENDBRANCH   5  20
TORSDOF 8
ENDMDL
MODEL 2
REMARK VINA RESULT:      -7.5      1.304      1.488
REMARK  Name = 
REMARK  10 active torsions:
REMARK  status: ('A' for Active; 'I' for Inactive)
REMARK    1  A    between atoms: C_1  and  C_2
REMARK    2  A    between atoms: C_2  and  C_3
REMARK    3  A    between atoms: C_2  and  C_4
REMARK    4  A    between atoms: C_4  and  C_5
REMARK    5  A    between atoms: C_5  and  N_6
REMARK    6  A    between atoms: N_6  and  C_7
REMARK    7  A    between atoms: C_7  and  C_8
REMARK    8  A    between atoms: C_8  and  O_9
REMARK    9  A    between atoms: N_13  and  C_14
REMARK   10  A    between atoms: C_14  and  C_15
REMARK                            x       y       z     vdW  Elec       q    Type
REMARK                         _______ _______ _______ _____ _____    ______ ____
ROOT
ATOM      1  C   UNL     1       5.445   5.626  16.620  0.00  0.00    +0.000 C 
ATOM      2  C   UNL     1       6.761   6.300  17.057  0.00  0.00    +0.000 C 
ATOM      3  C   UNL     1       6.926   6.307  18.575  0.00  0.00    +0.000 C 
ATOM      4  C   UNL     1       6.704   4.919  19.154  0.00  0.00    +0.000 C 
ATOM      5  N   UNL     1       5.465   4.319  18.674  0.00  0.00    +0.000 N 
ATOM      6  C   UNL     1       5.357   4.222  17.275  0.00  0.00    +0.000 C 
ATOM      7  O   UNL     1       5.128   3.168  16.696  0.00  0.00    +0.000 OA
ENDROOT
BRANCH   1   8
ATOM      8  O   UNL     1       4.349   6.425  17.120  0.00  0.00    +0.000 OA
ATOM      9  H   UNL     1       4.755   7.148  17.634  0.00  0.00    +0.000 HD
ENDBRANCH   1   8
BRANCH   1  10
ATOM     10  C   UNL     1       5.364   5.603  15.077  0.00  0.00    +0.000 C 
BRANCH  10  11
ATOM     11  N   UNL     1       6.647   5.859  14.395  0.00  0.00    +0.000 NA
ATOM     12  H   UNL     1       7.380   5.901  15.106  0.00  0.00    +0.000 HD
BRANCH  11  13
ATOM     13  C   UNL     1       6.956   4.874  13.332  0.00  0.00    +0.000 C 
ATOM     14  C   UNL     1       8.419   4.731  12.963  0.00  0.00    +0.000 C 
ATOM     15  C   UNL     1       7.474   5.393  12.008  0.00  0.00    +0.000 C 
BRANCH  13  16
ATOM     16  C   UNL     1       6.071   3.631  13.262  0.00  0.00    +0.000 C 
BRANCH  16  18
ATOM     17  C   UNL     1       6.133   1.753  11.535  0.00  0.00    +0.000 C 
ATOM     18  C   UNL     1       5.714   3.194  11.825  0.00  0.00    +0.000 C 
ATOM     19  C   UNL     1       4.208   3.346  11.590  0.00  0.00    +0.000 C 
ENDBRANCH  16  18
ENDBRANCH  13  16
ENDBRANCH  11  13
ENDBRANCH  10  11
ENDBRANCH   1  10
BRANCH   5  20
ATOM     20  C   UNL     1       4.858   3.277  19.494  0.00  0.00    +0.000 C 
BRANCH  20  21
ATOM     21  C   UNL     1       3.375   3.534  19.640  0.00  0.00    +0.000 A 
ATOM     22  C   UNL     1       2.906   4.602  20.430  0.00  0.00    +0.000 A 
ATOM     23  C   UNL     1       1.531   4.808  20.608  0.00  0.00    +0.000 A 
ATOM     24  C   UNL     1       0.614   3.943  20.016  0.00  0.00    +0.000 A 
ATOM     25  C   UNL     1       1.073   2.884  19.240  0.00  0.00    +0.000 A 
ATOM     26  F   UNL     1       0.186   2.045  18.686  0.00  0.00    +0.000 F 
ATOM     27  C   UNL     1       2.437   2.682  19.049  0.00  0.00    +0.000 A 
ATOM     28  F   UNL     1       2.850   1.650  18.301  0.00  0.00    +0.000 F 
ENDBRANCH  20  21
ENDBRANCH   5  20
TORSDOF 8
ENDMDL
MODEL 3
REMARK VINA RESULT:      -7.3      3.357      7.802
REMARK  Name = 
REMARK  10 active torsions:
REMARK  status: ('A' for Active; 'I' for Inactive)
REMARK    1  A    between atoms: C_1  and  C_2
REMARK    2  A    between atoms: C_2  and  C_3
REMARK    3  A    between atoms: C_2  and  C_4
REMARK    4  A    between atoms: C_4  and  C_5
REMARK    5  A    between atoms: C_5  and  N_6
REMARK    6  A    between atoms: N_6  and  C_7
REMARK    7  A    between atoms: C_7  and  C_8
REMARK    8  A    between atoms: C_8  and  O_9
REMARK    9  A    between atoms: N_13  and  C_14
REMARK   10  A    between atoms: C_14  and  C_15
REMARK                            x       y       z     vdW  Elec       q    Type
REMARK                         _______ _______ _______ _____ _____    ______ ____
ROOT
ATOM      1  C   UNL     1       2.263   5.803  19.282  0.00  0.00    +0.000 C 
ATOM      2  C   UNL     1       1.233   5.042  20.141  0.00  0.00    +0.000 C 
ATOM      3  C   UNL     1       1.384   3.528  20.012  0.00  0.00    +0.000 C 
ATOM      4  C   UNL     1       2.828   3.104  20.233  0.00  0.00    +0.000 C 
ATOM      5  N   UNL     1       3.755   3.884  19.424  0.00  0.00    +0.000 N 
ATOM      6  C   UNL     1       3.684   5.276  19.617  0.00  0.00    +0.000 C 
ATOM      7  O   UNL     1       4.656   5.958  19.915  0.00  0.00    +0.000 OA
ENDROOT
BRANCH   1   8
ATOM      8  O   UNL     1       1.989   5.508  17.894  0.00  0.00    +0.000 OA
ATOM      9  H   UNL     1       2.393   4.637  17.718  0.00  0.00    +0.000 HD
ENDBRANCH   1   8
BRANCH   1  10
ATOM     10  C   UNL     1       2.093   7.323  19.498  0.00  0.00    +0.000 C 
BRANCH  10  11
ATOM     11  N   UNL     1       1.933   7.726  20.908  0.00  0.00    +0.000 NA
ATOM     12  H   UNL     1       2.856   7.967  21.274  0.00  0.00    +0.000 HD
BRANCH  11  13
ATOM     13  C   UNL     1       0.953   8.820  21.101  0.00  0.00    +0.000 C 
ATOM     14  C   UNL     1       0.726   9.265  22.533  0.00  0.00    +0.000 C 
ATOM     15  C   UNL     1      -0.343   8.499  21.815  0.00  0.00    +0.000 C 
BRANCH  13  16
ATOM     16  C   UNL     1       0.864   9.872  19.997  0.00  0.00    +0.000 C 
BRANCH  16  18
ATOM     17  C   UNL     1      -1.096  11.500  19.849  0.00  0.00    +0.000 C 
ATOM     18  C   UNL     1      -0.568  10.115  19.474  0.00  0.00    +0.000 C 
ATOM     19  C   UNL     1      -0.606   9.947  17.953  0.00  0.00    +0.000 C 
ENDBRANCH  16  18
ENDBRANCH  13  16
ENDBRANCH  11  13
ENDBRANCH  10  11
ENDBRANCH   1  10
BRANCH   5  20
ATOM     20  C   UNL     1       5.052   3.289  19.120  0.00  0.00    +0.000 C 
BRANCH  20  21
ATOM     21  C   UNL     1       5.609   3.888  17.848  0.00  0.00    +0.000 A 
ATOM     22  C   UNL     1       6.826   4.596  17.861  0.00  0.00    +0.000 A 
ATOM     23  C   UNL     1       7.315   5.197  16.693  0.00  0.00    +0.000 A 
ATOM     24  C   UNL     1       6.588   5.111  15.509  0.00  0.00    +0.000 A 
ATOM     25  C   UNL     1       5.383   4.418  15.493  0.00  0.00    +0.000 A 
ATOM     26  F   UNL     1       4.679   4.353  14.353  0.00  0.00    +0.000 F 
ATOM     27  C   UNL     1       4.899   3.808  16.646  0.00  0.00    +0.000 A 
ATOM     28  F   UNL     1       3.731   3.152  16.603  0.00  0.00    +0.000 F 
ENDBRANCH  20  21
ENDBRANCH   5  20
TORSDOF 8
ENDMDL
MODEL 4
REMARK VINA RESULT:      -7.3      1.901      2.695
REMARK  Name = 
REMARK  10 active torsions:
REMARK  status: ('A' for Active; 'I' for Inactive)
REMARK    1  A    between atoms: C_1  and  C_2
REMARK    2  A    between atoms: C_2  and  C_3
REMARK    3  A    between atoms: C_2  and  C_4
REMARK    4  A    between atoms: C_4  and  C_5
REMARK    5  A    between atoms: C_5  and  N_6
REMARK    6  A    between atoms: N_6  and  C_7
REMARK    7  A    between atoms: C_7  and  C_8
REMARK    8  A    between atoms: C_8  and  O_9
REMARK    9  A    between atoms: N_13  and  C_14
REMARK   10  A    between atoms: C_14  and  C_15
REMARK                            x       y       z     vdW  Elec       q    Type
REMARK                         _______ _______ _______ _____ _____    ______ ____
ROOT
ATOM      1  C   UNL     1       6.530   5.481  16.869  0.00  0.00    +0.000 C 
ATOM      2  C   UNL     1       7.449   5.219  18.080  0.00  0.00    +0.000 C 
ATOM      3  C   UNL     1       6.763   5.553  19.404  0.00  0.00    +0.000 C 
ATOM      4  C   UNL     1       5.397   4.891  19.491  0.00  0.00    +0.000 C 
ATOM      5  N   UNL     1       4.592   5.142  18.303  0.00  0.00    +0.000 N 
ATOM      6  C   UNL     1       5.183   4.742  17.091  0.00  0.00    +0.000 C 
ATOM      7  O   UNL     1       4.635   3.987  16.299  0.00  0.00    +0.000 OA
ENDROOT
BRANCH   1   8
ATOM      8  O   UNL     1       6.261   6.901  16.814  0.00  0.00    +0.000 OA
ATOM      9  H   UNL     1       5.946   7.150  17.703  0.00  0.00    +0.000 HD
ENDBRANCH   1   8
BRANCH   1  10
ATOM     10  C   UNL     1       7.260   5.075  15.570  0.00  0.00    +0.000 C 
BRANCH  10  11
ATOM     11  N   UNL     1       6.589   5.510  14.331  0.00  0.00    +0.000 NA
ATOM     12  H   UNL     1       6.846   6.484  14.158  0.00  0.00    +0.000 HD
BRANCH  11  13
ATOM     13  C   UNL     1       6.881   4.641  13.167  0.00  0.00    +0.000 C 
ATOM     14  C   UNL     1       8.310   4.662  12.662  0.00  0.00    +0.000 C 
ATOM     15  C   UNL     1       7.227   5.305  11.850  0.00  0.00    +0.000 C 
BRANCH  13  16
ATOM     16  C   UNL     1       6.102   3.331  13.069  0.00  0.00    +0.000 C 
BRANCH  16  18
ATOM     17  C   UNL     1       5.991   1.484  11.310  0.00  0.00    +0.000 C 
ATOM     18  C   UNL     1       5.693   2.949  11.629  0.00  0.00    +0.000 C 
ATOM     19  C   UNL     1       4.202   3.226  11.417  0.00  0.00    +0.000 C 
ENDBRANCH  16  18
ENDBRANCH  13  16
ENDBRANCH  11  13
ENDBRANCH  10  11
ENDBRANCH   1  10
BRANCH   5  20
ATOM     20  C   UNL     1       3.142   5.043  18.436  0.00  0.00    +0.000 C 
BRANCH  20  21
ATOM     21  C   UNL     1       2.562   6.397  18.781  0.00  0.00    +0.000 A 
ATOM     22  C   UNL     1       2.589   7.448  17.844  0.00  0.00    +0.000 A 
ATOM     23  C   UNL     1       2.100   8.718  18.182  0.00  0.00    +0.000 A 
ATOM     24  C   UNL     1       1.598   8.953  19.459  0.00  0.00    +0.000 A 
ATOM     25  C   UNL     1       1.575   7.919  20.389  0.00  0.00    +0.000 A 
ATOM     26  F   UNL     1       1.105   8.157  21.622  0.00  0.00    +0.000 F 
ATOM     27  C   UNL     1       2.047   6.653  20.055  0.00  0.00    +0.000 A 
ATOM     28  F   UNL     1       2.018   5.677  20.973  0.00  0.00    +0.000 F 
ENDBRANCH  20  21
ENDBRANCH   5  20
TORSDOF 8
ENDMDL
MODEL 5
REMARK VINA RESULT:      -7.3      1.463      1.944
REMARK  Name = 
REMARK  10 active torsions:
REMARK  status: ('A' for Active; 'I' for Inactive)
REMARK    1  A    between atoms: C_1  and  C_2
REMARK    2  A    between atoms: C_2  and  C_3
REMARK    3  A    between atoms: C_2  and  C_4
REMARK    4  A    between atoms: C_4  and  C_5
REMARK    5  A    between atoms: C_5  and  N_6
REMARK    6  A    between atoms: N_6  and  C_7
REMARK    7  A    between atoms: C_7  and  C_8
REMARK    8  A    between atoms: C_8  and  O_9
REMARK    9  A    between atoms: N_13  and  C_14
REMARK   10  A    between atoms: C_14  and  C_15
REMARK                            x       y       z     vdW  Elec       q    Type
REMARK                         _______ _______ _______ _____ _____    ______ ____
ROOT
ATOM      1  C   UNL     1       5.761   5.613  16.158  0.00  0.00    +0.000 C 
ATOM      2  C   UNL     1       7.106   6.290  16.490  0.00  0.00    +0.000 C 
ATOM      3  C   UNL     1       7.283   6.511  17.991  0.00  0.00    +0.000 C 
ATOM      4  C   UNL     1       7.010   5.232  18.766  0.00  0.00    +0.000 C 
ATOM      5  N   UNL     1       5.745   4.619  18.381  0.00  0.00    +0.000 N 
ATOM      6  C   UNL     1       5.623   4.324  17.011  0.00  0.00    +0.000 C 
ATOM      7  O   UNL     1       5.348   3.207  16.592  0.00  0.00    +0.000 OA
ENDROOT
BRANCH   1   8
ATOM      8  O   UNL     1       4.701   6.520  16.539  0.00  0.00    +0.000 OA
ATOM      9  H   UNL     1       4.777   7.289  15.943  0.00  0.00    +0.000 HD
ENDBRANCH   1   8
BRANCH   1  10
ATOM     10  C   UNL     1       5.668   5.370  14.636  0.00  0.00    +0.000 C 
BRANCH  10  11
ATOM     11  N   UNL     1       6.493   4.250  14.145  0.00  0.00    +0.000 NA
ATOM     12  H   UNL     1       5.896   3.422  14.079  0.00  0.00    +0.000 HD
BRANCH  11  13
ATOM     13  C   UNL     1       7.183   4.541  12.867  0.00  0.00    +0.000 C 
ATOM     14  C   UNL     1       8.558   5.169  12.982  0.00  0.00    +0.000 C 
ATOM     15  C   UNL     1       7.406   5.991  12.492  0.00  0.00    +0.000 C 
BRANCH  13  16
ATOM     16  C   UNL     1       6.922   3.584  11.705  0.00  0.00    +0.000 C 
BRANCH  16  18
ATOM     17  C   UNL     1       4.410   3.241  11.409  0.00  0.00    +0.000 C 
ATOM     18  C   UNL     1       5.719   2.642  11.926  0.00  0.00    +0.000 C 
ATOM     19  C   UNL     1       5.973   1.298  11.238  0.00  0.00    +0.000 C 
ENDBRANCH  16  18
ENDBRANCH  13  16
ENDBRANCH  11  13
ENDBRANCH  10  11
ENDBRANCH   1  10
BRANCH   5  20
ATOM     20  C   UNL     1       5.104   3.732  19.345  0.00  0.00    +0.000 C 
BRANCH  20  21
ATOM     21  C   UNL     1       3.711   4.231  19.657  0.00  0.00    +0.000 A 
ATOM     22  C   UNL     1       3.442   5.612  19.726  0.00  0.00    +0.000 A 
ATOM     23  C   UNL     1       2.164   6.074  20.068  0.00  0.00    +0.000 A 
ATOM     24  C   UNL     1       1.150   5.166  20.361  0.00  0.00    +0.000 A 
ATOM     25  C   UNL     1       1.413   3.802  20.300  0.00  0.00    +0.000 A 
ATOM     26  F   UNL     1       0.436   2.932  20.600  0.00  0.00    +0.000 F 
ATOM     27  C   UNL     1       2.676   3.337  19.948  0.00  0.00    +0.000 A 
ATOM     28  F   UNL     1       2.902   2.016  19.904  0.00  0.00    +0.000 F 
ENDBRANCH  20  21
ENDBRANCH   5  20
TORSDOF 8
ENDMDL
MODEL 6
REMARK VINA RESULT:      -7.2      3.445      7.738
REMARK  Name = 
REMARK  10 active torsions:
REMARK  status: ('A' for Active; 'I' for Inactive)
REMARK    1  A    between atoms: C_1  and  C_2
REMARK    2  A    between atoms: C_2  and  C_3
REMARK    3  A    between atoms: C_2  and  C_4
REMARK    4  A    between atoms: C_4  and  C_5
REMARK    5  A    between atoms: C_5  and  N_6
REMARK    6  A    between atoms: N_6  and  C_7
REMARK    7  A    between atoms: C_7  and  C_8
REMARK    8  A    between atoms: C_8  and  O_9
REMARK    9  A    between atoms: N_13  and  C_14
REMARK   10  A    between atoms: C_14  and  C_15
REMARK                            x       y       z     vdW  Elec       q    Type
REMARK                         _______ _______ _______ _____ _____    ______ ____
ROOT
ATOM      1  C   UNL     1       1.781   4.906  19.524  0.00  0.00    +0.000 C 
ATOM      2  C   UNL     1       0.807   3.711  19.527  0.00  0.00    +0.000 C 
ATOM      3  C   UNL     1       1.282   2.580  18.619  0.00  0.00    +0.000 C 
ATOM      4  C   UNL     1       2.729   2.216  18.912  0.00  0.00    +0.000 C 
ATOM      5  N   UNL     1       3.593   3.390  18.934  0.00  0.00    +0.000 N 
ATOM      6  C   UNL     1       3.210   4.391  19.845  0.00  0.00    +0.000 C 
ATOM      7  O   UNL     1       3.963   4.837  20.700  0.00  0.00    +0.000 OA
ENDROOT
BRANCH   1   8
ATOM      8  O   UNL     1       1.794   5.466  18.191  0.00  0.00    +0.000 OA
ATOM      9  H   UNL     1       1.137   4.957  17.679  0.00  0.00    +0.000 HD
ENDBRANCH   1   8
BRANCH   1  10
ATOM     10  C   UNL     1       1.273   5.990  20.501  0.00  0.00    +0.000 C 
BRANCH  10  11
ATOM     11  N   UNL     1       2.065   7.234  20.499  0.00  0.00    +0.000 NA
ATOM     12  H   UNL     1       2.585   7.276  19.620  0.00  0.00    +0.000 HD
BRANCH  11  13
ATOM     13  C   UNL     1       1.252   8.451  20.726  0.00  0.00    +0.000 C 
ATOM     14  C   UNL     1       1.294   9.028  22.127  0.00  0.00    +0.000 C 
ATOM     15  C   UNL     1       0.051   8.347  21.642  0.00  0.00    +0.000 C 
BRANCH  13  16
ATOM     16  C   UNL     1       1.113   9.419  19.552  0.00  0.00    +0.000 C 
BRANCH  16  18
ATOM     17  C   UNL     1      -0.357  11.484  19.850  0.00  0.00    +0.000 C 
ATOM     18  C   UNL     1      -0.299  10.024  19.400  0.00  0.00    +0.000 C 
ATOM     19  C   UNL     1      -0.760   9.919  17.943  0.00  0.00    +0.000 C 
ENDBRANCH  16  18
ENDBRANCH  13  16
ENDBRANCH  11  13
ENDBRANCH  10  11
ENDBRANCH   1  10
BRANCH   5  20
ATOM     20  C   UNL     1       5.015   3.186  18.680  0.00  0.00    +0.000 C 
BRANCH  20  21
ATOM     21  C   UNL     1       5.600   4.411  18.014  0.00  0.00    +0.000 A 
ATOM     22  C   UNL     1       6.643   5.133  18.626  0.00  0.00    +0.000 A 
ATOM     23  C   UNL     1       7.149   6.298  18.034  0.00  0.00    +0.000 A 
ATOM     24  C   UNL     1       6.609   6.763  16.837  0.00  0.00    +0.000 A 
ATOM     25  C   UNL     1       5.575   6.056  16.232  0.00  0.00    +0.000 A 
ATOM     26  F   UNL     1       5.048   6.517  15.088  0.00  0.00    +0.000 F 
ATOM     27  C   UNL     1       5.078   4.891  16.809  0.00  0.00    +0.000 A 
ATOM     28  F   UNL     1       4.077   4.234  16.206  0.00  0.00    +0.000 F 
ENDBRANCH  20  21
ENDBRANCH   5  20
TORSDOF 8
ENDMDL
MODEL 7
REMARK VINA RESULT:      -7.2      3.740      8.054
REMARK  Name = 
REMARK  10 active torsions:
REMARK  status: ('A' for Active; 'I' for Inactive)
REMARK    1  A    between atoms: C_1  and  C_2
REMARK    2  A    between atoms: C_2  and  C_3
REMARK    3  A    between atoms: C_2  and  C_4
REMARK    4  A    between atoms: C_4  and  C_5
REMARK    5  A    between atoms: C_5  and  N_6
REMARK    6  A    between atoms: N_6  and  C_7
REMARK    7  A    between atoms: C_7  and  C_8
REMARK    8  A    between atoms: C_8  and  O_9
REMARK    9  A    between atoms: N_13  and  C_14
REMARK   10  A    between atoms: C_14  and  C_15
REMARK                            x       y       z     vdW  Elec       q    Type
REMARK                         _______ _______ _______ _____ _____    ______ ____
ROOT
ATOM      1  C   UNL     1       2.424   5.784  19.413  0.00  0.00    +0.000 C 
ATOM      2  C   UNL     1       1.560   4.885  20.321  0.00  0.00    +0.000 C 
ATOM      3  C   UNL     1       1.779   3.401  20.035  0.00  0.00    +0.000 C 
ATOM      4  C   UNL     1       3.261   3.059  20.032  0.00  0.00    +0.000 C 
ATOM      5  N   UNL     1       4.028   3.966  19.188  0.00  0.00    +0.000 N 
ATOM      6  C   UNL     1       3.904   5.329  19.515  0.00  0.00    +0.000 C 
ATOM      7  O   UNL     1       4.866   6.048  19.750  0.00  0.00    +0.000 OA
ENDROOT
BRANCH   1   8
ATOM      8  O   UNL     1       1.987   5.589  18.049  0.00  0.00    +0.000 OA
ATOM      9  H   UNL     1       1.346   6.302  17.866  0.00  0.00    +0.000 HD
ENDBRANCH   1   8
BRANCH   1  10
ATOM     10  C   UNL     1       2.197   7.265  19.787  0.00  0.00    +0.000 C 
BRANCH  10  11
ATOM     11  N   UNL     1       1.591   7.474  21.115  0.00  0.00    +0.000 NA
ATOM     12  H   UNL     1       2.328   7.382  21.818  0.00  0.00    +0.000 HD
BRANCH  11  13
ATOM     13  C   UNL     1       0.863   8.758  21.236  0.00  0.00    +0.000 C 
ATOM     14  C   UNL     1       0.812   9.367  22.624  0.00  0.00    +0.000 C 
ATOM     15  C   UNL     1      -0.428   8.775  22.028  0.00  0.00    +0.000 C 
BRANCH  13  16
ATOM     16  C   UNL     1       0.923   9.703  20.037  0.00  0.00    +0.000 C 
BRANCH  16  18
ATOM     17  C   UNL     1      -0.706  11.661  19.864  0.00  0.00    +0.000 C 
ATOM     18  C   UNL     1      -0.460  10.185  19.547  0.00  0.00    +0.000 C 
ATOM     19  C   UNL     1      -0.590   9.957  18.039  0.00  0.00    +0.000 C 
ENDBRANCH  16  18
ENDBRANCH  13  16
ENDBRANCH  11  13
ENDBRANCH  10  11
ENDBRANCH   1  10
BRANCH   5  20
ATOM     20  C   UNL     1       5.305   3.488  18.669  0.00  0.00    +0.000 C 
BRANCH  20  21
ATOM     21  C   UNL     1       5.501   3.976  17.251  0.00  0.00    +0.000 A 
ATOM     22  C   UNL     1       4.454   3.893  16.313  0.00  0.00    +0.000 A 
ATOM     23  C   UNL     1       4.653   4.296  14.985  0.00  0.00    +0.000 A 
ATOM     24  C   UNL     1       5.898   4.768  14.578  0.00  0.00    +0.000 A 
ATOM     25  C   UNL     1       6.936   4.846  15.501  0.00  0.00    +0.000 A 
ATOM     26  F   UNL     1       8.138   5.286  15.100  0.00  0.00    +0.000 F 
ATOM     27  C   UNL     1       6.741   4.460  16.824  0.00  0.00    +0.000 A 
ATOM     28  F   UNL     1       7.762   4.540  17.689  0.00  0.00    +0.000 F 
ENDBRANCH  20  21
ENDBRANCH   5  20
TORSDOF 8
ENDMDL
MODEL 8
REMARK VINA RESULT:      -7.2      0.992      2.108
REMARK  Name = 
REMARK  10 active torsions:
REMARK  status: ('A' for Active; 'I' for Inactive)
REMARK    1  A    between atoms: C_1  and  C_2
REMARK    2  A    between atoms: C_2  and  C_3
REMARK    3  A    between atoms: C_2  and  C_4
REMARK    4  A    between atoms: C_4  and  C_5
REMARK    5  A    between atoms: C_5  and  N_6
REMARK    6  A    between atoms: N_6  and  C_7
REMARK    7  A    between atoms: C_7  and  C_8
REMARK    8  A    between atoms: C_8  and  O_9
REMARK    9  A    between atoms: N_13  and  C_14
REMARK   10  A    between atoms: C_14  and  C_15
REMARK                            x       y       z     vdW  Elec       q    Type
REMARK                         _______ _______ _______ _____ _____    ______ ____
ROOT
ATOM      1  C   UNL     1       6.095   4.780  16.086  0.00  0.00    +0.000 C 
ATOM      2  C   UNL     1       7.199   4.550  17.138  0.00  0.00    +0.000 C 
ATOM      3  C   UNL     1       7.012   5.433  18.369  0.00  0.00    +0.000 C 
ATOM      4  C   UNL     1       5.594   5.325  18.908  0.00  0.00    +0.000 C 
ATOM      5  N   UNL     1       4.597   5.512  17.861  0.00  0.00    +0.000 N 
ATOM      6  C   UNL     1       4.710   4.630  16.771  0.00  0.00    +0.000 C 
ATOM      7  O   UNL     1       3.785   3.927  16.385  0.00  0.00    +0.000 OA
ENDROOT
BRANCH   1   8
ATOM      8  O   UNL     1       6.214   6.138  15.605  0.00  0.00    +0.000 OA
ATOM      9  H   UNL     1       7.025   6.161  15.062  0.00  0.00    +0.000 HD
ENDBRANCH   1   8
BRANCH   1  10
ATOM     10  C   UNL     1       6.310   3.821  14.894  0.00  0.00    +0.000 C 
BRANCH  10  11
ATOM     11  N   UNL     1       5.472   4.115  13.716  0.00  0.00    +0.000 NA
ATOM     12  H   UNL     1       5.335   5.127  13.669  0.00  0.00    +0.000 HD
BRANCH  11  13
ATOM     13  C   UNL     1       6.019   3.567  12.453  0.00  0.00    +0.000 C 
ATOM     14  C   UNL     1       5.007   3.262  11.366  0.00  0.00    +0.000 C 
ATOM     15  C   UNL     1       5.681   2.137  12.090  0.00  0.00    +0.000 C 
BRANCH  13  16
ATOM     16  C   UNL     1       7.404   4.053  12.031  0.00  0.00    +0.000 C 
BRANCH  16  18
ATOM     17  C   UNL     1       8.948   5.721  13.193  0.00  0.00    +0.000 C 
ATOM     18  C   UNL     1       7.678   5.536  12.362  0.00  0.00    +0.000 C 
ATOM     19  C   UNL     1       7.789   6.350  11.070  0.00  0.00    +0.000 C 
ENDBRANCH  16  18
ENDBRANCH  13  16
ENDBRANCH  11  13
ENDBRANCH  10  11
ENDBRANCH   1  10
BRANCH   5  20
ATOM     20  C   UNL     1       3.267   5.952  18.267  0.00  0.00    +0.000 C 
BRANCH  20  21
ATOM     21  C   UNL     1       2.596   4.874  19.090  0.00  0.00    +0.000 A 
ATOM     22  C   UNL     1       3.028   4.599  20.401  0.00  0.00    +0.000 A 
ATOM     23  C   UNL     1       2.442   3.565  21.144  0.00  0.00    +0.000 A 
ATOM     24  C   UNL     1       1.434   2.787  20.580  0.00  0.00    +0.000 A 
ATOM     25  C   UNL     1       1.008   3.052  19.283  0.00  0.00    +0.000 A 
ATOM     26  F   UNL     1       0.049   2.289  18.740  0.00  0.00    +0.000 F 
ATOM     27  C   UNL     1       1.578   4.086  18.546  0.00  0.00    +0.000 A 
ATOM     28  F   UNL     1       1.151   4.314  17.296  0.00  0.00    +0.000 F 
ENDBRANCH  20  21
ENDBRANCH   5  20
TORSDOF 8
ENDMDL
MODEL 9
REMARK VINA RESULT:      -7.1      3.492      7.308
REMARK  Name = 
REMARK  10 active torsions:
REMARK  status: ('A' for Active; 'I' for Inactive)
REMARK    1  A    between atoms: C_1  and  C_2
REMARK    2  A    between atoms: C_2  and  C_3
REMARK    3  A    between atoms: C_2  and  C_4
REMARK    4  A    between atoms: C_4  and  C_5
REMARK    5  A    between atoms: C_5  and  N_6
REMARK    6  A    between atoms: N_6  and  C_7
REMARK    7  A    between atoms: C_7  and  C_8
REMARK    8  A    between atoms: C_8  and  O_9
REMARK    9  A    between atoms: N_13  and  C_14
REMARK   10  A    between atoms: C_14  and  C_15
REMARK                            x       y       z     vdW  Elec       q    Type
REMARK                         _______ _______ _______ _____ _____    ______ ____
ROOT
ATOM      1  C   UNL     1       1.768   4.734  19.611  0.00  0.00    +0.000 C 
ATOM      2  C   UNL     1       0.835   3.507  19.555  0.00  0.00    +0.000 C 
ATOM      3  C   UNL     1       1.343   2.444  18.584  0.00  0.00    +0.000 C 
ATOM      4  C   UNL     1       2.804   2.116  18.850  0.00  0.00    +0.000 C 
ATOM      5  N   UNL     1       3.626   3.316  18.931  0.00  0.00    +0.000 N 
ATOM      6  C   UNL     1       3.215   4.252  19.897  0.00  0.00    +0.000 C 
ATOM      7  O   UNL     1       3.959   4.677  20.772  0.00  0.00    +0.000 OA
ENDROOT
BRANCH   1   8
ATOM      8  O   UNL     1       1.752   5.365  18.311  0.00  0.00    +0.000 OA
ATOM      9  H   UNL     1       2.633   5.767  18.196  0.00  0.00    +0.000 HD
ENDBRANCH   1   8
BRANCH   1  10
ATOM     10  C   UNL     1       1.228   5.745  20.648  0.00  0.00    +0.000 C 
BRANCH  10  11
ATOM     11  N   UNL     1       2.011   6.990  20.750  0.00  0.00    +0.000 NA
ATOM     12  H   UNL     1       2.699   6.995  19.994  0.00  0.00    +0.000 HD
BRANCH  11  13
ATOM     13  C   UNL     1       1.175   8.214  20.751  0.00  0.00    +0.000 C 
ATOM     14  C   UNL     1       1.297   9.103  21.972  0.00  0.00    +0.000 C 
ATOM     15  C   UNL     1       0.047   8.306  21.756  0.00  0.00    +0.000 C 
BRANCH  13  16
ATOM     16  C   UNL     1       0.921   8.878  19.399  0.00  0.00    +0.000 C 
BRANCH  16  18
ATOM     17  C   UNL     1       2.610   8.343  17.561  0.00  0.00    +0.000 C 
ATOM     18  C   UNL     1       2.205   9.321  18.665  0.00  0.00    +0.000 C 
ATOM     19  C   UNL     1       2.011  10.717  18.065  0.00  0.00    +0.000 C 
ENDBRANCH  16  18
ENDBRANCH  13  16
ENDBRANCH  11  13
ENDBRANCH  10  11
ENDBRANCH   1  10
BRANCH   5  20
ATOM     20  C   UNL     1       5.053   3.176  18.660  0.00  0.00    +0.000 C 
BRANCH  20  21
ATOM     21  C   UNL     1       5.584   4.444  18.028  0.00  0.00    +0.000 A 
ATOM     22  C   UNL     1       6.607   5.183  18.653  0.00  0.00    +0.000 A 
ATOM     23  C   UNL     1       7.061   6.386  18.095  0.00  0.00    +0.000 A 
ATOM     24  C   UNL     1       6.490   6.869  16.921  0.00  0.00    +0.000 A 
ATOM     25  C   UNL     1       5.476   6.144  16.303  0.00  0.00    +0.000 A 
ATOM     26  F   UNL     1       4.919   6.623  15.181  0.00  0.00    +0.000 F 
ATOM     27  C   UNL     1       5.030   4.943  16.846  0.00  0.00    +0.000 A 
ATOM     28  F   UNL     1       4.047   4.269  16.232  0.00  0.00    +0.000 F 
ENDBRANCH  20  21
ENDBRANCH   5  20
TORSDOF 8
ENDMDL
