MODEL 1
REMARK VINA RESULT:      -8.4      0.000      0.000
REMARK  Name = 
REMARK  4 active torsions:
REMARK  status: ('A' for Active; 'I' for Inactive)
REMARK    1  A    between atoms: C_1  and  C_2
REMARK    2  A    between atoms: C_8  and  C_9
REMARK    3  A    between atoms: C_16  and  C_17
REMARK    4  A    between atoms: C_17  and  O_19
REMARK                            x       y       z     vdW  Elec       q    Type
REMARK                         _______ _______ _______ _____ _____    ______ ____
ROOT
ATOM      1  C   UNL     1       0.543   8.767  21.449  0.00  0.00    +0.000 C 
ATOM      2  C   UNL     1       1.318   7.790  20.615  0.00  0.00    +0.000 A 
ATOM      3  C   UNL     1       1.949   8.198  19.442  0.00  0.00    +0.000 A 
ATOM      4  C   UNL     1       2.684   7.302  18.661  0.00  0.00    +0.000 A 
ATOM      5  C   UNL     1       2.773   5.959  19.072  0.00  0.00    +0.000 A 
ATOM      6  C   UNL     1       2.128   5.523  20.239  0.00  0.00    +0.000 A 
ATOM      7  C   UNL     1       1.405   6.451  21.018  0.00  0.00    +0.000 A 
ATOM      8  C   UNL     1       2.366   4.128  20.359  0.00  0.00    +0.000 A 
ATOM      9  C   UNL     1       3.119   3.743  19.276  0.00  0.00    +0.000 A 
ATOM     10  N   UNL     1       3.391   4.848  18.488  0.00  0.00    +0.000 N 
ATOM     11  C   UNL     1       4.177   4.831  17.285  0.00  0.00    +0.000 A 
ATOM     12  C   UNL     1       4.681   3.623  16.816  0.00  0.00    +0.000 A 
ATOM     13  C   UNL     1       5.601   3.629  15.766  0.00  0.00    +0.000 A 
ATOM     14  C   UNL     1       5.957   4.829  15.149  0.00  0.00    +0.000 A 
ATOM     15  C   UNL     1       5.292   5.966  15.576  0.00  0.00    +0.000 A 
ATOM     16  N   UNL     1       4.438   5.996  16.636  0.00  0.00    +0.000 NA
ENDROOT
BRANCH   8  17
ATOM     17  C   UNL     1       1.919   3.276  21.410  0.00  0.00    +0.000 C 
ATOM     18  N   UNL     1       1.543   2.571  22.263  0.00  0.00    +0.000 NA
ENDBRANCH   8  17
BRANCH  14  19
ATOM     19  C   UNL     1       6.966   4.799  14.058  0.00  0.00    +0.000 C 
ATOM     20  O   UNL     1       7.969   5.507  14.103  0.00  0.00    +0.000 OA
BRANCH  19  21
ATOM     21  O   UNL     1       6.707   4.019  12.991  0.00  0.00    +0.000 OA
ATOM     22  H   UNL     1       6.125   4.342  12.284  0.00  0.00    +0.000 HD
ENDBRANCH  19  21
ENDBRANCH  14  19
TORSDOF 3
ENDMDL
MODEL 2
REMARK VINA RESULT:      -7.9      1.571      3.269
REMARK  Name = 
REMARK  4 active torsions:
REMARK  status: ('A' for Active; 'I' for Inactive)
REMARK    1  A    between atoms: C_1  and  C_2
REMARK    2  A    between atoms: C_8  and  C_9
REMARK    3  A    between atoms: C_16  and  C_17
REMARK    4  A    between atoms: C_17  and  O_19
REMARK                            x       y       z     vdW  Elec       q    Type
REMARK                         _______ _______ _______ _____ _____    ______ ____
ROOT
ATOM      1  C   UNL     1       1.241   2.450  22.166  0.00  0.00    +0.000 C 
ATOM      2  C   UNL     1       1.946   3.192  21.070  0.00  0.00    +0.000 A 
ATOM      3  C   UNL     1       2.786   2.521  20.183  0.00  0.00    +0.000 A 
ATOM      4  C   UNL     1       3.441   3.197  19.150  0.00  0.00    +0.000 A 
ATOM      5  C   UNL     1       3.251   4.585  19.019  0.00  0.00    +0.000 A 
ATOM      6  C   UNL     1       2.427   5.283  19.914  0.00  0.00    +0.000 A 
ATOM      7  C   UNL     1       1.764   4.575  20.939  0.00  0.00    +0.000 A 
ATOM      8  C   UNL     1       2.472   6.655  19.552  0.00  0.00    +0.000 A 
ATOM      9  C   UNL     1       3.321   6.769  18.477  0.00  0.00    +0.000 A 
ATOM     10  N   UNL     1       3.793   5.517  18.127  0.00  0.00    +0.000 N 
ATOM     11  C   UNL     1       4.683   5.246  17.032  0.00  0.00    +0.000 A 
ATOM     12  C   UNL     1       5.168   6.303  16.270  0.00  0.00    +0.000 A 
ATOM     13  C   UNL     1       5.871   6.031  15.094  0.00  0.00    +0.000 A 
ATOM     14  C   UNL     1       6.141   4.712  14.725  0.00  0.00    +0.000 A 
ATOM     15  C   UNL     1       5.756   3.728  15.619  0.00  0.00    +0.000 A 
ATOM     16  N   UNL     1       5.019   3.962  16.740  0.00  0.00    +0.000 NA
ENDROOT
BRANCH   8  17
ATOM     17  C   UNL     1       1.765   7.724  20.174  0.00  0.00    +0.000 C 
ATOM     18  N   UNL     1       1.181   8.593  20.695  0.00  0.00    +0.000 NA
ENDBRANCH   8  17
BRANCH  14  19
ATOM     19  C   UNL     1       6.860   4.461  13.448  0.00  0.00    +0.000 C 
ATOM     20  O   UNL     1       7.673   5.270  13.010  0.00  0.00    +0.000 OA
BRANCH  19  21
ATOM     21  O   UNL     1       6.538   3.350  12.759  0.00  0.00    +0.000 OA
ATOM     22  H   UNL     1       5.978   2.670  13.168  0.00  0.00    +0.000 HD
ENDBRANCH  19  21
ENDBRANCH  14  19
TORSDOF 3
ENDMDL
MODEL 3
REMARK VINA RESULT:      -7.6      3.937      6.570
REMARK  Name = 
REMARK  4 active torsions:
REMARK  status: ('A' for Active; 'I' for Inactive)
REMARK    1  A    between atoms: C_1  and  C_2
REMARK    2  A    between atoms: C_8  and  C_9
REMARK    3  A    between atoms: C_16  and  C_17
REMARK    4  A    between atoms: C_17  and  O_19
REMARK                            x       y       z     vdW  Elec       q    Type
REMARK                         _______ _______ _______ _____ _____    ______ ____
ROOT
ATOM      1  C   UNL     1       6.728   4.255  14.688  0.00  0.00    +0.000 C 
ATOM      2  C   UNL     1       5.818   4.866  15.713  0.00  0.00    +0.000 A 
ATOM      3  C   UNL     1       5.275   6.133  15.516  0.00  0.00    +0.000 A 
ATOM      4  C   UNL     1       4.416   6.711  16.456  0.00  0.00    +0.000 A 
ATOM      5  C   UNL     1       4.111   5.993  17.627  0.00  0.00    +0.000 A 
ATOM      6  C   UNL     1       4.664   4.724  17.854  0.00  0.00    +0.000 A 
ATOM      7  C   UNL     1       5.515   4.157  16.882  0.00  0.00    +0.000 A 
ATOM      8  C   UNL     1       4.207   4.282  19.124  0.00  0.00    +0.000 A 
ATOM      9  C   UNL     1       3.416   5.278  19.646  0.00  0.00    +0.000 A 
ATOM     10  N   UNL     1       3.332   6.322  18.742  0.00  0.00    +0.000 N 
ATOM     11  C   UNL     1       2.568   7.524  18.937  0.00  0.00    +0.000 A 
ATOM     12  C   UNL     1       1.886   7.711  20.133  0.00  0.00    +0.000 A 
ATOM     13  C   UNL     1       0.991   8.778  20.248  0.00  0.00    +0.000 A 
ATOM     14  C   UNL     1       0.837   9.683  19.197  0.00  0.00    +0.000 A 
ATOM     15  C   UNL     1       1.668   9.511  18.104  0.00  0.00    +0.000 A 
ATOM     16  N   UNL     1       2.503   8.447  17.942  0.00  0.00    +0.000 NA
ENDROOT
BRANCH   8  17
ATOM     17  C   UNL     1       4.500   3.036  19.748  0.00  0.00    +0.000 C 
ATOM     18  N   UNL     1       4.728   2.012  20.264  0.00  0.00    +0.000 NA
ENDBRANCH   8  17
BRANCH  14  19
ATOM     19  C   UNL     1      -0.151  10.785  19.343  0.00  0.00    +0.000 C 
ATOM     20  O   UNL     1      -0.811  10.911  20.371  0.00  0.00    +0.000 OA
BRANCH  19  21
ATOM     21  O   UNL     1      -0.343  11.595  18.285  0.00  0.00    +0.000 OA
ATOM     22  H   UNL     1      -0.161  12.546  18.361  0.00  0.00    +0.000 HD
ENDBRANCH  19  21
ENDBRANCH  14  19
TORSDOF 3
ENDMDL
MODEL 4
REMARK VINA RESULT:      -7.2      4.769      7.671
REMARK  Name = 
REMARK  4 active torsions:
REMARK  status: ('A' for Active; 'I' for Inactive)
REMARK    1  A    between atoms: C_1  and  C_2
REMARK    2  A    between atoms: C_8  and  C_9
REMARK    3  A    between atoms: C_16  and  C_17
REMARK    4  A    between atoms: C_17  and  O_19
REMARK                            x       y       z     vdW  Elec       q    Type
REMARK                         _______ _______ _______ _____ _____    ______ ____
ROOT
ATOM      1  C   UNL     1       4.249   2.146  19.765  0.00  0.00    +0.000 C 
ATOM      2  C   UNL     1       3.718   3.544  19.651  0.00  0.00    +0.000 A 
ATOM      3  C   UNL     1       2.789   4.029  20.569  0.00  0.00    +0.000 A 
ATOM      4  C   UNL     1       2.294   5.333  20.483  0.00  0.00    +0.000 A 
ATOM      5  C   UNL     1       2.740   6.160  19.436  0.00  0.00    +0.000 A 
ATOM      6  C   UNL     1       3.659   5.685  18.488  0.00  0.00    +0.000 A 
ATOM      7  C   UNL     1       4.156   4.369  18.607  0.00  0.00    +0.000 A 
ATOM      8  C   UNL     1       3.876   6.725  17.547  0.00  0.00    +0.000 A 
ATOM      9  C   UNL     1       3.087   7.788  17.919  0.00  0.00    +0.000 A 
ATOM     10  N   UNL     1       2.399   7.470  19.076  0.00  0.00    +0.000 N 
ATOM     11  C   UNL     1       1.500   8.349  19.770  0.00  0.00    +0.000 A 
ATOM     12  C   UNL     1       1.236   9.609  19.245  0.00  0.00    +0.000 A 
ATOM     13  C   UNL     1       0.522  10.532  20.012  0.00  0.00    +0.000 A 
ATOM     14  C   UNL     1       0.021  10.169  21.263  0.00  0.00    +0.000 A 
ATOM     15  C   UNL     1       0.197   8.850  21.642  0.00  0.00    +0.000 A 
ATOM     16  N   UNL     1       0.939   7.948  20.942  0.00  0.00    +0.000 NA
ENDROOT
BRANCH   8  17
ATOM     17  C   UNL     1       4.754   6.690  16.426  0.00  0.00    +0.000 C 
ATOM     18  N   UNL     1       5.482   6.671  15.511  0.00  0.00    +0.000 NA
ENDBRANCH   8  17
BRANCH  14  19
ATOM     19  C   UNL     1      -0.703  11.191  22.065  0.00  0.00    +0.000 C 
ATOM     20  O   UNL     1      -0.597  11.228  23.288  0.00  0.00    +0.000 OA
BRANCH  19  21
ATOM     21  O   UNL     1      -1.530  12.027  21.409  0.00  0.00    +0.000 OA
ATOM     22  H   UNL     1      -1.426  12.988  21.507  0.00  0.00    +0.000 HD
ENDBRANCH  19  21
ENDBRANCH  14  19
TORSDOF 3
ENDMDL
MODEL 5
REMARK VINA RESULT:      -7.1      4.005      6.662
REMARK  Name = 
REMARK  4 active torsions:
REMARK  status: ('A' for Active; 'I' for Inactive)
REMARK    1  A    between atoms: C_1  and  C_2
REMARK    2  A    between atoms: C_8  and  C_9
REMARK    3  A    between atoms: C_16  and  C_17
REMARK    4  A    between atoms: C_17  and  O_19
REMARK                            x       y       z     vdW  Elec       q    Type
REMARK                         _______ _______ _______ _____ _____    ______ ____
ROOT
ATOM      1  C   UNL     1       6.360   4.684  14.343  0.00  0.00    +0.000 C 
ATOM      2  C   UNL     1       5.478   5.042  15.502  0.00  0.00    +0.000 A 
ATOM      3  C   UNL     1       5.126   6.369  15.746  0.00  0.00    +0.000 A 
ATOM      4  C   UNL     1       4.296   6.716  16.814  0.00  0.00    +0.000 A 
ATOM      5  C   UNL     1       3.820   5.699  17.662  0.00  0.00    +0.000 A 
ATOM      6  C   UNL     1       4.178   4.361  17.447  0.00  0.00    +0.000 A 
ATOM      7  C   UNL     1       5.006   4.034  16.352  0.00  0.00    +0.000 A 
ATOM      8  C   UNL     1       3.584   3.590  18.481  0.00  0.00    +0.000 A 
ATOM      9  C   UNL     1       2.904   4.457  19.302  0.00  0.00    +0.000 A 
ATOM     10  N   UNL     1       3.022   5.746  18.811  0.00  0.00    +0.000 N 
ATOM     11  C   UNL     1       2.418   6.911  19.397  0.00  0.00    +0.000 A 
ATOM     12  C   UNL     1       1.691   6.784  20.574  0.00  0.00    +0.000 A 
ATOM     13  C   UNL     1       0.945   7.870  21.037  0.00  0.00    +0.000 A 
ATOM     14  C   UNL     1       0.985   9.090  20.359  0.00  0.00    +0.000 A 
ATOM     15  C   UNL     1       1.854   9.174  19.285  0.00  0.00    +0.000 A 
ATOM     16  N   UNL     1       2.545   8.115  18.779  0.00  0.00    +0.000 NA
ENDROOT
BRANCH   8  17
ATOM     17  C   UNL     1       3.663   2.177  18.643  0.00  0.00    +0.000 C 
ATOM     18  N   UNL     1       3.714   1.016  18.776  0.00  0.00    +0.000 NA
ENDBRANCH   8  17
BRANCH  14  19
ATOM     19  C   UNL     1       0.149  10.213  20.861  0.00  0.00    +0.000 C 
ATOM     20  O   UNL     1       0.345  10.701  21.971  0.00  0.00    +0.000 OA
BRANCH  19  21
ATOM     21  O   UNL     1      -0.870  10.627  20.085  0.00  0.00    +0.000 OA
ATOM     22  H   UNL     1      -0.716  11.295  19.397  0.00  0.00    +0.000 HD
ENDBRANCH  19  21
ENDBRANCH  14  19
TORSDOF 3
ENDMDL
MODEL 6
REMARK VINA RESULT:      -7.1      4.308      6.743
REMARK  Name = 
REMARK  4 active torsions:
REMARK  status: ('A' for Active; 'I' for Inactive)
REMARK    1  A    between atoms: C_1  and  C_2
REMARK    2  A    between atoms: C_8  and  C_9
REMARK    3  A    between atoms: C_16  and  C_17
REMARK    4  A    between atoms: C_17  and  O_19
REMARK                            x       y       z     vdW  Elec       q    Type
REMARK                         _______ _______ _______ _____ _____    ______ ____
ROOT
ATOM      1  C   UNL     1       5.673   3.999  16.751  0.00  0.00    +0.000 C 
ATOM      2  C   UNL     1       4.723   4.907  17.475  0.00  0.00    +0.000 A 
ATOM      3  C   UNL     1       4.500   6.207  17.026  0.00  0.00    +0.000 A 
ATOM      4  C   UNL     1       3.609   7.060  17.683  0.00  0.00    +0.000 A 
ATOM      5  C   UNL     1       2.938   6.589  18.827  0.00  0.00    +0.000 A 
ATOM      6  C   UNL     1       3.164   5.291  19.307  0.00  0.00    +0.000 A 
ATOM      7  C   UNL     1       4.057   4.444  18.617  0.00  0.00    +0.000 A 
ATOM      8  C   UNL     1       2.384   5.131  20.483  0.00  0.00    +0.000 A 
ATOM      9  C   UNL     1       1.726   6.317  20.705  0.00  0.00    +0.000 A 
ATOM     10  N   UNL     1       2.037   7.213  19.697  0.00  0.00    +0.000 N 
ATOM     11  C   UNL     1       1.512   8.546  19.586  0.00  0.00    +0.000 A 
ATOM     12  C   UNL     1       0.658   9.027  20.572  0.00  0.00    +0.000 A 
ATOM     13  C   UNL     1      -0.004  10.240  20.369  0.00  0.00    +0.000 A 
ATOM     14  C   UNL     1       0.241  10.991  19.219  0.00  0.00    +0.000 A 
ATOM     15  C   UNL     1       1.219  10.514  18.364  0.00  0.00    +0.000 A 
ATOM     16  N   UNL     1       1.834   9.308  18.508  0.00  0.00    +0.000 NA
ENDROOT
BRANCH   8  17
ATOM     17  C   UNL     1       2.287   3.960  21.288  0.00  0.00    +0.000 C 
ATOM     18  N   UNL     1       2.213   3.005  21.959  0.00  0.00    +0.000 NA
ENDBRANCH   8  17
BRANCH  14  19
ATOM     19  C   UNL     1      -0.511  12.259  19.021  0.00  0.00    +0.000 C 
ATOM     20  O   UNL     1      -1.330  12.645  19.851  0.00  0.00    +0.000 OA
BRANCH  19  21
ATOM     21  O   UNL     1      -0.309  12.931  17.872  0.00  0.00    +0.000 OA
ATOM     22  H   UNL     1      -0.272  13.901  17.877  0.00  0.00    +0.000 HD
ENDBRANCH  19  21
ENDBRANCH  14  19
TORSDOF 3
ENDMDL
MODEL 7
REMARK VINA RESULT:      -7.1      3.321      5.048
REMARK  Name = 
REMARK  4 active torsions:
REMARK  status: ('A' for Active; 'I' for Inactive)
REMARK    1  A    between atoms: C_1  and  C_2
REMARK    2  A    between atoms: C_8  and  C_9
REMARK    3  A    between atoms: C_16  and  C_17
REMARK    4  A    between atoms: C_17  and  O_19
REMARK                            x       y       z     vdW  Elec       q    Type
REMARK                         _______ _______ _______ _____ _____    ______ ____
ROOT
ATOM      1  C   UNL     1       1.446  12.457  18.048  0.00  0.00    +0.000 C 
ATOM      2  C   UNL     1       1.522  11.062  18.595  0.00  0.00    +0.000 A 
ATOM      3  C   UNL     1       2.087  10.033  17.844  0.00  0.00    +0.000 A 
ATOM      4  C   UNL     1       2.176   8.731  18.345  0.00  0.00    +0.000 A 
ATOM      5  C   UNL     1       1.670   8.463  19.630  0.00  0.00    +0.000 A 
ATOM      6  C   UNL     1       1.078   9.480  20.394  0.00  0.00    +0.000 A 
ATOM      7  C   UNL     1       1.015  10.789  19.872  0.00  0.00    +0.000 A 
ATOM      8  C   UNL     1       0.633   8.894  21.609  0.00  0.00    +0.000 A 
ATOM      9  C   UNL     1       0.937   7.555  21.556  0.00  0.00    +0.000 A 
ATOM     10  N   UNL     1       1.584   7.275  20.365  0.00  0.00    +0.000 N 
ATOM     11  C   UNL     1       2.075   5.982  19.976  0.00  0.00    +0.000 A 
ATOM     12  C   UNL     1       1.861   4.892  20.811  0.00  0.00    +0.000 A 
ATOM     13  C   UNL     1       2.501   3.682  20.533  0.00  0.00    +0.000 A 
ATOM     14  C   UNL     1       3.293   3.553  19.390  0.00  0.00    +0.000 A 
ATOM     15  C   UNL     1       3.327   4.639  18.534  0.00  0.00    +0.000 A 
ATOM     16  N   UNL     1       2.762   5.847  18.812  0.00  0.00    +0.000 NA
ENDROOT
BRANCH   8  17
ATOM     17  C   UNL     1      -0.005   9.563  22.693  0.00  0.00    +0.000 C 
ATOM     18  N   UNL     1      -0.534  10.101  23.586  0.00  0.00    +0.000 NA
ENDBRANCH   8  17
BRANCH  14  19
ATOM     19  C   UNL     1       3.987   2.261  19.146  0.00  0.00    +0.000 C 
ATOM     20  O   UNL     1       3.555   1.454  18.327  0.00  0.00    +0.000 OA
BRANCH  19  21
ATOM     21  O   UNL     1       5.065   1.979  19.904  0.00  0.00    +0.000 OA
ATOM     22  H   UNL     1       4.949   1.672  20.817  0.00  0.00    +0.000 HD
ENDBRANCH  19  21
ENDBRANCH  14  19
TORSDOF 3
ENDMDL
MODEL 8
REMARK VINA RESULT:      -6.8      4.542      7.354
REMARK  Name = 
REMARK  4 active torsions:
REMARK  status: ('A' for Active; 'I' for Inactive)
REMARK    1  A    between atoms: C_1  and  C_2
REMARK    2  A    between atoms: C_8  and  C_9
REMARK    3  A    between atoms: C_16  and  C_17
REMARK    4  A    between atoms: C_17  and  O_19
REMARK                            x       y       z     vdW  Elec       q    Type
REMARK                         _______ _______ _______ _____ _____    ______ ____
ROOT
ATOM      1  C   UNL     1       4.188   2.111  20.018  0.00  0.00    +0.000 C 
ATOM      2  C   UNL     1       3.752   3.510  19.698  0.00  0.00    +0.000 A 
ATOM      3  C   UNL     1       2.809   4.160  20.492  0.00  0.00    +0.000 A 
ATOM      4  C   UNL     1       2.401   5.468  20.214  0.00  0.00    +0.000 A 
ATOM      5  C   UNL     1       2.952   6.128  19.100  0.00  0.00    +0.000 A 
ATOM      6  C   UNL     1       3.887   5.484  18.276  0.00  0.00    +0.000 A 
ATOM      7  C   UNL     1       4.294   4.169  18.587  0.00  0.00    +0.000 A 
ATOM      8  C   UNL     1       4.218   6.382  17.226  0.00  0.00    +0.000 A 
ATOM      9  C   UNL     1       3.479   7.525  17.414  0.00  0.00    +0.000 A 
ATOM     10  N   UNL     1       2.713   7.397  18.560  0.00  0.00    +0.000 N 
ATOM     11  C   UNL     1       1.835   8.406  19.084  0.00  0.00    +0.000 A 
ATOM     12  C   UNL     1       1.679   9.601  18.391  0.00  0.00    +0.000 A 
ATOM     13  C   UNL     1       0.985  10.653  18.993  0.00  0.00    +0.000 A 
ATOM     14  C   UNL     1       0.398  10.482  20.247  0.00  0.00    +0.000 A 
ATOM     15  C   UNL     1       0.471   9.215  20.798  0.00  0.00    +0.000 A 
ATOM     16  N   UNL     1       1.191   8.191  20.261  0.00  0.00    +0.000 NA
ENDROOT
BRANCH   8  17
ATOM     17  C   UNL     1       5.149   6.154  16.173  0.00  0.00    +0.000 C 
ATOM     18  N   UNL     1       5.922   5.963  15.317  0.00  0.00    +0.000 NA
ENDBRANCH   8  17
BRANCH  14  19
ATOM     19  C   UNL     1      -0.301  11.637  20.871  0.00  0.00    +0.000 C 
ATOM     20  O   UNL     1      -1.355  12.064  20.408  0.00  0.00    +0.000 OA
BRANCH  19  21
ATOM     21  O   UNL     1       0.297  12.237  21.917  0.00  0.00    +0.000 OA
ATOM     22  H   UNL     1       1.261  12.356  21.923  0.00  0.00    +0.000 HD
ENDBRANCH  19  21
ENDBRANCH  14  19
TORSDOF 3
ENDMDL
MODEL 9
REMARK VINA RESULT:      -6.8      4.155      6.596
REMARK  Name = 
REMARK  4 active torsions:
REMARK  status: ('A' for Active; 'I' for Inactive)
REMARK    1  A    between atoms: C_1  and  C_2
REMARK    2  A    between atoms: C_8  and  C_9
REMARK    3  A    between atoms: C_16  and  C_17
REMARK    4  A    between atoms: C_17  and  O_19
REMARK                            x       y       z     vdW  Elec       q    Type
REMARK                         _______ _______ _______ _____ _____    ______ ____
ROOT
ATOM      1  C   UNL     1       6.215   4.087  15.742  0.00  0.00    +0.000 C 
ATOM      2  C   UNL     1       5.265   4.900  16.571  0.00  0.00    +0.000 A 
ATOM      3  C   UNL     1       5.003   6.230  16.252  0.00  0.00    +0.000 A 
ATOM      4  C   UNL     1       4.111   6.997  17.008  0.00  0.00    +0.000 A 
ATOM      5  C   UNL     1       3.480   6.407  18.118  0.00  0.00    +0.000 A 
ATOM      6  C   UNL     1       3.746   5.075  18.469  0.00  0.00    +0.000 A 
ATOM      7  C   UNL     1       4.638   4.317  17.680  0.00  0.00    +0.000 A 
ATOM      8  C   UNL     1       3.001   4.787  19.643  0.00  0.00    +0.000 A 
ATOM      9  C   UNL     1       2.324   5.932  19.991  0.00  0.00    +0.000 A 
ATOM     10  N   UNL     1       2.590   6.925  19.065  0.00  0.00    +0.000 N 
ATOM     11  C   UNL     1       2.034   8.250  19.093  0.00  0.00    +0.000 A 
ATOM     12  C   UNL     1       1.197   8.617  20.140  0.00  0.00    +0.000 A 
ATOM     13  C   UNL     1       0.504   9.827  20.068  0.00  0.00    +0.000 A 
ATOM     14  C   UNL     1       0.703  10.688  18.988  0.00  0.00    +0.000 A 
ATOM     15  C   UNL     1       1.668  10.316  18.068  0.00  0.00    +0.000 A 
ATOM     16  N   UNL     1       2.313   9.116  18.083  0.00  0.00    +0.000 NA
ENDROOT
BRANCH   8  17
ATOM     17  C   UNL     1       2.950   3.544  20.336  0.00  0.00    +0.000 C 
ATOM     18  N   UNL     1       2.905   2.517  20.892  0.00  0.00    +0.000 NA
ENDBRANCH   8  17
BRANCH  14  19
ATOM     19  C   UNL     1      -0.079  11.951  18.929  0.00  0.00    +0.000 C 
ATOM     20  O   UNL     1       0.474  13.031  18.737  0.00  0.00    +0.000 OA
BRANCH  19  21
ATOM     21  O   UNL     1      -1.404  11.875  19.160  0.00  0.00    +0.000 OA
ATOM     22  H   UNL     1      -2.030  12.273  18.533  0.00  0.00    +0.000 HD
ENDBRANCH  19  21
ENDBRANCH  14  19
TORSDOF 3
ENDMDL
