MODEL 1
REMARK VINA RESULT:      -6.6      0.000      0.000
REMARK  Name = 
REMARK  8 active torsions:
REMARK  status: ('A' for Active; 'I' for Inactive)
REMARK    1  A    between atoms: C_1  and  C_2
REMARK    2  A    between atoms: C_2  and  C_3
REMARK    3  A    between atoms: C_2  and  C_4
REMARK    4  A    between atoms: C_4  and  O_5
REMARK    5  A    between atoms: O_5  and  C_6
REMARK    6  A    between atoms: C_9  and  N_10
REMARK    7  A    between atoms: C_11  and  C_13
REMARK    8  A    between atoms: C_13  and  N_14
REMARK                            x       y       z     vdW  Elec       q    Type
REMARK                         _______ _______ _______ _____ _____    ______ ____
ROOT
ATOM      1  C   UNL     1       5.779   5.275  15.132  0.00  0.00    +0.000 A 
ATOM      2  C   UNL     1       5.420   4.068  15.706  0.00  0.00    +0.000 A 
ATOM      3  C   UNL     1       4.743   4.086  16.926  0.00  0.00    +0.000 A 
ATOM      4  C   UNL     1       4.425   5.301  17.525  0.00  0.00    +0.000 A 
ATOM      5  C   UNL     1       4.854   6.456  16.874  0.00  0.00    +0.000 A 
ATOM      6  N   UNL     1       5.516   6.475  15.692  0.00  0.00    +0.000 NA
ENDROOT
BRANCH   4   7
ATOM      7  N   UNL     1       3.712   5.422  18.738  0.00  0.00    +0.000 N 
ATOM      8  C   UNL     1       2.607   6.228  18.961  0.00  0.00    +0.000 C 
ATOM      9  O   UNL     1       2.095   6.993  18.147  0.00  0.00    +0.000 OA
ATOM     10  H   UNL     1       4.066   4.881  19.522  0.00  0.00    +0.000 HD
BRANCH   8  11
ATOM     11  C   UNL     1       2.041   6.124  20.355  0.00  0.00    +0.000 C 
BRANCH  11  12
ATOM     12  N   UNL     1       1.854   4.737  20.693  0.00  0.00    +0.000 N 
ATOM     13  C   UNL     1       2.394   4.050  21.733  0.00  0.00    +0.000 A 
ATOM     14  N   UNL     1       1.951   2.816  21.711  0.00  0.00    +0.000 NA
ATOM     15  C   UNL     1       1.120   2.802  20.627  0.00  0.00    +0.000 A 
ATOM     16  N   UNL     1       1.037   3.957  19.959  0.00  0.00    +0.000 NA
ENDBRANCH  11  12
ENDBRANCH   8  11
ENDBRANCH   4   7
BRANCH   1  17
ATOM     17  O   UNL     1       6.398   5.214  13.901  0.00  0.00    +0.000 OA
BRANCH  17  18
ATOM     18  C   UNL     1       6.699   3.873  13.512  0.00  0.00    +0.000 C 
BRANCH  18  20
ATOM     19  C   UNL     1       7.040   2.463  11.470  0.00  0.00    +0.000 C 
ATOM     20  C   UNL     1       6.259   3.638  12.059  0.00  0.00    +0.000 C 
ATOM     21  C   UNL     1       4.754   3.390  11.943  0.00  0.00    +0.000 C 
ENDBRANCH  18  20
ENDBRANCH  17  18
ENDBRANCH   1  17
TORSDOF 6
ENDMDL
MODEL 2
REMARK VINA RESULT:      -6.5      3.976      5.714
REMARK  Name = 
REMARK  8 active torsions:
REMARK  status: ('A' for Active; 'I' for Inactive)
REMARK    1  A    between atoms: C_1  and  C_2
REMARK    2  A    between atoms: C_2  and  C_3
REMARK    3  A    between atoms: C_2  and  C_4
REMARK    4  A    between atoms: C_4  and  O_5
REMARK    5  A    between atoms: O_5  and  C_6
REMARK    6  A    between atoms: C_9  and  N_10
REMARK    7  A    between atoms: C_11  and  C_13
REMARK    8  A    between atoms: C_13  and  N_14
REMARK                            x       y       z     vdW  Elec       q    Type
REMARK                         _______ _______ _______ _____ _____    ______ ____
ROOT
ATOM      1  C   UNL     1       7.801   7.971  17.796  0.00  0.00    +0.000 A 
ATOM      2  C   UNL     1       8.185   7.041  18.745  0.00  0.00    +0.000 A 
ATOM      3  C   UNL     1       7.510   5.821  18.794  0.00  0.00    +0.000 A 
ATOM      4  C   UNL     1       6.490   5.555  17.884  0.00  0.00    +0.000 A 
ATOM      5  C   UNL     1       6.168   6.571  16.985  0.00  0.00    +0.000 A 
ATOM      6  N   UNL     1       6.799   7.767  16.913  0.00  0.00    +0.000 NA
ENDROOT
BRANCH   4   7
ATOM      7  N   UNL     1       5.775   4.339  17.831  0.00  0.00    +0.000 N 
ATOM      8  C   UNL     1       4.403   4.202  17.688  0.00  0.00    +0.000 C 
ATOM      9  O   UNL     1       3.589   5.119  17.621  0.00  0.00    +0.000 OA
ATOM     10  H   UNL     1       6.324   3.491  17.931  0.00  0.00    +0.000 HD
BRANCH   8  11
ATOM     11  C   UNL     1       3.931   2.771  17.634  0.00  0.00    +0.000 C 
BRANCH  11  12
ATOM     12  N   UNL     1       2.794   2.609  18.501  0.00  0.00    +0.000 N 
ATOM     13  C   UNL     1       2.782   2.535  19.857  0.00  0.00    +0.000 A 
ATOM     14  N   UNL     1       1.542   2.421  20.272  0.00  0.00    +0.000 NA
ATOM     15  C   UNL     1       0.822   2.445  19.112  0.00  0.00    +0.000 A 
ATOM     16  N   UNL     1       1.547   2.545  17.993  0.00  0.00    +0.000 NA
ENDBRANCH  11  12
ENDBRANCH   8  11
ENDBRANCH   4   7
BRANCH   1  17
ATOM     17  O   UNL     1       8.529   9.141  17.746  0.00  0.00    +0.000 OA
BRANCH  17  18
ATOM     18  C   UNL     1       8.969   9.560  19.039  0.00  0.00    +0.000 C 
BRANCH  18  20
ATOM     19  C   UNL     1       9.983  11.444  20.341  0.00  0.00    +0.000 C 
ATOM     20  C   UNL     1       9.352  11.047  19.007  0.00  0.00    +0.000 C 
ATOM     21  C   UNL     1      10.296  11.376  17.850  0.00  0.00    +0.000 C 
ENDBRANCH  18  20
ENDBRANCH  17  18
ENDBRANCH   1  17
TORSDOF 6
ENDMDL
MODEL 3
REMARK VINA RESULT:      -6.5      4.104      5.813
REMARK  Name = 
REMARK  8 active torsions:
REMARK  status: ('A' for Active; 'I' for Inactive)
REMARK    1  A    between atoms: C_1  and  C_2
REMARK    2  A    between atoms: C_2  and  C_3
REMARK    3  A    between atoms: C_2  and  C_4
REMARK    4  A    between atoms: C_4  and  O_5
REMARK    5  A    between atoms: O_5  and  C_6
REMARK    6  A    between atoms: C_9  and  N_10
REMARK    7  A    between atoms: C_11  and  C_13
REMARK    8  A    between atoms: C_13  and  N_14
REMARK                            x       y       z     vdW  Elec       q    Type
REMARK                         _______ _______ _______ _____ _____    ______ ____
ROOT
ATOM      1  C   UNL     1       7.865   7.767  17.975  0.00  0.00    +0.000 A 
ATOM      2  C   UNL     1       6.817   7.468  17.124  0.00  0.00    +0.000 A 
ATOM      3  C   UNL     1       6.149   6.254  17.291  0.00  0.00    +0.000 A 
ATOM      4  C   UNL     1       6.530   5.387  18.310  0.00  0.00    +0.000 A 
ATOM      5  C   UNL     1       7.615   5.776  19.096  0.00  0.00    +0.000 A 
ATOM      6  N   UNL     1       8.286   6.944  18.959  0.00  0.00    +0.000 NA
ENDROOT
BRANCH   4   7
ATOM      7  N   UNL     1       5.895   4.155  18.581  0.00  0.00    +0.000 N 
ATOM      8  C   UNL     1       4.731   3.978  19.313  0.00  0.00    +0.000 C 
ATOM      9  O   UNL     1       4.089   4.862  19.874  0.00  0.00    +0.000 OA
ATOM     10  H   UNL     1       6.355   3.325  18.220  0.00  0.00    +0.000 HD
BRANCH   8  11
ATOM     11  C   UNL     1       4.277   2.543  19.407  0.00  0.00    +0.000 C 
BRANCH  11  12
ATOM     12  N   UNL     1       2.858   2.474  19.179  0.00  0.00    +0.000 N 
ATOM     13  C   UNL     1       2.207   2.384  17.990  0.00  0.00    +0.000 A 
ATOM     14  N   UNL     1       0.916   2.311  18.210  0.00  0.00    +0.000 NA
ATOM     15  C   UNL     1       0.829   2.348  19.572  0.00  0.00    +0.000 A 
ATOM     16  N   UNL     1       1.996   2.462  20.214  0.00  0.00    +0.000 NA
ENDBRANCH  11  12
ENDBRANCH   8  11
ENDBRANCH   4   7
BRANCH   1  17
ATOM     17  O   UNL     1       8.462   9.000  17.811  0.00  0.00    +0.000 OA
BRANCH  17  18
ATOM     18  C   UNL     1       9.059   9.477  19.018  0.00  0.00    +0.000 C 
BRANCH  18  20
ATOM     19  C   UNL     1       9.709  11.533  20.291  0.00  0.00    +0.000 C 
ATOM     20  C   UNL     1       9.296  10.991  18.923  0.00  0.00    +0.000 C 
ATOM     21  C   UNL     1      10.345  11.348  17.868  0.00  0.00    +0.000 C 
ENDBRANCH  18  20
ENDBRANCH  17  18
ENDBRANCH   1  17
TORSDOF 6
ENDMDL
MODEL 4
REMARK VINA RESULT:      -6.5      3.570      5.357
REMARK  Name = 
REMARK  8 active torsions:
REMARK  status: ('A' for Active; 'I' for Inactive)
REMARK    1  A    between atoms: C_1  and  C_2
REMARK    2  A    between atoms: C_2  and  C_3
REMARK    3  A    between atoms: C_2  and  C_4
REMARK    4  A    between atoms: C_4  and  O_5
REMARK    5  A    between atoms: O_5  and  C_6
REMARK    6  A    between atoms: C_9  and  N_10
REMARK    7  A    between atoms: C_11  and  C_13
REMARK    8  A    between atoms: C_13  and  N_14
REMARK                            x       y       z     vdW  Elec       q    Type
REMARK                         _______ _______ _______ _____ _____    ______ ____
ROOT
ATOM      1  C   UNL     1       7.481   7.247  17.650  0.00  0.00    +0.000 A 
ATOM      2  C   UNL     1       6.262   6.985  17.050  0.00  0.00    +0.000 A 
ATOM      3  C   UNL     1       5.529   5.880  17.485  0.00  0.00    +0.000 A 
ATOM      4  C   UNL     1       6.020   5.084  18.516  0.00  0.00    +0.000 A 
ATOM      5  C   UNL     1       7.269   5.424  19.034  0.00  0.00    +0.000 A 
ATOM      6  N   UNL     1       8.007   6.486  18.633  0.00  0.00    +0.000 NA
ENDROOT
BRANCH   4   7
ATOM      7  N   UNL     1       5.337   3.969  19.048  0.00  0.00    +0.000 N 
ATOM      8  C   UNL     1       4.480   3.127  18.357  0.00  0.00    +0.000 C 
ATOM      9  O   UNL     1       4.151   3.240  17.179  0.00  0.00    +0.000 OA
ATOM     10  H   UNL     1       5.475   3.790  20.038  0.00  0.00    +0.000 HD
BRANCH   8  11
ATOM     11  C   UNL     1       3.921   2.001  19.190  0.00  0.00    +0.000 C 
BRANCH  11  12
ATOM     12  N   UNL     1       2.902   2.515  20.067  0.00  0.00    +0.000 N 
ATOM     13  C   UNL     1       1.618   2.833  19.760  0.00  0.00    +0.000 A 
ATOM     14  N   UNL     1       1.002   3.238  20.846  0.00  0.00    +0.000 NA
ATOM     15  C   UNL     1       1.966   3.134  21.808  0.00  0.00    +0.000 A 
ATOM     16  N   UNL     1       3.157   2.707  21.376  0.00  0.00    +0.000 NA
ENDBRANCH  11  12
ENDBRANCH   8  11
ENDBRANCH   4   7
BRANCH   1  17
ATOM     17  O   UNL     1       8.147   8.378  17.229  0.00  0.00    +0.000 OA
BRANCH  17  18
ATOM     18  C   UNL     1       7.807   9.528  18.006  0.00  0.00    +0.000 C 
BRANCH  18  20
ATOM     19  C   UNL     1       8.824  11.809  17.827  0.00  0.00    +0.000 C 
ATOM     20  C   UNL     1       9.064  10.368  18.277  0.00  0.00    +0.000 C 
ATOM     21  C   UNL     1       9.480  10.330  19.748  0.00  0.00    +0.000 C 
ENDBRANCH  18  20
ENDBRANCH  17  18
ENDBRANCH   1  17
TORSDOF 6
ENDMDL
MODEL 5
REMARK VINA RESULT:      -6.5      0.906      1.380
REMARK  Name = 
REMARK  8 active torsions:
REMARK  status: ('A' for Active; 'I' for Inactive)
REMARK    1  A    between atoms: C_1  and  C_2
REMARK    2  A    between atoms: C_2  and  C_3
REMARK    3  A    between atoms: C_2  and  C_4
REMARK    4  A    between atoms: C_4  and  O_5
REMARK    5  A    between atoms: O_5  and  C_6
REMARK    6  A    between atoms: C_9  and  N_10
REMARK    7  A    between atoms: C_11  and  C_13
REMARK    8  A    between atoms: C_13  and  N_14
REMARK                            x       y       z     vdW  Elec       q    Type
REMARK                         _______ _______ _______ _____ _____    ______ ____
ROOT
ATOM      1  C   UNL     1       5.552   5.017  15.275  0.00  0.00    +0.000 A 
ATOM      2  C   UNL     1       5.301   6.307  15.709  0.00  0.00    +0.000 A 
ATOM      3  C   UNL     1       4.580   6.483  16.890  0.00  0.00    +0.000 A 
ATOM      4  C   UNL     1       4.150   5.374  17.613  0.00  0.00    +0.000 A 
ATOM      5  C   UNL     1       4.436   4.120  17.073  0.00  0.00    +0.000 A 
ATOM      6  N   UNL     1       5.130   3.914  15.929  0.00  0.00    +0.000 NA
ENDROOT
BRANCH   4   7
ATOM      7  N   UNL     1       3.447   5.449  18.835  0.00  0.00    +0.000 N 
ATOM      8  C   UNL     1       2.517   6.416  19.186  0.00  0.00    +0.000 C 
ATOM      9  O   UNL     1       2.185   7.380  18.502  0.00  0.00    +0.000 OA
ATOM     10  H   UNL     1       3.668   4.737  19.524  0.00  0.00    +0.000 HD
BRANCH   8  11
ATOM     11  C   UNL     1       1.909   6.216  20.552  0.00  0.00    +0.000 C 
BRANCH  11  12
ATOM     12  N   UNL     1       1.745   4.807  20.801  0.00  0.00    +0.000 N 
ATOM     13  C   UNL     1       0.837   3.962  20.248  0.00  0.00    +0.000 A 
ATOM     14  N   UNL     1       1.037   2.751  20.712  0.00  0.00    +0.000 NA
ATOM     15  C   UNL     1       2.104   2.910  21.549  0.00  0.00    +0.000 A 
ATOM     16  N   UNL     1       2.568   4.160  21.649  0.00  0.00    +0.000 NA
ENDBRANCH  11  12
ENDBRANCH   8  11
ENDBRANCH   4   7
BRANCH   1  17
ATOM     17  O   UNL     1       6.315   4.887  14.133  0.00  0.00    +0.000 OA
BRANCH  17  18
ATOM     18  C   UNL     1       6.342   3.542  13.651  0.00  0.00    +0.000 C 
BRANCH  18  20
ATOM     19  C   UNL     1       6.904   2.387  11.501  0.00  0.00    +0.000 C 
ATOM     20  C   UNL     1       6.102   3.524  12.134  0.00  0.00    +0.000 C 
ATOM     21  C   UNL     1       4.620   3.391  11.784  0.00  0.00    +0.000 C 
ENDBRANCH  18  20
ENDBRANCH  17  18
ENDBRANCH   1  17
TORSDOF 6
ENDMDL
MODEL 6
REMARK VINA RESULT:      -6.4      1.566      2.012
REMARK  Name = 
REMARK  8 active torsions:
REMARK  status: ('A' for Active; 'I' for Inactive)
REMARK    1  A    between atoms: C_1  and  C_2
REMARK    2  A    between atoms: C_2  and  C_3
REMARK    3  A    between atoms: C_2  and  C_4
REMARK    4  A    between atoms: C_4  and  O_5
REMARK    5  A    between atoms: O_5  and  C_6
REMARK    6  A    between atoms: C_9  and  N_10
REMARK    7  A    between atoms: C_11  and  C_13
REMARK    8  A    between atoms: C_13  and  N_14
REMARK                            x       y       z     vdW  Elec       q    Type
REMARK                         _______ _______ _______ _____ _____    ______ ____
ROOT
ATOM      1  C   UNL     1       6.303   4.296  14.613  0.00  0.00    +0.000 A 
ATOM      2  C   UNL     1       5.912   5.613  14.774  0.00  0.00    +0.000 A 
ATOM      3  C   UNL     1       5.077   5.934  15.845  0.00  0.00    +0.000 A 
ATOM      4  C   UNL     1       4.675   4.940  16.733  0.00  0.00    +0.000 A 
ATOM      5  C   UNL     1       5.108   3.642  16.465  0.00  0.00    +0.000 A 
ATOM      6  N   UNL     1       5.915   3.296  15.433  0.00  0.00    +0.000 NA
ENDROOT
BRANCH   4   7
ATOM      7  N   UNL     1       3.862   5.172  17.864  0.00  0.00    +0.000 N 
ATOM      8  C   UNL     1       4.306   5.439  19.150  0.00  0.00    +0.000 C 
ATOM      9  O   UNL     1       5.478   5.481  19.515  0.00  0.00    +0.000 OA
ATOM     10  H   UNL     1       2.859   5.111  17.716  0.00  0.00    +0.000 HD
BRANCH   8  11
ATOM     11  C   UNL     1       3.198   5.672  20.146  0.00  0.00    +0.000 C 
BRANCH  11  12
ATOM     12  N   UNL     1       2.424   4.467  20.292  0.00  0.00    +0.000 N 
ATOM     13  C   UNL     1       1.084   4.353  20.481  0.00  0.00    +0.000 A 
ATOM     14  N   UNL     1       0.763   3.082  20.533  0.00  0.00    +0.000 NA
ATOM     15  C   UNL     1       1.960   2.450  20.353  0.00  0.00    +0.000 A 
ATOM     16  N   UNL     1       3.016   3.259  20.214  0.00  0.00    +0.000 NA
ENDBRANCH  11  12
ENDBRANCH   8  11
ENDBRANCH   4   7
BRANCH   1  17
ATOM     17  O   UNL     1       7.171   4.031  13.574  0.00  0.00    +0.000 OA
BRANCH  17  18
ATOM     18  C   UNL     1       6.529   4.100  12.300  0.00  0.00    +0.000 C 
BRANCH  18  20
ATOM     19  C   UNL     1       4.311   3.313  11.445  0.00  0.00    +0.000 C 
ATOM     20  C   UNL     1       5.619   2.878  12.105  0.00  0.00    +0.000 C 
ATOM     21  C   UNL     1       6.293   1.780  11.281  0.00  0.00    +0.000 C 
ENDBRANCH  18  20
ENDBRANCH  17  18
ENDBRANCH   1  17
TORSDOF 6
ENDMDL
MODEL 7
REMARK VINA RESULT:      -6.4      2.199      7.482
REMARK  Name = 
REMARK  8 active torsions:
REMARK  status: ('A' for Active; 'I' for Inactive)
REMARK    1  A    between atoms: C_1  and  C_2
REMARK    2  A    between atoms: C_2  and  C_3
REMARK    3  A    between atoms: C_2  and  C_4
REMARK    4  A    between atoms: C_4  and  O_5
REMARK    5  A    between atoms: O_5  and  C_6
REMARK    6  A    between atoms: C_9  and  N_10
REMARK    7  A    between atoms: C_11  and  C_13
REMARK    8  A    between atoms: C_13  and  N_14
REMARK                            x       y       z     vdW  Elec       q    Type
REMARK                         _______ _______ _______ _____ _____    ______ ____
ROOT
ATOM      1  C   UNL     1       3.661   4.879  19.301  0.00  0.00    +0.000 A 
ATOM      2  C   UNL     1       3.864   6.168  18.843  0.00  0.00    +0.000 A 
ATOM      3  C   UNL     1       4.533   6.347  17.632  0.00  0.00    +0.000 A 
ATOM      4  C   UNL     1       4.959   5.240  16.905  0.00  0.00    +0.000 A 
ATOM      5  C   UNL     1       4.724   3.987  17.468  0.00  0.00    +0.000 A 
ATOM      6  N   UNL     1       4.082   3.778  18.642  0.00  0.00    +0.000 NA
ENDROOT
BRANCH   4   7
ATOM      7  N   UNL     1       5.611   5.318  15.654  0.00  0.00    +0.000 N 
ATOM      8  C   UNL     1       6.885   4.855  15.365  0.00  0.00    +0.000 C 
ATOM      9  O   UNL     1       7.663   4.337  16.161  0.00  0.00    +0.000 OA
ATOM     10  H   UNL     1       5.098   5.780  14.910  0.00  0.00    +0.000 HD
BRANCH   8  11
ATOM     11  C   UNL     1       7.299   5.054  13.928  0.00  0.00    +0.000 C 
BRANCH  11  12
ATOM     12  N   UNL     1       6.563   4.147  13.088  0.00  0.00    +0.000 N 
ATOM     13  C   UNL     1       7.039   3.366  12.084  0.00  0.00    +0.000 A 
ATOM     14  N   UNL     1       6.054   2.658  11.584  0.00  0.00    +0.000 NA
ATOM     15  C   UNL     1       4.982   3.039  12.339  0.00  0.00    +0.000 A 
ATOM     16  N   UNL     1       5.241   3.964  13.270  0.00  0.00    +0.000 NA
ENDBRANCH  11  12
ENDBRANCH   8  11
ENDBRANCH   4   7
BRANCH   1  17
ATOM     17  O   UNL     1       2.948   4.744  20.474  0.00  0.00    +0.000 OA
BRANCH  17  18
ATOM     18  C   UNL     1       1.536   4.788  20.258  0.00  0.00    +0.000 C 
BRANCH  18  20
ATOM     19  C   UNL     1       0.788   2.628  19.237  0.00  0.00    +0.000 C 
ATOM     20  C   UNL     1       0.919   3.411  20.543  0.00  0.00    +0.000 C 
ATOM     21  C   UNL     1       1.730   2.613  21.565  0.00  0.00    +0.000 C 
ENDBRANCH  18  20
ENDBRANCH  17  18
ENDBRANCH   1  17
TORSDOF 6
ENDMDL
MODEL 8
REMARK VINA RESULT:      -6.3      3.546      7.432
REMARK  Name = 
REMARK  8 active torsions:
REMARK  status: ('A' for Active; 'I' for Inactive)
REMARK    1  A    between atoms: C_1  and  C_2
REMARK    2  A    between atoms: C_2  and  C_3
REMARK    3  A    between atoms: C_2  and  C_4
REMARK    4  A    between atoms: C_4  and  O_5
REMARK    5  A    between atoms: O_5  and  C_6
REMARK    6  A    between atoms: C_9  and  N_10
REMARK    7  A    between atoms: C_11  and  C_13
REMARK    8  A    between atoms: C_13  and  N_14
REMARK                            x       y       z     vdW  Elec       q    Type
REMARK                         _______ _______ _______ _____ _____    ______ ____
ROOT
ATOM      1  C   UNL     1       1.363   9.292  19.008  0.00  0.00    +0.000 A 
ATOM      2  C   UNL     1       1.352   8.466  20.118  0.00  0.00    +0.000 A 
ATOM      3  C   UNL     1       2.102   7.290  20.081  0.00  0.00    +0.000 A 
ATOM      4  C   UNL     1       2.855   6.983  18.952  0.00  0.00    +0.000 A 
ATOM      5  C   UNL     1       2.777   7.872  17.880  0.00  0.00    +0.000 A 
ATOM      6  N   UNL     1       2.056   9.019  17.882  0.00  0.00    +0.000 NA
ENDROOT
BRANCH   4   7
ATOM      7  N   UNL     1       3.672   5.838  18.833  0.00  0.00    +0.000 N 
ATOM      8  C   UNL     1       3.353   4.669  18.159  0.00  0.00    +0.000 C 
ATOM      9  O   UNL     1       2.291   4.433  17.588  0.00  0.00    +0.000 OA
ATOM     10  H   UNL     1       4.568   5.875  19.311  0.00  0.00    +0.000 HD
BRANCH   8  11
ATOM     11  C   UNL     1       4.443   3.628  18.183  0.00  0.00    +0.000 C 
BRANCH  11  12
ATOM     12  N   UNL     1       5.711   4.258  17.920  0.00  0.00    +0.000 N 
ATOM     13  C   UNL     1       6.292   4.495  16.716  0.00  0.00    +0.000 A 
ATOM     14  N   UNL     1       7.432   5.118  16.903  0.00  0.00    +0.000 NA
ATOM     15  C   UNL     1       7.496   5.252  18.260  0.00  0.00    +0.000 A 
ATOM     16  N   UNL     1       6.467   4.726  18.933  0.00  0.00    +0.000 NA
ENDBRANCH  11  12
ENDBRANCH   8  11
ENDBRANCH   4   7
BRANCH   1  17
ATOM     17  O   UNL     1       0.653  10.470  19.106  0.00  0.00    +0.000 OA
BRANCH  17  18
ATOM     18  C   UNL     1      -0.691  10.257  19.544  0.00  0.00    +0.000 C 
BRANCH  18  20
ATOM     19  C   UNL     1      -1.255  12.277  18.176  0.00  0.00    +0.000 C 
ATOM     20  C   UNL     1      -1.675  10.850  18.524  0.00  0.00    +0.000 C 
ATOM     21  C   UNL     1      -1.777  10.000  17.258  0.00  0.00    +0.000 C 
ENDBRANCH  18  20
ENDBRANCH  17  18
ENDBRANCH   1  17
TORSDOF 6
ENDMDL
MODEL 9
REMARK VINA RESULT:      -6.3      3.753      5.518
REMARK  Name = 
REMARK  8 active torsions:
REMARK  status: ('A' for Active; 'I' for Inactive)
REMARK    1  A    between atoms: C_1  and  C_2
REMARK    2  A    between atoms: C_2  and  C_3
REMARK    3  A    between atoms: C_2  and  C_4
REMARK    4  A    between atoms: C_4  and  O_5
REMARK    5  A    between atoms: O_5  and  C_6
REMARK    6  A    between atoms: C_9  and  N_10
REMARK    7  A    between atoms: C_11  and  C_13
REMARK    8  A    between atoms: C_13  and  N_14
REMARK                            x       y       z     vdW  Elec       q    Type
REMARK                         _______ _______ _______ _____ _____    ______ ____
ROOT
ATOM      1  C   UNL     1       7.759   7.624  17.656  0.00  0.00    +0.000 A 
ATOM      2  C   UNL     1       8.151   6.913  18.776  0.00  0.00    +0.000 A 
ATOM      3  C   UNL     1       7.470   5.736  19.089  0.00  0.00    +0.000 A 
ATOM      4  C   UNL     1       6.436   5.293  18.270  0.00  0.00    +0.000 A 
ATOM      5  C   UNL     1       6.106   6.099  17.180  0.00  0.00    +0.000 A 
ATOM      6  N   UNL     1       6.744   7.247  16.850  0.00  0.00    +0.000 NA
ENDROOT
BRANCH   4   7
ATOM      7  N   UNL     1       5.712   4.100  18.483  0.00  0.00    +0.000 N 
ATOM      8  C   UNL     1       4.386   3.875  18.151  0.00  0.00    +0.000 C 
ATOM      9  O   UNL     1       3.619   4.693  17.650  0.00  0.00    +0.000 OA
ATOM     10  H   UNL     1       6.215   3.348  18.947  0.00  0.00    +0.000 HD
BRANCH   8  11
ATOM     11  C   UNL     1       3.897   2.486  18.477  0.00  0.00    +0.000 C 
BRANCH  11  12
ATOM     12  N   UNL     1       2.630   2.572  19.154  0.00  0.00    +0.000 N 
ATOM     13  C   UNL     1       1.394   2.325  18.648  0.00  0.00    +0.000 A 
ATOM     14  N   UNL     1       0.501   2.483  19.596  0.00  0.00    +0.000 NA
ATOM     15  C   UNL     1       1.255   2.820  20.683  0.00  0.00    +0.000 A 
ATOM     16  N   UNL     1       2.571   2.901  20.459  0.00  0.00    +0.000 NA
ENDBRANCH  11  12
ENDBRANCH   8  11
ENDBRANCH   4   7
BRANCH   1  17
ATOM     17  O   UNL     1       8.493   8.752  17.351  0.00  0.00    +0.000 OA
BRANCH  17  18
ATOM     18  C   UNL     1       8.236   9.827  18.256  0.00  0.00    +0.000 C 
BRANCH  18  20
ATOM     19  C   UNL     1      10.179  11.367  17.907  0.00  0.00    +0.000 C 
ATOM     20  C   UNL     1       9.556  10.339  18.851  0.00  0.00    +0.000 C 
ATOM     21  C   UNL     1       9.368  10.939  20.245  0.00  0.00    +0.000 C 
ENDBRANCH  18  20
ENDBRANCH  17  18
ENDBRANCH   1  17
TORSDOF 6
ENDMDL
