MODEL 1
REMARK VINA RESULT:      -6.5      0.000      0.000
REMARK  Name = 
REMARK  6 active torsions:
REMARK  status: ('A' for Active; 'I' for Inactive)
REMARK    1  A    between atoms: C_1  and  N_2
REMARK    2  A    between atoms: N_6  and  C_7
REMARK    3  A    between atoms: C_7  and  CA_8
REMARK    4  A    between atoms: CA_8  and  N_9
REMARK    5  A    between atoms: CA_8  and  C_10
REMARK    6  A    between atoms: C_10  and  OXT_12
REMARK                            x       y       z     vdW  Elec       q    Type
REMARK                         _______ _______ _______ _____ _____    ______ ____
ROOT
ATOM      1  C   UNL     1       3.584   1.714  18.198  0.00  0.00    +0.000 C 
ATOM      2  N   UNL     1       3.616   3.176  18.212  0.00  0.00    +0.000 NA
ATOM      3  C   UNL     1       4.553   3.679  19.256  0.00  0.00    +0.000 C 
ATOM      4  C   UNL     1       5.526   4.511  18.522  0.00  0.00    +0.000 A 
ATOM      5  C   UNL     1       5.309   4.520  17.212  0.00  0.00    +0.000 A 
ATOM      6  N   UNL     1       6.114   5.211  16.328  0.00  0.00    +0.000 N 
ATOM      7  C   UNL     1       7.150   6.008  16.816  0.00  0.00    +0.000 A 
ATOM      8  O   UNL     1       7.879   6.698  16.106  0.00  0.00    +0.000 OA
ATOM      9  N   UNL     1       7.345   5.986  18.178  0.00  0.00    +0.000 N 
ATOM     10  C   UNL     1       6.628   5.265  19.097  0.00  0.00    +0.000 A 
ATOM     11  O   UNL     1       6.878   5.257  20.293  0.00  0.00    +0.000 OA
ATOM     12  C   UNL     1       4.096   3.706  16.905  0.00  0.00    +0.000 C 
ATOM     13  H   UNL     1       8.107   6.543  18.531  0.00  0.00    +0.000 HD
ENDROOT
BRANCH   6  14
ATOM     14  C   UNL     1       5.837   5.207  14.883  0.00  0.00    +0.000 C 
BRANCH  14  15
ATOM     15  CA  UNL     1       6.879   4.486  13.992  0.00  0.00    +0.000 C 
BRANCH  15  16
ATOM     16  N   UNL     1       7.884   5.439  13.442  0.00  0.00    +0.000 NA
ATOM     17  H1  UNL     1       8.588   5.639  14.155  0.00  0.00    +0.000 HD
ATOM     18  H2  UNL     1       7.455   6.344  13.245  0.00  0.00    +0.000 HD
ENDBRANCH  15  16
BRANCH  15  19
ATOM     19  C   UNL     1       6.216   3.747  12.824  0.00  0.00    +0.000 C 
ATOM     20  O   UNL     1       6.799   3.178  11.912  0.00  0.00    +0.000 OA
BRANCH  19  21
ATOM     21  OXT UNL     1       4.864   3.711  12.954  0.00  0.00    +0.000 OA
ATOM     22  HXT UNL     1       4.579   3.605  13.886  0.00  0.00    +0.000 HD
ENDBRANCH  19  21
ENDBRANCH  15  19
ENDBRANCH  14  15
ENDBRANCH   6  14
TORSDOF 5
ENDMDL
MODEL 2
REMARK VINA RESULT:      -6.4      2.417      4.310
REMARK  Name = 
REMARK  6 active torsions:
REMARK  status: ('A' for Active; 'I' for Inactive)
REMARK    1  A    between atoms: C_1  and  N_2
REMARK    2  A    between atoms: N_6  and  C_7
REMARK    3  A    between atoms: C_7  and  CA_8
REMARK    4  A    between atoms: CA_8  and  N_9
REMARK    5  A    between atoms: CA_8  and  C_10
REMARK    6  A    between atoms: C_10  and  OXT_12
REMARK                            x       y       z     vdW  Elec       q    Type
REMARK                         _______ _______ _______ _____ _____    ______ ____
ROOT
ATOM      1  C   UNL     1       1.348   5.718  20.739  0.00  0.00    +0.000 C 
ATOM      2  N   UNL     1       2.660   5.077  20.651  0.00  0.00    +0.000 NA
ATOM      3  C   UNL     1       2.533   3.663  20.196  0.00  0.00    +0.000 C 
ATOM      4  C   UNL     1       3.355   3.584  18.973  0.00  0.00    +0.000 A 
ATOM      5  C   UNL     1       3.894   4.750  18.639  0.00  0.00    +0.000 A 
ATOM      6  N   UNL     1       4.680   4.914  17.516  0.00  0.00    +0.000 N 
ATOM      7  C   UNL     1       5.004   3.806  16.732  0.00  0.00    +0.000 A 
ATOM      8  O   UNL     1       5.740   3.852  15.749  0.00  0.00    +0.000 OA
ATOM      9  N   UNL     1       4.439   2.609  17.108  0.00  0.00    +0.000 N 
ATOM     10  C   UNL     1       3.595   2.398  18.167  0.00  0.00    +0.000 A 
ATOM     11  O   UNL     1       3.092   1.314  18.425  0.00  0.00    +0.000 OA
ATOM     12  C   UNL     1       3.523   5.776  19.659  0.00  0.00    +0.000 C 
ATOM     13  H   UNL     1       4.654   1.811  16.531  0.00  0.00    +0.000 HD
ENDROOT
BRANCH   6  14
ATOM     14  C   UNL     1       5.269   6.220  17.183  0.00  0.00    +0.000 C 
BRANCH  14  15
ATOM     15  CA  UNL     1       6.773   6.392  17.510  0.00  0.00    +0.000 C 
BRANCH  15  16
ATOM     16  N   UNL     1       7.623   6.219  16.298  0.00  0.00    +0.000 NA
ATOM     17  H1  UNL     1       8.521   6.684  16.444  0.00  0.00    +0.000 HD
ATOM     18  H2  UNL     1       7.212   6.701  15.497  0.00  0.00    +0.000 HD
ENDBRANCH  15  16
BRANCH  15  19
ATOM     19  C   UNL     1       7.241   5.399  18.580  0.00  0.00    +0.000 C 
ATOM     20  O   UNL     1       7.020   5.481  19.780  0.00  0.00    +0.000 OA
BRANCH  19  21
ATOM     21  OXT UNL     1       7.877   4.331  18.031  0.00  0.00    +0.000 OA
ATOM     22  HXT UNL     1       8.534   4.593  17.353  0.00  0.00    +0.000 HD
ENDBRANCH  19  21
ENDBRANCH  15  19
ENDBRANCH  14  15
ENDBRANCH   6  14
TORSDOF 5
ENDMDL
MODEL 3
REMARK VINA RESULT:      -6.4      1.250      1.464
REMARK  Name = 
REMARK  6 active torsions:
REMARK  status: ('A' for Active; 'I' for Inactive)
REMARK    1  A    between atoms: C_1  and  N_2
REMARK    2  A    between atoms: N_6  and  C_7
REMARK    3  A    between atoms: C_7  and  CA_8
REMARK    4  A    between atoms: CA_8  and  N_9
REMARK    5  A    between atoms: CA_8  and  C_10
REMARK    6  A    between atoms: C_10  and  OXT_12
REMARK                            x       y       z     vdW  Elec       q    Type
REMARK                         _______ _______ _______ _____ _____    ______ ____
ROOT
ATOM      1  C   UNL     1       3.151   1.949  18.125  0.00  0.00    +0.000 C 
ATOM      2  N   UNL     1       3.479   3.357  17.910  0.00  0.00    +0.000 NA
ATOM      3  C   UNL     1       4.676   3.754  18.704  0.00  0.00    +0.000 C 
ATOM      4  C   UNL     1       5.642   4.255  17.708  0.00  0.00    +0.000 A 
ATOM      5  C   UNL     1       5.191   4.161  16.462  0.00  0.00    +0.000 A 
ATOM      6  N   UNL     1       5.939   4.548  15.368  0.00  0.00    +0.000 N 
ATOM      7  C   UNL     1       7.188   5.142  15.559  0.00  0.00    +0.000 A 
ATOM      8  O   UNL     1       7.894   5.564  14.646  0.00  0.00    +0.000 OA
ATOM      9  N   UNL     1       7.624   5.233  16.861  0.00  0.00    +0.000 N 
ATOM     10  C   UNL     1       6.961   4.803  17.980  0.00  0.00    +0.000 A 
ATOM     11  O   UNL     1       7.423   4.877  19.109  0.00  0.00    +0.000 OA
ATOM     12  C   UNL     1       3.804   3.611  16.479  0.00  0.00    +0.000 C 
ATOM     13  H   UNL     1       8.535   5.642  17.000  0.00  0.00    +0.000 HD
ENDROOT
BRANCH   6  14
ATOM     14  C   UNL     1       5.403   4.439  14.003  0.00  0.00    +0.000 C 
BRANCH  14  15
ATOM     15  CA  UNL     1       6.200   3.538  13.027  0.00  0.00    +0.000 C 
BRANCH  15  16
ATOM     16  N   UNL     1       7.192   4.322  12.240  0.00  0.00    +0.000 NA
ATOM     17  H1  UNL     1       6.833   5.267  12.086  0.00  0.00    +0.000 HD
ATOM     18  H2  UNL     1       7.299   3.933  11.302  0.00  0.00    +0.000 HD
ENDBRANCH  15  16
BRANCH  15  19
ATOM     19  C   UNL     1       5.277   2.798  12.051  0.00  0.00    +0.000 C 
ATOM     20  O   UNL     1       4.214   3.216  11.614  0.00  0.00    +0.000 OA
BRANCH  19  21
ATOM     21  OXT UNL     1       5.820   1.624  11.637  0.00  0.00    +0.000 OA
ATOM     22  HXT UNL     1       5.758   1.503  10.667  0.00  0.00    +0.000 HD
ENDBRANCH  19  21
ENDBRANCH  15  19
ENDBRANCH  14  15
ENDBRANCH   6  14
TORSDOF 5
ENDMDL
MODEL 4
REMARK VINA RESULT:      -6.3      3.159      5.408
REMARK  Name = 
REMARK  6 active torsions:
REMARK  status: ('A' for Active; 'I' for Inactive)
REMARK    1  A    between atoms: C_1  and  N_2
REMARK    2  A    between atoms: N_6  and  C_7
REMARK    3  A    between atoms: C_7  and  CA_8
REMARK    4  A    between atoms: CA_8  and  N_9
REMARK    5  A    between atoms: CA_8  and  C_10
REMARK    6  A    between atoms: C_10  and  OXT_12
REMARK                            x       y       z     vdW  Elec       q    Type
REMARK                         _______ _______ _______ _____ _____    ______ ____
ROOT
ATOM      1  C   UNL     1       5.652   4.943  14.928  0.00  0.00    +0.000 C 
ATOM      2  N   UNL     1       5.822   5.470  16.281  0.00  0.00    +0.000 NA
ATOM      3  C   UNL     1       4.913   6.628  16.521  0.00  0.00    +0.000 C 
ATOM      4  C   UNL     1       4.102   6.235  17.690  0.00  0.00    +0.000 A 
ATOM      5  C   UNL     1       4.382   5.011  18.123  0.00  0.00    +0.000 A 
ATOM      6  N   UNL     1       3.726   4.430  19.189  0.00  0.00    +0.000 N 
ATOM      7  C   UNL     1       2.787   5.170  19.909  0.00  0.00    +0.000 A 
ATOM      8  O   UNL     1       2.197   4.750  20.902  0.00  0.00    +0.000 OA
ATOM      9  N   UNL     1       2.524   6.437  19.443  0.00  0.00    +0.000 N 
ATOM     10  C   UNL     1       3.088   7.042  18.350  0.00  0.00    +0.000 A 
ATOM     11  O   UNL     1       2.781   8.160  17.962  0.00  0.00    +0.000 OA
ATOM     12  C   UNL     1       5.485   4.435  17.298  0.00  0.00    +0.000 C 
ATOM     13  H   UNL     1       1.830   6.965  19.948  0.00  0.00    +0.000 HD
ENDROOT
BRANCH   6  14
ATOM     14  C   UNL     1       4.070   3.075  19.648  0.00  0.00    +0.000 C 
BRANCH  14  15
ATOM     15  CA  UNL     1       3.183   1.927  19.106  0.00  0.00    +0.000 C 
BRANCH  15  16
ATOM     16  N   UNL     1       3.975   0.950  18.308  0.00  0.00    +0.000 NA
ATOM     17  H1  UNL     1       3.576   0.874  17.370  0.00  0.00    +0.000 HD
ATOM     18  H2  UNL     1       3.891   0.010  18.698  0.00  0.00    +0.000 HD
ENDBRANCH  15  16
BRANCH  15  19
ATOM     19  C   UNL     1       2.037   2.454  18.235  0.00  0.00    +0.000 C 
ATOM     20  O   UNL     1       2.107   2.721  17.043  0.00  0.00    +0.000 OA
BRANCH  19  21
ATOM     21  OXT UNL     1       0.867   2.515  18.925  0.00  0.00    +0.000 OA
ATOM     22  HXT UNL     1       0.556   1.633  19.216  0.00  0.00    +0.000 HD
ENDBRANCH  19  21
ENDBRANCH  15  19
ENDBRANCH  14  15
ENDBRANCH   6  14
TORSDOF 5
ENDMDL
MODEL 5
REMARK VINA RESULT:      -6.3      2.848      3.857
REMARK  Name = 
REMARK  6 active torsions:
REMARK  status: ('A' for Active; 'I' for Inactive)
REMARK    1  A    between atoms: C_1  and  N_2
REMARK    2  A    between atoms: N_6  and  C_7
REMARK    3  A    between atoms: C_7  and  CA_8
REMARK    4  A    between atoms: CA_8  and  N_9
REMARK    5  A    between atoms: CA_8  and  C_10
REMARK    6  A    between atoms: C_10  and  OXT_12
REMARK                            x       y       z     vdW  Elec       q    Type
REMARK                         _______ _______ _______ _____ _____    ______ ____
ROOT
ATOM      1  C   UNL     1       2.321   2.824  21.425  0.00  0.00    +0.000 C 
ATOM      2  N   UNL     1       1.783   3.488  20.238  0.00  0.00    +0.000 NA
ATOM      3  C   UNL     1       1.557   4.940  20.495  0.00  0.00    +0.000 C 
ATOM      4  C   UNL     1       2.366   5.634  19.475  0.00  0.00    +0.000 A 
ATOM      5  C   UNL     1       3.052   4.797  18.705  0.00  0.00    +0.000 A 
ATOM      6  N   UNL     1       3.895   5.230  17.701  0.00  0.00    +0.000 N 
ATOM      7  C   UNL     1       3.981   6.592  17.409  0.00  0.00    +0.000 A 
ATOM      8  O   UNL     1       4.663   7.058  16.499  0.00  0.00    +0.000 OA
ATOM      9  N   UNL     1       3.252   7.434  18.218  0.00  0.00    +0.000 N 
ATOM     10  C   UNL     1       2.456   7.071  19.273  0.00  0.00    +0.000 A 
ATOM     11  O   UNL     1       1.863   7.873  19.979  0.00  0.00    +0.000 OA
ATOM     12  C   UNL     1       2.739   3.392  19.100  0.00  0.00    +0.000 C 
ATOM     13  H   UNL     1       3.329   8.419  18.023  0.00  0.00    +0.000 HD
ENDROOT
BRANCH   6  14
ATOM     14  C   UNL     1       4.633   4.273  16.861  0.00  0.00    +0.000 C 
BRANCH  14  15
ATOM     15  CA  UNL     1       6.101   3.998  17.270  0.00  0.00    +0.000 C 
BRANCH  15  16
ATOM     16  N   UNL     1       6.324   4.251  18.722  0.00  0.00    +0.000 NA
ATOM     17  H1  UNL     1       5.721   3.634  19.270  0.00  0.00    +0.000 HD
ATOM     18  H2  UNL     1       6.025   5.194  18.975  0.00  0.00    +0.000 HD
ENDBRANCH  15  16
BRANCH  15  19
ATOM     19  C   UNL     1       7.086   4.857  16.468  0.00  0.00    +0.000 C 
ATOM     20  O   UNL     1       7.417   4.671  15.306  0.00  0.00    +0.000 OA
BRANCH  19  21
ATOM     21  OXT UNL     1       7.504   5.938  17.177  0.00  0.00    +0.000 OA
ATOM     22  HXT UNL     1       6.942   6.726  17.027  0.00  0.00    +0.000 HD
ENDBRANCH  19  21
ENDBRANCH  15  19
ENDBRANCH  14  15
ENDBRANCH   6  14
TORSDOF 5
ENDMDL
MODEL 6
REMARK VINA RESULT:      -6.3      3.055      4.568
REMARK  Name = 
REMARK  6 active torsions:
REMARK  status: ('A' for Active; 'I' for Inactive)
REMARK    1  A    between atoms: C_1  and  N_2
REMARK    2  A    between atoms: N_6  and  C_7
REMARK    3  A    between atoms: C_7  and  CA_8
REMARK    4  A    between atoms: CA_8  and  N_9
REMARK    5  A    between atoms: CA_8  and  C_10
REMARK    6  A    between atoms: C_10  and  OXT_12
REMARK                            x       y       z     vdW  Elec       q    Type
REMARK                         _______ _______ _______ _____ _____    ______ ____
ROOT
ATOM      1  C   UNL     1       2.106   8.637  17.747  0.00  0.00    +0.000 C 
ATOM      2  N   UNL     1       2.984   7.760  18.521  0.00  0.00    +0.000 NA
ATOM      3  C   UNL     1       2.197   6.914  19.463  0.00  0.00    +0.000 C 
ATOM      4  C   UNL     1       2.538   5.526  19.100  0.00  0.00    +0.000 A 
ATOM      5  C   UNL     1       3.366   5.453  18.064  0.00  0.00    +0.000 A 
ATOM      6  N   UNL     1       3.797   4.252  17.538  0.00  0.00    +0.000 N 
ATOM      7  C   UNL     1       3.430   3.055  18.154  0.00  0.00    +0.000 A 
ATOM      8  O   UNL     1       3.813   1.947  17.785  0.00  0.00    +0.000 OA
ATOM      9  N   UNL     1       2.580   3.162  19.231  0.00  0.00    +0.000 N 
ATOM     10  C   UNL     1       2.061   4.318  19.753  0.00  0.00    +0.000 A 
ATOM     11  O   UNL     1       1.275   4.342  20.690  0.00  0.00    +0.000 OA
ATOM     12  C   UNL     1       3.728   6.833  17.623  0.00  0.00    +0.000 C 
ATOM     13  H   UNL     1       2.296   2.298  19.664  0.00  0.00    +0.000 HD
ENDROOT
BRANCH   6  14
ATOM     14  C   UNL     1       4.723   4.211  16.395  0.00  0.00    +0.000 C 
BRANCH  14  15
ATOM     15  CA  UNL     1       6.233   4.257  16.739  0.00  0.00    +0.000 C 
BRANCH  15  16
ATOM     16  N   UNL     1       6.462   4.229  18.212  0.00  0.00    +0.000 NA
ATOM     17  H1  UNL     1       5.859   4.920  18.662  0.00  0.00    +0.000 HD
ATOM     18  H2  UNL     1       7.411   4.532  18.435  0.00  0.00    +0.000 HD
ENDBRANCH  15  16
BRANCH  15  19
ATOM     19  C   UNL     1       6.911   5.505  16.163  0.00  0.00    +0.000 C 
ATOM     20  O   UNL     1       7.060   6.571  16.741  0.00  0.00    +0.000 OA
BRANCH  19  21
ATOM     21  OXT UNL     1       7.429   5.270  14.928  0.00  0.00    +0.000 OA
ATOM     22  HXT UNL     1       7.908   4.418  14.877  0.00  0.00    +0.000 HD
ENDBRANCH  19  21
ENDBRANCH  15  19
ENDBRANCH  14  15
ENDBRANCH   6  14
TORSDOF 5
ENDMDL
MODEL 7
REMARK VINA RESULT:      -6.2      2.860      3.975
REMARK  Name = 
REMARK  6 active torsions:
REMARK  status: ('A' for Active; 'I' for Inactive)
REMARK    1  A    between atoms: C_1  and  N_2
REMARK    2  A    between atoms: N_6  and  C_7
REMARK    3  A    between atoms: C_7  and  CA_8
REMARK    4  A    between atoms: CA_8  and  N_9
REMARK    5  A    between atoms: CA_8  and  C_10
REMARK    6  A    between atoms: C_10  and  OXT_12
REMARK                            x       y       z     vdW  Elec       q    Type
REMARK                         _______ _______ _______ _____ _____    ______ ____
ROOT
ATOM      1  C   UNL     1       4.585   1.808  20.804  0.00  0.00    +0.000 C 
ATOM      2  N   UNL     1       3.634   2.362  19.841  0.00  0.00    +0.000 NA
ATOM      3  C   UNL     1       2.745   3.369  20.488  0.00  0.00    +0.000 C 
ATOM      4  C   UNL     1       2.951   4.607  19.712  0.00  0.00    +0.000 A 
ATOM      5  C   UNL     1       3.856   4.468  18.751  0.00  0.00    +0.000 A 
ATOM      6  N   UNL     1       4.226   5.506  17.919  0.00  0.00    +0.000 N 
ATOM      7  C   UNL     1       3.575   6.737  18.019  0.00  0.00    +0.000 A 
ATOM      8  O   UNL     1       3.802   7.695  17.284  0.00  0.00    +0.000 OA
ATOM      9  N   UNL     1       2.635   6.848  19.018  0.00  0.00    +0.000 N 
ATOM     10  C   UNL     1       2.278   5.879  19.919  0.00  0.00    +0.000 A 
ATOM     11  O   UNL     1       1.462   6.055  20.812  0.00  0.00    +0.000 OA
ATOM     12  C   UNL     1       4.348   3.059  18.736  0.00  0.00    +0.000 C 
ATOM     13  H   UNL     1       2.179   7.743  19.106  0.00  0.00    +0.000 HD
ENDROOT
BRANCH   6  14
ATOM     14  C   UNL     1       5.225   5.312  16.858  0.00  0.00    +0.000 C 
BRANCH  14  15
ATOM     15  CA  UNL     1       6.640   5.873  17.143  0.00  0.00    +0.000 C 
BRANCH  15  16
ATOM     16  N   UNL     1       7.408   6.095  15.885  0.00  0.00    +0.000 NA
ATOM     17  H1  UNL     1       7.688   7.076  15.827  0.00  0.00    +0.000 HD
ATOM     18  H2  UNL     1       6.813   5.949  15.068  0.00  0.00    +0.000 HD
ENDBRANCH  15  16
BRANCH  15  19
ATOM     19  C   UNL     1       7.450   4.940  18.052  0.00  0.00    +0.000 C 
ATOM     20  O   UNL     1       8.269   4.111  17.681  0.00  0.00    +0.000 OA
BRANCH  19  21
ATOM     21  OXT UNL     1       7.223   5.198  19.367  0.00  0.00    +0.000 OA
ATOM     22  HXT UNL     1       7.087   6.152  19.545  0.00  0.00    +0.000 HD
ENDBRANCH  19  21
ENDBRANCH  15  19
ENDBRANCH  14  15
ENDBRANCH   6  14
TORSDOF 5
ENDMDL
MODEL 8
REMARK VINA RESULT:      -6.2      2.678      5.124
REMARK  Name = 
REMARK  6 active torsions:
REMARK  status: ('A' for Active; 'I' for Inactive)
REMARK    1  A    between atoms: C_1  and  N_2
REMARK    2  A    between atoms: N_6  and  C_7
REMARK    3  A    between atoms: C_7  and  CA_8
REMARK    4  A    between atoms: CA_8  and  N_9
REMARK    5  A    between atoms: CA_8  and  C_10
REMARK    6  A    between atoms: C_10  and  OXT_12
REMARK                            x       y       z     vdW  Elec       q    Type
REMARK                         _______ _______ _______ _____ _____    ______ ____
ROOT
ATOM      1  C   UNL     1       6.113   3.827  13.139  0.00  0.00    +0.000 C 
ATOM      2  N   UNL     1       6.443   3.756  14.562  0.00  0.00    +0.000 NA
ATOM      3  C   UNL     1       7.017   5.046  15.042  0.00  0.00    +0.000 C 
ATOM      4  C   UNL     1       6.126   5.470  16.139  0.00  0.00    +0.000 A 
ATOM      5  C   UNL     1       5.107   4.639  16.325  0.00  0.00    +0.000 A 
ATOM      6  N   UNL     1       4.135   4.855  17.282  0.00  0.00    +0.000 N 
ATOM      7  C   UNL     1       4.253   5.937  18.155  0.00  0.00    +0.000 A 
ATOM      8  O   UNL     1       3.465   6.171  19.069  0.00  0.00    +0.000 OA
ATOM      9  N   UNL     1       5.324   6.775  17.944  0.00  0.00    +0.000 N 
ATOM     10  C   UNL     1       6.279   6.654  16.968  0.00  0.00    +0.000 A 
ATOM     11  O   UNL     1       7.185   7.459  16.807  0.00  0.00    +0.000 OA
ATOM     12  C   UNL     1       5.222   3.494  15.374  0.00  0.00    +0.000 C 
ATOM     13  H   UNL     1       5.399   7.569  18.560  0.00  0.00    +0.000 HD
ENDROOT
BRANCH   6  14
ATOM     14  C   UNL     1       3.026   3.906  17.467  0.00  0.00    +0.000 C 
BRANCH  14  15
ATOM     15  CA  UNL     1       3.390   2.552  18.123  0.00  0.00    +0.000 C 
BRANCH  15  16
ATOM     16  N   UNL     1       2.242   1.602  18.096  0.00  0.00    +0.000 NA
ATOM     17  H1  UNL     1       1.589   1.837  18.847  0.00  0.00    +0.000 HD
ATOM     18  H2  UNL     1       2.552   0.654  18.314  0.00  0.00    +0.000 HD
ENDBRANCH  15  16
BRANCH  15  19
ATOM     19  C   UNL     1       3.845   2.727  19.577  0.00  0.00    +0.000 C 
ATOM     20  O   UNL     1       3.140   3.083  20.510  0.00  0.00    +0.000 OA
BRANCH  19  21
ATOM     21  OXT UNL     1       5.139   2.347  19.748  0.00  0.00    +0.000 OA
ATOM     22  HXT UNL     1       5.355   2.162  20.686  0.00  0.00    +0.000 HD
ENDBRANCH  19  21
ENDBRANCH  15  19
ENDBRANCH  14  15
ENDBRANCH   6  14
TORSDOF 5
ENDMDL
MODEL 9
REMARK VINA RESULT:      -6.2      2.736      3.766
REMARK  Name = 
REMARK  6 active torsions:
REMARK  status: ('A' for Active; 'I' for Inactive)
REMARK    1  A    between atoms: C_1  and  N_2
REMARK    2  A    between atoms: N_6  and  C_7
REMARK    3  A    between atoms: C_7  and  CA_8
REMARK    4  A    between atoms: CA_8  and  N_9
REMARK    5  A    between atoms: CA_8  and  C_10
REMARK    6  A    between atoms: C_10  and  OXT_12
REMARK                            x       y       z     vdW  Elec       q    Type
REMARK                         _______ _______ _______ _____ _____    ______ ____
ROOT
ATOM      1  C   UNL     1       4.757   1.783  20.576  0.00  0.00    +0.000 C 
ATOM      2  N   UNL     1       3.721   2.324  19.698  0.00  0.00    +0.000 NA
ATOM      3  C   UNL     1       2.790   3.210  20.454  0.00  0.00    +0.000 C 
ATOM      4  C   UNL     1       2.862   4.512  19.763  0.00  0.00    +0.000 A 
ATOM      5  C   UNL     1       3.728   4.512  18.756  0.00  0.00    +0.000 A 
ATOM      6  N   UNL     1       3.975   5.631  17.986  0.00  0.00    +0.000 N 
ATOM      7  C   UNL     1       3.237   6.796  18.203  0.00  0.00    +0.000 A 
ATOM      8  O   UNL     1       3.354   7.818  17.530  0.00  0.00    +0.000 OA
ATOM      9  N   UNL     1       2.342   6.763  19.247  0.00  0.00    +0.000 N 
ATOM     10  C   UNL     1       2.105   5.709  20.090  0.00  0.00    +0.000 A 
ATOM     11  O   UNL     1       1.322   5.757  21.028  0.00  0.00    +0.000 OA
ATOM     12  C   UNL     1       4.325   3.151  18.616  0.00  0.00    +0.000 C 
ATOM     13  H   UNL     1       1.824   7.610  19.419  0.00  0.00    +0.000 HD
ENDROOT
BRANCH   6  14
ATOM     14  C   UNL     1       4.933   5.592  16.871  0.00  0.00    +0.000 C 
BRANCH  14  15
ATOM     15  CA  UNL     1       6.388   6.004  17.207  0.00  0.00    +0.000 C 
BRANCH  15  16
ATOM     16  N   UNL     1       6.650   7.429  16.858  0.00  0.00    +0.000 NA
ATOM     17  H1  UNL     1       6.756   7.975  17.715  0.00  0.00    +0.000 HD
ATOM     18  H2  UNL     1       5.841   7.841  16.390  0.00  0.00    +0.000 HD
ENDBRANCH  15  16
BRANCH  15  19
ATOM     19  C   UNL     1       7.413   5.127  16.479  0.00  0.00    +0.000 C 
ATOM     20  O   UNL     1       8.043   4.202  16.971  0.00  0.00    +0.000 OA
BRANCH  19  21
ATOM     21  OXT UNL     1       7.489   5.434  15.157  0.00  0.00    +0.000 OA
ATOM     22  HXT UNL     1       6.818   6.095  14.886  0.00  0.00    +0.000 HD
ENDBRANCH  19  21
ENDBRANCH  15  19
ENDBRANCH  14  15
ENDBRANCH   6  14
TORSDOF 5
ENDMDL
