MODEL 1
REMARK VINA RESULT:      -8.7      0.000      0.000
REMARK  Name = 
REMARK  7 active torsions:
REMARK  status: ('A' for Active; 'I' for Inactive)
REMARK    1  A    between atoms: C_1  and  O_2
REMARK    2  A    between atoms: O_2  and  C_3
REMARK    3  A    between atoms: C_5  and  C_6
REMARK    4  A    between atoms: C_10  and  C_11
REMARK    5  A    between atoms: C_25  and  C_26
REMARK    6  A    between atoms: C_26  and  N_27
REMARK    7  A    between atoms: C_31  and  C_32
REMARK                            x       y       z     vdW  Elec       q    Type
REMARK                         _______ _______ _______ _____ _____    ______ ____
ROOT
ATOM      1  C   UNL     1      -2.002  12.147  19.725  0.00  0.00    +0.000 A 
ATOM      2  C   UNL     1      -1.142  11.181  19.161  0.00  0.00    +0.000 A 
ATOM      3  C   UNL     1       0.179  10.976  19.674  0.00  0.00    +0.000 A 
ATOM      4  C   UNL     1       0.570  11.793  20.762  0.00  0.00    +0.000 A 
ATOM      5  C   UNL     1      -0.280  12.759  21.318  0.00  0.00    +0.000 A 
ATOM      6  C   UNL     1      -1.560  12.967  20.786  0.00  0.00    +0.000 A 
ENDROOT
BRANCH   3   7
ATOM      7  C   UNL     1       1.129   9.901  19.192  0.00  0.00    +0.000 A 
ATOM      8  C   UNL     1       1.742  10.048  17.917  0.00  0.00    +0.000 A 
ATOM      9  C   UNL     1       2.610   9.103  17.373  0.00  0.00    +0.000 A 
ATOM     10  C   UNL     1       2.908   7.953  18.085  0.00  0.00    +0.000 A 
ATOM     11  C   UNL     1       2.250   7.666  19.302  0.00  0.00    +0.000 A 
ATOM     12  C   UNL     1       1.381   8.668  19.862  0.00  0.00    +0.000 A 
ATOM     13 CL   UNL     1       0.496   8.321  21.325  0.00  0.00    +0.000 Cl
BRANCH  11  14
ATOM     14  C   UNL     1       2.276   6.242  19.758  0.00  0.00    +0.000 A 
ATOM     15  C   UNL     1       1.286   5.623  20.529  0.00  0.00    +0.000 A 
ATOM     16  C   UNL     1       1.218   4.226  20.626  0.00  0.00    +0.000 A 
ATOM     17  C   UNL     1       2.178   3.433  19.988  0.00  0.00    +0.000 A 
ATOM     18  C   UNL     1       3.248   4.047  19.359  0.00  0.00    +0.000 A 
ATOM     19  C   UNL     1       3.319   5.427  19.264  0.00  0.00    +0.000 A 
ATOM     20  O   UNL     1       4.242   3.353  18.718  0.00  0.00    +0.000 OA
ATOM     21  C   UNL     1       3.639   2.214  18.105  0.00  0.00    +0.000 C 
ATOM     22  C   UNL     1       2.936   1.367  19.158  0.00  0.00    +0.000 C 
ATOM     23  O   UNL     1       1.959   2.081  19.937  0.00  0.00    +0.000 OA
ENDBRANCH  11  14
ENDBRANCH   3   7
BRANCH   1  25
ATOM     24  C   UNL     1      -4.066  11.679  18.462  0.00  0.00    +0.000 C 
ATOM     25  O   UNL     1      -3.365  12.200  19.570  0.00  0.00    +0.000 OA
ENDBRANCH   1  25
BRANCH   6  26
ATOM     26  C   UNL     1      -2.558  13.937  21.403  0.00  0.00    +0.000 C 
BRANCH  26  27
ATOM     27  N   UNL     1      -2.806  13.859  22.844  0.00  0.00    +0.000 NA
ATOM     28  C   UNL     1      -3.696  14.903  23.379  0.00  0.00    +0.000 C 
ATOM     29  C   UNL     1      -5.221  14.666  23.414  0.00  0.00    +0.000 C 
ATOM     30  N   UNL     1      -5.633  13.299  23.721  0.00  0.00    +0.000 N 
ATOM     31  C   UNL     1      -6.953  12.946  24.012  0.00  0.00    +0.000 C 
ATOM     32  C   UNL     1      -7.916  14.011  24.487  0.00  0.00    +0.000 C 
ATOM     33  O   UNL     1      -7.349  11.787  23.933  0.00  0.00    +0.000 OA
ATOM     34  C   UNL     1      -4.809  12.252  23.119  0.00  0.00    +0.000 C 
ATOM     35  C   UNL     1      -3.294  12.507  23.191  0.00  0.00    +0.000 C 
ENDBRANCH  26  27
ENDBRANCH   6  26
TORSDOF 5
ENDMDL
MODEL 2
REMARK VINA RESULT:      -8.7      2.656      3.818
REMARK  Name = 
REMARK  7 active torsions:
REMARK  status: ('A' for Active; 'I' for Inactive)
REMARK    1  A    between atoms: C_1  and  O_2
REMARK    2  A    between atoms: O_2  and  C_3
REMARK    3  A    between atoms: C_5  and  C_6
REMARK    4  A    between atoms: C_10  and  C_11
REMARK    5  A    between atoms: C_25  and  C_26
REMARK    6  A    between atoms: C_26  and  N_27
REMARK    7  A    between atoms: C_31  and  C_32
REMARK                            x       y       z     vdW  Elec       q    Type
REMARK                         _______ _______ _______ _____ _____    ______ ____
ROOT
ATOM      1  C   UNL     1      -0.532  10.557  19.940  0.00  0.00    +0.000 A 
ATOM      2  C   UNL     1       0.222   9.429  19.557  0.00  0.00    +0.000 A 
ATOM      3  C   UNL     1       0.901   8.627  20.530  0.00  0.00    +0.000 A 
ATOM      4  C   UNL     1       0.778   9.032  21.881  0.00  0.00    +0.000 A 
ATOM      5  C   UNL     1       0.035  10.158  22.262  0.00  0.00    +0.000 A 
ATOM      6  C   UNL     1      -0.599  10.948  21.295  0.00  0.00    +0.000 A 
ENDROOT
BRANCH   3   7
ATOM      7  C   UNL     1       1.652   7.351  20.217  0.00  0.00    +0.000 A 
ATOM      8  C   UNL     1       1.479   6.226  21.070  0.00  0.00    +0.000 A 
ATOM      9  C   UNL     1       2.143   5.015  20.883  0.00  0.00    +0.000 A 
ATOM     10  C   UNL     1       3.023   4.871  19.823  0.00  0.00    +0.000 A 
ATOM     11  C   UNL     1       3.349   5.972  18.999  0.00  0.00    +0.000 A 
ATOM     12  C   UNL     1       2.629   7.204  19.190  0.00  0.00    +0.000 A 
ATOM     13 CL   UNL     1       3.056   8.606  18.242  0.00  0.00    +0.000 Cl
BRANCH  11  14
ATOM     14  C   UNL     1       4.609   5.862  18.202  0.00  0.00    +0.000 A 
ATOM     15  C   UNL     1       5.869   5.546  18.723  0.00  0.00    +0.000 A 
ATOM     16  C   UNL     1       6.913   5.136  17.881  0.00  0.00    +0.000 A 
ATOM     17  C   UNL     1       6.718   5.088  16.497  0.00  0.00    +0.000 A 
ATOM     18  C   UNL     1       5.525   5.552  15.969  0.00  0.00    +0.000 A 
ATOM     19  C   UNL     1       4.493   5.960  16.797  0.00  0.00    +0.000 A 
ATOM     20  O   UNL     1       5.248   5.555  14.625  0.00  0.00    +0.000 OA
ATOM     21  C   UNL     1       5.844   4.386  14.066  0.00  0.00    +0.000 C 
ATOM     22  C   UNL     1       7.342   4.382  14.342  0.00  0.00    +0.000 C 
ATOM     23  O   UNL     1       7.688   4.492  15.735  0.00  0.00    +0.000 OA
ENDBRANCH  11  14
ENDBRANCH   3   7
BRANCH   1  25
ATOM     24  C   UNL     1      -1.799  10.842  17.844  0.00  0.00    +0.000 C 
ATOM     25  O   UNL     1      -1.488  11.182  19.178  0.00  0.00    +0.000 OA
ENDBRANCH   1  25
BRANCH   6  26
ATOM     26  C   UNL     1      -1.491  12.129  21.655  0.00  0.00    +0.000 C 
BRANCH  26  27
ATOM     27  N   UNL     1      -1.657  12.471  23.069  0.00  0.00    +0.000 NA
ATOM     28  C   UNL     1      -1.344  13.869  23.410  0.00  0.00    +0.000 C 
ATOM     29  C   UNL     1      -2.451  14.942  23.336  0.00  0.00    +0.000 C 
ATOM     30  N   UNL     1      -3.779  14.498  23.749  0.00  0.00    +0.000 N 
ATOM     31  C   UNL     1      -4.847  15.374  23.959  0.00  0.00    +0.000 C 
ATOM     32  C   UNL     1      -4.563  16.834  24.233  0.00  0.00    +0.000 C 
ATOM     33  O   UNL     1      -6.013  14.990  23.968  0.00  0.00    +0.000 OA
ATOM     34  C   UNL     1      -4.136  13.142  23.335  0.00  0.00    +0.000 C 
ATOM     35  C   UNL     1      -3.019  12.102  23.512  0.00  0.00    +0.000 C 
ENDBRANCH  26  27
ENDBRANCH   6  26
TORSDOF 5
ENDMDL
MODEL 3
REMARK VINA RESULT:      -8.5      4.963     11.012
REMARK  Name = 
REMARK  7 active torsions:
REMARK  status: ('A' for Active; 'I' for Inactive)
REMARK    1  A    between atoms: C_1  and  O_2
REMARK    2  A    between atoms: O_2  and  C_3
REMARK    3  A    between atoms: C_5  and  C_6
REMARK    4  A    between atoms: C_10  and  C_11
REMARK    5  A    between atoms: C_25  and  C_26
REMARK    6  A    between atoms: C_26  and  N_27
REMARK    7  A    between atoms: C_31  and  C_32
REMARK                            x       y       z     vdW  Elec       q    Type
REMARK                         _______ _______ _______ _____ _____    ______ ____
ROOT
ATOM      1  C   UNL     1       1.715   4.586  19.903  0.00  0.00    +0.000 A 
ATOM      2  C   UNL     1       1.452   5.798  20.575  0.00  0.00    +0.000 A 
ATOM      3  C   UNL     1       1.646   7.061  19.928  0.00  0.00    +0.000 A 
ATOM      4  C   UNL     1       2.118   7.023  18.594  0.00  0.00    +0.000 A 
ATOM      5  C   UNL     1       2.388   5.819  17.928  0.00  0.00    +0.000 A 
ATOM      6  C   UNL     1       2.219   4.593  18.585  0.00  0.00    +0.000 A 
ENDROOT
BRANCH   3   7
ATOM      7  C   UNL     1       1.300   8.401  20.541  0.00  0.00    +0.000 A 
ATOM      8  C   UNL     1       0.862   8.445  21.893  0.00  0.00    +0.000 A 
ATOM      9  C   UNL     1       0.497   9.624  22.540  0.00  0.00    +0.000 A 
ATOM     10  C   UNL     1       0.550  10.828  21.857  0.00  0.00    +0.000 A 
ATOM     11  C   UNL     1       0.854  10.863  20.477  0.00  0.00    +0.000 A 
ATOM     12  C   UNL     1       1.259   9.639  19.836  0.00  0.00    +0.000 A 
ATOM     13 CL   UNL     1       1.571   9.630  18.119  0.00  0.00    +0.000 Cl
BRANCH  11  14
ATOM     14  C   UNL     1       0.449  12.095  19.733  0.00  0.00    +0.000 A 
ATOM     15  C   UNL     1      -0.864  12.556  19.589  0.00  0.00    +0.000 A 
ATOM     16  C   UNL     1      -1.123  13.872  19.178  0.00  0.00    +0.000 A 
ATOM     17  C   UNL     1      -0.064  14.725  18.855  0.00  0.00    +0.000 A 
ATOM     18  C   UNL     1       1.226  14.223  18.843  0.00  0.00    +0.000 A 
ATOM     19  C   UNL     1       1.485  12.924  19.247  0.00  0.00    +0.000 A 
ATOM     20  O   UNL     1       2.326  14.980  18.529  0.00  0.00    +0.000 OA
ATOM     21  C   UNL     1       2.099  16.292  19.042  0.00  0.00    +0.000 C 
ATOM     22  C   UNL     1       0.818  16.868  18.452  0.00  0.00    +0.000 C 
ATOM     23  O   UNL     1      -0.348  16.051  18.658  0.00  0.00    +0.000 OA
ENDBRANCH  11  14
ENDBRANCH   3   7
BRANCH   1  25
ATOM     24  C   UNL     1       1.532   2.715  21.499  0.00  0.00    +0.000 C 
ATOM     25  O   UNL     1       1.250   3.347  20.269  0.00  0.00    +0.000 OA
ENDBRANCH   1  25
BRANCH   6  26
ATOM     26  C   UNL     1       2.410   3.253  17.886  0.00  0.00    +0.000 C 
BRANCH  26  27
ATOM     27  N   UNL     1       3.776   2.788  17.634  0.00  0.00    +0.000 NA
ATOM     28  C   UNL     1       4.536   3.590  16.663  0.00  0.00    +0.000 C 
ATOM     29  C   UNL     1       5.365   4.799  17.147  0.00  0.00    +0.000 C 
ATOM     30  N   UNL     1       6.022   4.626  18.440  0.00  0.00    +0.000 N 
ATOM     31  C   UNL     1       6.982   5.513  18.934  0.00  0.00    +0.000 C 
ATOM     32  C   UNL     1       7.726   6.410  17.969  0.00  0.00    +0.000 C 
ATOM     33  O   UNL     1       7.272   5.561  20.125  0.00  0.00    +0.000 OA
ATOM     34  C   UNL     1       5.237   3.910  19.444  0.00  0.00    +0.000 C 
ATOM     35  C   UNL     1       4.502   2.667  18.917  0.00  0.00    +0.000 C 
ENDBRANCH  26  27
ENDBRANCH   6  26
TORSDOF 5
ENDMDL
MODEL 4
REMARK VINA RESULT:      -8.2      1.885      3.060
REMARK  Name = 
REMARK  7 active torsions:
REMARK  status: ('A' for Active; 'I' for Inactive)
REMARK    1  A    between atoms: C_1  and  O_2
REMARK    2  A    between atoms: O_2  and  C_3
REMARK    3  A    between atoms: C_5  and  C_6
REMARK    4  A    between atoms: C_10  and  C_11
REMARK    5  A    between atoms: C_25  and  C_26
REMARK    6  A    between atoms: C_26  and  N_27
REMARK    7  A    between atoms: C_31  and  C_32
REMARK                            x       y       z     vdW  Elec       q    Type
REMARK                         _______ _______ _______ _____ _____    ______ ____
ROOT
ATOM      1  C   UNL     1      -2.049  12.254  20.222  0.00  0.00    +0.000 A 
ATOM      2  C   UNL     1      -1.148  11.413  19.536  0.00  0.00    +0.000 A 
ATOM      3  C   UNL     1      -0.027  10.826  20.206  0.00  0.00    +0.000 A 
ATOM      4  C   UNL     1       0.126  11.140  21.578  0.00  0.00    +0.000 A 
ATOM      5  C   UNL     1      -0.764  11.982  22.259  0.00  0.00    +0.000 A 
ATOM      6  C   UNL     1      -1.840  12.571  21.582  0.00  0.00    +0.000 A 
ENDROOT
BRANCH   3   7
ATOM      7  C   UNL     1       0.931   9.841  19.572  0.00  0.00    +0.000 A 
ATOM      8  C   UNL     1       1.432  10.112  18.269  0.00  0.00    +0.000 A 
ATOM      9  C   UNL     1       2.298   9.257  17.590  0.00  0.00    +0.000 A 
ATOM     10  C   UNL     1       2.707   8.077  18.187  0.00  0.00    +0.000 A 
ATOM     11  C   UNL     1       2.165   7.668  19.426  0.00  0.00    +0.000 A 
ATOM     12  C   UNL     1       1.297   8.579  20.125  0.00  0.00    +0.000 A 
ATOM     13 CL   UNL     1       0.550   8.080  21.622  0.00  0.00    +0.000 Cl
BRANCH  11  14
ATOM     14  C   UNL     1       2.296   6.219  19.770  0.00  0.00    +0.000 A 
ATOM     15  C   UNL     1       1.368   5.477  20.509  0.00  0.00    +0.000 A 
ATOM     16  C   UNL     1       1.395   4.075  20.497  0.00  0.00    +0.000 A 
ATOM     17  C   UNL     1       2.390   3.401  19.783  0.00  0.00    +0.000 A 
ATOM     18  C   UNL     1       3.402   4.131  19.183  0.00  0.00    +0.000 A 
ATOM     19  C   UNL     1       3.379   5.516  19.195  0.00  0.00    +0.000 A 
ATOM     20  O   UNL     1       4.425   3.558  18.472  0.00  0.00    +0.000 OA
ATOM     21  C   UNL     1       3.884   2.431  17.784  0.00  0.00    +0.000 C 
ATOM     22  C   UNL     1       3.264   1.460  18.781  0.00  0.00    +0.000 C 
ATOM     23  O   UNL     1       2.261   2.044  19.631  0.00  0.00    +0.000 OA
ENDBRANCH  11  14
ENDBRANCH   3   7
BRANCH   1  25
ATOM     24  C   UNL     1      -4.039  11.894  18.812  0.00  0.00    +0.000 C 
ATOM     25  O   UNL     1      -3.316  12.583  19.808  0.00  0.00    +0.000 OA
ENDBRANCH   1  25
BRANCH   6  26
ATOM     26  C   UNL     1      -2.888  13.421  22.288  0.00  0.00    +0.000 C 
BRANCH  26  27
ATOM     27  N   UNL     1      -2.550  14.804  22.627  0.00  0.00    +0.000 NA
ATOM     28  C   UNL     1      -1.380  15.349  21.918  0.00  0.00    +0.000 C 
ATOM     29  C   UNL     1      -1.566  16.051  20.557  0.00  0.00    +0.000 C 
ATOM     30  N   UNL     1      -2.782  16.851  20.428  0.00  0.00    +0.000 N 
ATOM     31  C   UNL     1      -3.011  17.727  19.365  0.00  0.00    +0.000 C 
ATOM     32  C   UNL     1      -1.836  18.243  18.565  0.00  0.00    +0.000 C 
ATOM     33  O   UNL     1      -4.137  18.125  19.081  0.00  0.00    +0.000 OA
ATOM     34  C   UNL     1      -3.973  16.274  21.050  0.00  0.00    +0.000 C 
ATOM     35  C   UNL     1      -3.739  15.665  22.442  0.00  0.00    +0.000 C 
ENDBRANCH  26  27
ENDBRANCH   6  26
TORSDOF 5
ENDMDL
MODEL 5
REMARK VINA RESULT:      -8.1      1.879      2.150
REMARK  Name = 
REMARK  7 active torsions:
REMARK  status: ('A' for Active; 'I' for Inactive)
REMARK    1  A    between atoms: C_1  and  O_2
REMARK    2  A    between atoms: O_2  and  C_3
REMARK    3  A    between atoms: C_5  and  C_6
REMARK    4  A    between atoms: C_10  and  C_11
REMARK    5  A    between atoms: C_25  and  C_26
REMARK    6  A    between atoms: C_26  and  N_27
REMARK    7  A    between atoms: C_31  and  C_32
REMARK                            x       y       z     vdW  Elec       q    Type
REMARK                         _______ _______ _______ _____ _____    ______ ____
ROOT
ATOM      1  C   UNL     1      -0.372  13.217  21.488  0.00  0.00    +0.000 A 
ATOM      2  C   UNL     1       0.327  12.334  20.638  0.00  0.00    +0.000 A 
ATOM      3  C   UNL     1       0.326  10.922  20.876  0.00  0.00    +0.000 A 
ATOM      4  C   UNL     1      -0.402  10.470  22.002  0.00  0.00    +0.000 A 
ATOM      5  C   UNL     1      -1.090  11.347  22.852  0.00  0.00    +0.000 A 
ATOM      6  C   UNL     1      -1.056  12.728  22.622  0.00  0.00    +0.000 A 
ENDROOT
BRANCH   3   7
ATOM      7  C   UNL     1       0.969   9.898  19.965  0.00  0.00    +0.000 A 
ATOM      8  C   UNL     1       0.916  10.103  18.559  0.00  0.00    +0.000 A 
ATOM      9  C   UNL     1       1.455   9.208  17.636  0.00  0.00    +0.000 A 
ATOM     10  C   UNL     1       2.076   8.053  18.080  0.00  0.00    +0.000 A 
ATOM     11  C   UNL     1       2.065   7.708  19.451  0.00  0.00    +0.000 A 
ATOM     12  C   UNL     1       1.532   8.660  20.390  0.00  0.00    +0.000 A 
ATOM     13 CL   UNL     1       1.435   8.239  22.081  0.00  0.00    +0.000 Cl
BRANCH  11  14
ATOM     14  C   UNL     1       2.333   6.275  19.783  0.00  0.00    +0.000 A 
ATOM     15  C   UNL     1       1.544   5.479  20.621  0.00  0.00    +0.000 A 
ATOM     16  C   UNL     1       1.667   4.082  20.612  0.00  0.00    +0.000 A 
ATOM     17  C   UNL     1       2.624   3.470  19.797  0.00  0.00    +0.000 A 
ATOM     18  C   UNL     1       3.513   4.262  19.089  0.00  0.00    +0.000 A 
ATOM     19  C   UNL     1       3.395   5.642  19.098  0.00  0.00    +0.000 A 
ATOM     20  O   UNL     1       4.491   3.753  18.274  0.00  0.00    +0.000 OA
ATOM     21  C   UNL     1       3.960   2.584  17.652  0.00  0.00    +0.000 C 
ATOM     22  C   UNL     1       3.519   1.583  18.714  0.00  0.00    +0.000 C 
ATOM     23  O   UNL     1       2.574   2.107  19.664  0.00  0.00    +0.000 OA
ENDBRANCH  11  14
ENDBRANCH   3   7
BRANCH   1  25
ATOM     24  C   UNL     1       0.126  15.472  20.626  0.00  0.00    +0.000 C 
ATOM     25  O   UNL     1      -0.736  14.505  21.184  0.00  0.00    +0.000 OA
ENDBRANCH   1  25
BRANCH   6  26
ATOM     26  C   UNL     1      -1.855  13.721  23.457  0.00  0.00    +0.000 C 
BRANCH  26  27
ATOM     27  N   UNL     1      -3.237  13.384  23.805  0.00  0.00    +0.000 NA
ATOM     28  C   UNL     1      -3.909  14.352  24.686  0.00  0.00    +0.000 C 
ATOM     29  C   UNL     1      -4.677  15.543  24.074  0.00  0.00    +0.000 C 
ATOM     30  N   UNL     1      -5.390  15.252  22.833  0.00  0.00    +0.000 N 
ATOM     31  C   UNL     1      -6.310  16.132  22.257  0.00  0.00    +0.000 C 
ATOM     32  C   UNL     1      -6.960  17.192  23.118  0.00  0.00    +0.000 C 
ATOM     33  O   UNL     1      -6.641  16.047  21.077  0.00  0.00    +0.000 OA
ATOM     34  C   UNL     1      -4.690  14.363  21.908  0.00  0.00    +0.000 C 
ATOM     35  C   UNL     1      -4.016  13.150  22.570  0.00  0.00    +0.000 C 
ENDBRANCH  26  27
ENDBRANCH   6  26
TORSDOF 5
ENDMDL
MODEL 6
REMARK VINA RESULT:      -8.1      1.692      1.958
REMARK  Name = 
REMARK  7 active torsions:
REMARK  status: ('A' for Active; 'I' for Inactive)
REMARK    1  A    between atoms: C_1  and  O_2
REMARK    2  A    between atoms: O_2  and  C_3
REMARK    3  A    between atoms: C_5  and  C_6
REMARK    4  A    between atoms: C_10  and  C_11
REMARK    5  A    between atoms: C_25  and  C_26
REMARK    6  A    between atoms: C_26  and  N_27
REMARK    7  A    between atoms: C_31  and  C_32
REMARK                            x       y       z     vdW  Elec       q    Type
REMARK                         _______ _______ _______ _____ _____    ______ ____
ROOT
ATOM      1  C   UNL     1      -2.180  12.096  19.938  0.00  0.00    +0.000 A 
ATOM      2  C   UNL     1      -1.267  11.225  19.308  0.00  0.00    +0.000 A 
ATOM      3  C   UNL     1      -0.047  10.840  19.951  0.00  0.00    +0.000 A 
ATOM      4  C   UNL     1       0.189  11.382  21.237  0.00  0.00    +0.000 A 
ATOM      5  C   UNL     1      -0.714  12.255  21.861  0.00  0.00    +0.000 A 
ATOM      6  C   UNL     1      -1.889  12.644  21.206  0.00  0.00    +0.000 A 
ENDROOT
BRANCH   3   7
ATOM      7  C   UNL     1       0.940   9.840  19.389  0.00  0.00    +0.000 A 
ATOM      8  C   UNL     1       1.490  10.070  18.098  0.00  0.00    +0.000 A 
ATOM      9  C   UNL     1       2.386   9.198  17.482  0.00  0.00    +0.000 A 
ATOM     10  C   UNL     1       2.777   8.041  18.136  0.00  0.00    +0.000 A 
ATOM     11  C   UNL     1       2.189   7.672  19.366  0.00  0.00    +0.000 A 
ATOM     12  C   UNL     1       1.290   8.601  19.999  0.00  0.00    +0.000 A 
ATOM     13 CL   UNL     1       0.487   8.148  21.481  0.00  0.00    +0.000 Cl
BRANCH  11  14
ATOM     14  C   UNL     1       2.314   6.235  19.763  0.00  0.00    +0.000 A 
ATOM     15  C   UNL     1       1.405   5.538  20.568  0.00  0.00    +0.000 A 
ATOM     16  C   UNL     1       1.413   4.137  20.613  0.00  0.00    +0.000 A 
ATOM     17  C   UNL     1       2.370   3.419  19.890  0.00  0.00    +0.000 A 
ATOM     18  C   UNL     1       3.367   4.109  19.222  0.00  0.00    +0.000 A 
ATOM     19  C   UNL     1       3.364   5.493  19.177  0.00  0.00    +0.000 A 
ATOM     20  O   UNL     1       4.354   3.492  18.496  0.00  0.00    +0.000 OA
ATOM     21  C   UNL     1       3.772   2.346  17.877  0.00  0.00    +0.000 C 
ATOM     22  C   UNL     1       3.178   1.426  18.936  0.00  0.00    +0.000 C 
ATOM     23  O   UNL     1       2.217   2.060  19.799  0.00  0.00    +0.000 OA
ENDBRANCH  11  14
ENDBRANCH   3   7
BRANCH   1  25
ATOM     24  C   UNL     1      -4.124  11.656  18.486  0.00  0.00    +0.000 C 
ATOM     25  O   UNL     1      -3.501  12.258  19.599  0.00  0.00    +0.000 OA
ENDBRANCH   1  25
BRANCH   6  26
ATOM     26  C   UNL     1      -2.948  13.516  21.868  0.00  0.00    +0.000 C 
BRANCH  26  27
ATOM     27  N   UNL     1      -2.895  14.963  21.650  0.00  0.00    +0.000 NA
ATOM     28  C   UNL     1      -4.139  15.560  21.138  0.00  0.00    +0.000 C 
ATOM     29  C   UNL     1      -5.215  16.058  22.127  0.00  0.00    +0.000 C 
ATOM     30  N   UNL     1      -4.702  16.673  23.348  0.00  0.00    +0.000 N 
ATOM     31  C   UNL     1      -5.510  17.373  24.248  0.00  0.00    +0.000 C 
ATOM     32  C   UNL     1      -6.833  17.932  23.774  0.00  0.00    +0.000 C 
ATOM     33  O   UNL     1      -5.161  17.586  25.406  0.00  0.00    +0.000 OA
ATOM     34  C   UNL     1      -3.519  16.031  23.917  0.00  0.00    +0.000 C 
ATOM     35  C   UNL     1      -2.447  15.634  22.889  0.00  0.00    +0.000 C 
ENDBRANCH  26  27
ENDBRANCH   6  26
TORSDOF 5
ENDMDL
MODEL 7
REMARK VINA RESULT:      -8.1      1.296      2.083
REMARK  Name = 
REMARK  7 active torsions:
REMARK  status: ('A' for Active; 'I' for Inactive)
REMARK    1  A    between atoms: C_1  and  O_2
REMARK    2  A    between atoms: O_2  and  C_3
REMARK    3  A    between atoms: C_5  and  C_6
REMARK    4  A    between atoms: C_10  and  C_11
REMARK    5  A    between atoms: C_25  and  C_26
REMARK    6  A    between atoms: C_26  and  N_27
REMARK    7  A    between atoms: C_31  and  C_32
REMARK                            x       y       z     vdW  Elec       q    Type
REMARK                         _______ _______ _______ _____ _____    ______ ____
ROOT
ATOM      1  C   UNL     1      -0.107  12.918  21.743  0.00  0.00    +0.000 A 
ATOM      2  C   UNL     1       0.721  11.908  21.211  0.00  0.00    +0.000 A 
ATOM      3  C   UNL     1       0.227  10.981  20.239  0.00  0.00    +0.000 A 
ATOM      4  C   UNL     1      -1.126  11.131  19.851  0.00  0.00    +0.000 A 
ATOM      5  C   UNL     1      -1.953  12.130  20.385  0.00  0.00    +0.000 A 
ATOM      6  C   UNL     1      -1.462  13.011  21.356  0.00  0.00    +0.000 A 
ENDROOT
BRANCH   3   7
ATOM      7  C   UNL     1       1.070   9.930  19.549  0.00  0.00    +0.000 A 
ATOM      8  C   UNL     1       1.429  10.123  18.187  0.00  0.00    +0.000 A 
ATOM      9  C   UNL     1       2.180   9.203  17.457  0.00  0.00    +0.000 A 
ATOM     10  C   UNL     1       2.611   8.034  18.061  0.00  0.00    +0.000 A 
ATOM     11  C   UNL     1       2.198   7.703  19.371  0.00  0.00    +0.000 A 
ATOM     12  C   UNL     1       1.449   8.679  20.118  0.00  0.00    +0.000 A 
ATOM     13 CL   UNL     1       0.859   8.277  21.710  0.00  0.00    +0.000 Cl
BRANCH  11  14
ATOM     14  C   UNL     1       2.314   6.265  19.766  0.00  0.00    +0.000 A 
ATOM     15  C   UNL     1       1.409   5.576  20.581  0.00  0.00    +0.000 A 
ATOM     16  C   UNL     1       1.404   4.175  20.626  0.00  0.00    +0.000 A 
ATOM     17  C   UNL     1       2.344   3.448  19.890  0.00  0.00    +0.000 A 
ATOM     18  C   UNL     1       3.340   4.129  19.210  0.00  0.00    +0.000 A 
ATOM     19  C   UNL     1       3.349   5.513  19.166  0.00  0.00    +0.000 A 
ATOM     20  O   UNL     1       4.311   3.503  18.472  0.00  0.00    +0.000 OA
ATOM     21  C   UNL     1       3.710   2.363  17.859  0.00  0.00    +0.000 C 
ATOM     22  C   UNL     1       3.121   1.448  18.925  0.00  0.00    +0.000 C 
ATOM     23  O   UNL     1       2.177   2.091  19.800  0.00  0.00    +0.000 OA
ENDBRANCH  11  14
ENDBRANCH   3   7
BRANCH   1  25
ATOM     24  C   UNL     1       1.325  14.918  21.911  0.00  0.00    +0.000 C 
ATOM     25  O   UNL     1       0.320  14.051  22.390  0.00  0.00    +0.000 OA
ENDBRANCH   1  25
BRANCH   6  26
ATOM     26  C   UNL     1      -2.284  14.169  21.906  0.00  0.00    +0.000 C 
BRANCH  26  27
ATOM     27  N   UNL     1      -3.568  14.475  21.271  0.00  0.00    +0.000 NA
ATOM     28  C   UNL     1      -4.347  13.299  20.848  0.00  0.00    +0.000 C 
ATOM     29  C   UNL     1      -5.338  12.642  21.832  0.00  0.00    +0.000 C 
ATOM     30  N   UNL     1      -6.057  13.566  22.704  0.00  0.00    +0.000 N 
ATOM     31  C   UNL     1      -7.143  13.183  23.495  0.00  0.00    +0.000 C 
ATOM     32  C   UNL     1      -7.916  11.934  23.134  0.00  0.00    +0.000 C 
ATOM     33  O   UNL     1      -7.516  13.850  24.455  0.00  0.00    +0.000 OA
ATOM     34  C   UNL     1      -5.266  14.689  23.205  0.00  0.00    +0.000 C 
ATOM     35  C   UNL     1      -4.361  15.355  22.156  0.00  0.00    +0.000 C 
ENDBRANCH  26  27
ENDBRANCH   6  26
TORSDOF 5
ENDMDL
MODEL 8
REMARK VINA RESULT:      -8.0      2.912      4.160
REMARK  Name = 
REMARK  7 active torsions:
REMARK  status: ('A' for Active; 'I' for Inactive)
REMARK    1  A    between atoms: C_1  and  O_2
REMARK    2  A    between atoms: O_2  and  C_3
REMARK    3  A    between atoms: C_5  and  C_6
REMARK    4  A    between atoms: C_10  and  C_11
REMARK    5  A    between atoms: C_25  and  C_26
REMARK    6  A    between atoms: C_26  and  N_27
REMARK    7  A    between atoms: C_31  and  C_32
REMARK                            x       y       z     vdW  Elec       q    Type
REMARK                         _______ _______ _______ _____ _____    ______ ____
ROOT
ATOM      1  C   UNL     1      -0.634  10.557  19.979  0.00  0.00    +0.000 A 
ATOM      2  C   UNL     1       0.154   9.469  19.549  0.00  0.00    +0.000 A 
ATOM      3  C   UNL     1       0.895   8.676  20.483  0.00  0.00    +0.000 A 
ATOM      4  C   UNL     1       0.796   9.046  21.846  0.00  0.00    +0.000 A 
ATOM      5  C   UNL     1       0.020  10.133  22.274  0.00  0.00    +0.000 A 
ATOM      6  C   UNL     1      -0.675  10.916  21.344  0.00  0.00    +0.000 A 
ENDROOT
BRANCH   3   7
ATOM      7  C   UNL     1       1.686   7.439  20.119  0.00  0.00    +0.000 A 
ATOM      8  C   UNL     1       1.604   6.298  20.964  0.00  0.00    +0.000 A 
ATOM      9  C   UNL     1       2.313   5.121  20.730  0.00  0.00    +0.000 A 
ATOM     10  C   UNL     1       3.148   5.029  19.629  0.00  0.00    +0.000 A 
ATOM     11  C   UNL     1       3.385   6.152  18.806  0.00  0.00    +0.000 A 
ATOM     12  C   UNL     1       2.620   7.348  19.046  0.00  0.00    +0.000 A 
ATOM     13 CL   UNL     1       2.938   8.778  18.098  0.00  0.00    +0.000 Cl
BRANCH  11  14
ATOM     14  C   UNL     1       4.610   6.109  17.950  0.00  0.00    +0.000 A 
ATOM     15  C   UNL     1       5.926   6.077  18.424  0.00  0.00    +0.000 A 
ATOM     16  C   UNL     1       6.985   5.701  17.585  0.00  0.00    +0.000 A 
ATOM     17  C   UNL     1       6.739   5.401  16.242  0.00  0.00    +0.000 A 
ATOM     18  C   UNL     1       5.465   5.587  15.732  0.00  0.00    +0.000 A 
ATOM     19  C   UNL     1       4.418   5.960  16.558  0.00  0.00    +0.000 A 
ATOM     20  O   UNL     1       5.132   5.331  14.426  0.00  0.00    +0.000 OA
ATOM     21  C   UNL     1       5.884   4.192  14.011  0.00  0.00    +0.000 C 
ATOM     22  C   UNL     1       7.374   4.461  14.181  0.00  0.00    +0.000 C 
ATOM     23  O   UNL     1       7.758   4.845  15.513  0.00  0.00    +0.000 OA
ENDBRANCH  11  14
ENDBRANCH   3   7
BRANCH   1  25
ATOM     24  C   UNL     1      -1.484  11.698  17.966  0.00  0.00    +0.000 C 
ATOM     25  O   UNL     1      -1.637  11.158  19.260  0.00  0.00    +0.000 OA
ENDBRANCH   1  25
BRANCH   6  26
ATOM     26  C   UNL     1      -1.603  12.051  21.757  0.00  0.00    +0.000 C 
BRANCH  26  27
ATOM     27  N   UNL     1      -1.112  13.426  21.651  0.00  0.00    +0.000 NA
ATOM     28  C   UNL     1      -2.005  14.351  20.935  0.00  0.00    +0.000 C 
ATOM     29  C   UNL     1      -3.092  15.124  21.713  0.00  0.00    +0.000 C 
ATOM     30  N   UNL     1      -2.707  15.563  23.051  0.00  0.00    +0.000 N 
ATOM     31  C   UNL     1      -3.468  16.456  23.811  0.00  0.00    +0.000 C 
ATOM     32  C   UNL     1      -4.454  17.367  23.113  0.00  0.00    +0.000 C 
ATOM     33  O   UNL     1      -3.333  16.556  25.027  0.00  0.00    +0.000 OA
ATOM     34  C   UNL     1      -1.895  14.611  23.808  0.00  0.00    +0.000 C 
ATOM     35  C   UNL     1      -0.776  13.937  22.998  0.00  0.00    +0.000 C 
ENDBRANCH  26  27
ENDBRANCH   6  26
TORSDOF 5
ENDMDL
MODEL 9
REMARK VINA RESULT:      -8.0      1.324      1.646
REMARK  Name = 
REMARK  7 active torsions:
REMARK  status: ('A' for Active; 'I' for Inactive)
REMARK    1  A    between atoms: C_1  and  O_2
REMARK    2  A    between atoms: O_2  and  C_3
REMARK    3  A    between atoms: C_5  and  C_6
REMARK    4  A    between atoms: C_10  and  C_11
REMARK    5  A    between atoms: C_25  and  C_26
REMARK    6  A    between atoms: C_26  and  N_27
REMARK    7  A    between atoms: C_31  and  C_32
REMARK                            x       y       z     vdW  Elec       q    Type
REMARK                         _______ _______ _______ _____ _____    ______ ____
ROOT
ATOM      1  C   UNL     1      -2.393  11.825  19.287  0.00  0.00    +0.000 A 
ATOM      2  C   UNL     1      -1.389  10.962  18.801  0.00  0.00    +0.000 A 
ATOM      3  C   UNL     1      -0.178  10.748  19.535  0.00  0.00    +0.000 A 
ATOM      4  C   UNL     1      -0.047  11.449  20.758  0.00  0.00    +0.000 A 
ATOM      5  C   UNL     1      -1.041  12.313  21.238  0.00  0.00    +0.000 A 
ATOM      6  C   UNL     1      -2.207  12.533  20.493  0.00  0.00    +0.000 A 
ENDROOT
BRANCH   3   7
ATOM      7  C   UNL     1       0.906   9.771  19.136  0.00  0.00    +0.000 A 
ATOM      8  C   UNL     1       1.609   9.985  17.918  0.00  0.00    +0.000 A 
ATOM      9  C   UNL     1       2.605   9.131  17.450  0.00  0.00    +0.000 A 
ATOM     10  C   UNL     1       2.948   8.007  18.184  0.00  0.00    +0.000 A 
ATOM     11  C   UNL     1       2.219   7.650  19.341  0.00  0.00    +0.000 A 
ATOM     12  C   UNL     1       1.216   8.562  19.824  0.00  0.00    +0.000 A 
ATOM     13 CL   UNL     1       0.245   8.120  21.206  0.00  0.00    +0.000 Cl
BRANCH  11  14
ATOM     14  C   UNL     1       2.340   6.231  19.796  0.00  0.00    +0.000 A 
ATOM     15  C   UNL     1       1.446   5.579  20.654  0.00  0.00    +0.000 A 
ATOM     16  C   UNL     1       1.441   4.181  20.760  0.00  0.00    +0.000 A 
ATOM     17  C   UNL     1       2.371   3.422  20.043  0.00  0.00    +0.000 A 
ATOM     18  C   UNL     1       3.357   4.072  19.319  0.00  0.00    +0.000 A 
ATOM     19  C   UNL     1       3.366   5.453  19.215  0.00  0.00    +0.000 A 
ATOM     20  O   UNL     1       4.317   3.412  18.595  0.00  0.00    +0.000 OA
ATOM     21  C   UNL     1       3.707   2.248  18.041  0.00  0.00    +0.000 C 
ATOM     22  C   UNL     1       3.132   1.381  19.154  0.00  0.00    +0.000 C 
ATOM     23  O   UNL     1       2.201   2.062  20.014  0.00  0.00    +0.000 OA
ENDBRANCH  11  14
ENDBRANCH   3   7
BRANCH   1  25
ATOM     24  C   UNL     1      -4.223  11.079  17.812  0.00  0.00    +0.000 C 
ATOM     25  O   UNL     1      -3.703  11.845  18.877  0.00  0.00    +0.000 OA
ENDBRANCH   1  25
BRANCH   6  26
ATOM     26  C   UNL     1      -3.359  13.390  21.004  0.00  0.00    +0.000 C 
BRANCH  26  27
ATOM     27  N   UNL     1      -3.786  13.224  22.395  0.00  0.00    +0.000 NA
ATOM     28  C   UNL     1      -3.086  14.080  23.366  0.00  0.00    +0.000 C 
ATOM     29  C   UNL     1      -3.635  15.487  23.686  0.00  0.00    +0.000 C 
ATOM     30  N   UNL     1      -5.091  15.594  23.719  0.00  0.00    +0.000 N 
ATOM     31  C   UNL     1      -5.764  16.719  24.203  0.00  0.00    +0.000 C 
ATOM     32  C   UNL     1      -5.045  17.664  25.141  0.00  0.00    +0.000 C 
ATOM     33  O   UNL     1      -6.937  16.947  23.923  0.00  0.00    +0.000 OA
ATOM     34  C   UNL     1      -5.795  14.819  22.699  0.00  0.00    +0.000 C 
ATOM     35  C   UNL     1      -5.252  13.396  22.486  0.00  0.00    +0.000 C 
ENDBRANCH  26  27
ENDBRANCH   6  26
TORSDOF 5
ENDMDL
