MODEL 1
REMARK VINA RESULT:      -6.5      0.000      0.000
REMARK  Name = 
REMARK  13 active torsions:
REMARK  status: ('A' for Active; 'I' for Inactive)
REMARK    1  A    between atoms: C_1  and  C_2
REMARK    2  A    between atoms: C_2  and  C_3
REMARK    3  A    between atoms: C_3  and  C_4
REMARK    4  A    between atoms: C_4  and  C_5
REMARK    5  A    between atoms: C_5  and  C_6
REMARK    6  A    between atoms: C_6  and  C_7
REMARK    7  A    between atoms: C_6  and  C_12
REMARK    8  A    between atoms: C_7  and  C_8
REMARK    9  A    between atoms: N_10  and  O_11
REMARK   10  A    between atoms: N_14  and  C_15
REMARK   11  A    between atoms: C_15  and  C_16
REMARK   12  A    between atoms: C_16  and  O_18
REMARK   13  A    between atoms: O_18  and  C_19
REMARK                            x       y       z     vdW  Elec       q    Type
REMARK                         _______ _______ _______ _____ _____    ______ ____
ROOT
ATOM      1  C   UNL     1       5.840   4.575  16.263  0.00  0.00    +0.000 C 
ENDROOT
BRANCH   1   2
ATOM      2  C   UNL     1       4.624   4.116  17.072  0.00  0.00    +0.000 C 
ATOM      3  O   UNL     1       3.715   4.892  17.359  0.00  0.00    +0.000 OA
ATOM      4  N   UNL     1       4.663   2.815  17.502  0.00  0.00    +0.000 N 
ATOM      5  H   UNL     1       5.561   2.343  17.511  0.00  0.00    +0.000 HD
BRANCH   4   6
ATOM      6  C   UNL     1       3.634   2.289  18.384  0.00  0.00    +0.000 C 
BRANCH   6   7
ATOM      7  C   UNL     1       4.006   2.473  19.850  0.00  0.00    +0.000 C 
ATOM      8  O   UNL     1       4.920   1.904  20.433  0.00  0.00    +0.000 OA
BRANCH   7   9
ATOM      9  O   UNL     1       3.142   3.361  20.425  0.00  0.00    +0.000 OA
ATOM     10  C   UNL     1       2.380   2.816  21.502  0.00  0.00    +0.000 C 
ENDBRANCH   7   9
ENDBRANCH   6   7
ENDBRANCH   4   6
ENDBRANCH   1   2
BRANCH   1  11
ATOM     11  C   UNL     1       6.062   3.793  14.953  0.00  0.00    +0.000 C 
BRANCH  11  12
ATOM     12  C   UNL     1       6.684   4.648  13.849  0.00  0.00    +0.000 C 
BRANCH  12  13
ATOM     13  C   UNL     1       6.847   3.879  12.536  0.00  0.00    +0.000 C 
BRANCH  13  15
ATOM     14  C   UNL     1       5.700   1.926  11.408  0.00  0.00    +0.000 C 
ATOM     15  C   UNL     1       5.514   3.228  12.164  0.00  0.00    +0.000 C 
ENDBRANCH  13  15
ENDBRANCH  12  13
ENDBRANCH  11  12
ENDBRANCH   1  11
BRANCH   1  16
ATOM     16  C   UNL     1       7.081   4.585  17.167  0.00  0.00    +0.000 C 
BRANCH  16  17
ATOM     17  C   UNL     1       7.465   5.950  17.708  0.00  0.00    +0.000 C 
ATOM     18  O   UNL     1       7.807   6.164  18.874  0.00  0.00    +0.000 OA
ATOM     19  N   UNL     1       7.474   6.940  16.755  0.00  0.00    +0.000 N 
ATOM     20  H   UNL     1       6.801   6.925  15.994  0.00  0.00    +0.000 HD
BRANCH  19  21
ATOM     21  O   UNL     1       7.795   8.231  17.250  0.00  0.00    +0.000 OA
ATOM     22  H   UNL     1       8.585   8.469  16.717  0.00  0.00    +0.000 HD
ENDBRANCH  19  21
ENDBRANCH  16  17
ENDBRANCH   1  16
TORSDOF 11
ENDMDL
MODEL 2
REMARK VINA RESULT:      -6.5      1.437      1.746
REMARK  Name = 
REMARK  13 active torsions:
REMARK  status: ('A' for Active; 'I' for Inactive)
REMARK    1  A    between atoms: C_1  and  C_2
REMARK    2  A    between atoms: C_2  and  C_3
REMARK    3  A    between atoms: C_3  and  C_4
REMARK    4  A    between atoms: C_4  and  C_5
REMARK    5  A    between atoms: C_5  and  C_6
REMARK    6  A    between atoms: C_6  and  C_7
REMARK    7  A    between atoms: C_6  and  C_12
REMARK    8  A    between atoms: C_7  and  C_8
REMARK    9  A    between atoms: N_10  and  O_11
REMARK   10  A    between atoms: N_14  and  C_15
REMARK   11  A    between atoms: C_15  and  C_16
REMARK   12  A    between atoms: C_16  and  O_18
REMARK   13  A    between atoms: O_18  and  C_19
REMARK                            x       y       z     vdW  Elec       q    Type
REMARK                         _______ _______ _______ _____ _____    ______ ____
ROOT
ATOM      1  C   UNL     1       6.234   4.735  15.619  0.00  0.00    +0.000 C 
ENDROOT
BRANCH   1   2
ATOM      2  C   UNL     1       4.993   4.462  16.471  0.00  0.00    +0.000 C 
ATOM      3  O   UNL     1       4.184   5.352  16.729  0.00  0.00    +0.000 OA
ATOM      4  N   UNL     1       4.894   3.191  16.974  0.00  0.00    +0.000 N 
ATOM      5  H   UNL     1       5.733   2.620  16.995  0.00  0.00    +0.000 HD
BRANCH   4   6
ATOM      6  C   UNL     1       3.833   2.834  17.901  0.00  0.00    +0.000 C 
BRANCH   6   7
ATOM      7  C   UNL     1       4.185   3.221  19.332  0.00  0.00    +0.000 C 
ATOM      8  O   UNL     1       5.315   3.282  19.798  0.00  0.00    +0.000 OA
BRANCH   7   9
ATOM      9  O   UNL     1       3.035   3.471  20.026  0.00  0.00    +0.000 OA
ATOM     10  C   UNL     1       1.939   3.873  19.207  0.00  0.00    +0.000 C 
ENDBRANCH   7   9
ENDBRANCH   6   7
ENDBRANCH   4   6
ENDBRANCH   1   2
BRANCH   1  11
ATOM     11  C   UNL     1       6.346   3.851  14.360  0.00  0.00    +0.000 C 
BRANCH  11  12
ATOM     12  C   UNL     1       5.199   4.074  13.374  0.00  0.00    +0.000 C 
BRANCH  12  13
ATOM     13  C   UNL     1       5.468   3.434  12.011  0.00  0.00    +0.000 C 
BRANCH  13  15
ATOM     14  C   UNL     1       3.571   3.885  10.398  0.00  0.00    +0.000 C 
ATOM     15  C   UNL     1       4.151   2.927  11.422  0.00  0.00    +0.000 C 
ENDBRANCH  13  15
ENDBRANCH  12  13
ENDBRANCH  11  12
ENDBRANCH   1  11
BRANCH   1  16
ATOM     16  C   UNL     1       7.487   4.670  16.504  0.00  0.00    +0.000 C 
BRANCH  16  17
ATOM     17  C   UNL     1       7.423   5.513  17.764  0.00  0.00    +0.000 C 
ATOM     18  O   UNL     1       7.170   6.721  17.779  0.00  0.00    +0.000 OA
ATOM     19  N   UNL     1       7.599   4.794  18.920  0.00  0.00    +0.000 N 
ATOM     20  H   UNL     1       8.230   3.997  18.938  0.00  0.00    +0.000 HD
BRANCH  19  21
ATOM     21  O   UNL     1       7.579   5.572  20.107  0.00  0.00    +0.000 OA
ATOM     22  H   UNL     1       8.513   5.519  20.407  0.00  0.00    +0.000 HD
ENDBRANCH  19  21
ENDBRANCH  16  17
ENDBRANCH   1  16
TORSDOF 11
ENDMDL
MODEL 3
REMARK VINA RESULT:      -6.4      2.608      4.807
REMARK  Name = 
REMARK  13 active torsions:
REMARK  status: ('A' for Active; 'I' for Inactive)
REMARK    1  A    between atoms: C_1  and  C_2
REMARK    2  A    between atoms: C_2  and  C_3
REMARK    3  A    between atoms: C_3  and  C_4
REMARK    4  A    between atoms: C_4  and  C_5
REMARK    5  A    between atoms: C_5  and  C_6
REMARK    6  A    between atoms: C_6  and  C_7
REMARK    7  A    between atoms: C_6  and  C_12
REMARK    8  A    between atoms: C_7  and  C_8
REMARK    9  A    between atoms: N_10  and  O_11
REMARK   10  A    between atoms: N_14  and  C_15
REMARK   11  A    between atoms: C_15  and  C_16
REMARK   12  A    between atoms: C_16  and  O_18
REMARK   13  A    between atoms: O_18  and  C_19
REMARK                            x       y       z     vdW  Elec       q    Type
REMARK                         _______ _______ _______ _____ _____    ______ ____
ROOT
ATOM      1  C   UNL     1       6.368   4.834  17.193  0.00  0.00    +0.000 C 
ENDROOT
BRANCH   1   2
ATOM      2  C   UNL     1       5.089   4.402  17.914  0.00  0.00    +0.000 C 
ATOM      3  O   UNL     1       4.003   4.918  17.656  0.00  0.00    +0.000 OA
ATOM      4  N   UNL     1       5.258   3.464  18.899  0.00  0.00    +0.000 N 
ATOM      5  H   UNL     1       6.192   3.328  19.272  0.00  0.00    +0.000 HD
BRANCH   4   6
ATOM      6  C   UNL     1       4.147   3.061  19.745  0.00  0.00    +0.000 C 
BRANCH   6   7
ATOM      7  C   UNL     1       3.321   1.957  19.096  0.00  0.00    +0.000 C 
ATOM      8  O   UNL     1       3.733   1.142  18.281  0.00  0.00    +0.000 OA
BRANCH   7   9
ATOM      9  O   UNL     1       2.035   2.032  19.550  0.00  0.00    +0.000 OA
ATOM     10  C   UNL     1       1.128   2.634  18.628  0.00  0.00    +0.000 C 
ENDBRANCH   7   9
ENDBRANCH   6   7
ENDBRANCH   4   6
ENDBRANCH   1   2
BRANCH   1  11
ATOM     11  C   UNL     1       7.337   5.661  18.063  0.00  0.00    +0.000 C 
BRANCH  11  12
ATOM     12  C   UNL     1       7.518   7.091  17.553  0.00  0.00    +0.000 C 
BRANCH  12  13
ATOM     13  C   UNL     1       8.375   7.941  18.493  0.00  0.00    +0.000 C 
BRANCH  13  15
ATOM     14  C   UNL     1       9.192  10.302  18.896  0.00  0.00    +0.000 C 
ATOM     15  C   UNL     1       8.305   9.405  18.054  0.00  0.00    +0.000 C 
ENDBRANCH  13  15
ENDBRANCH  12  13
ENDBRANCH  11  12
ENDBRANCH   1  11
BRANCH   1  16
ATOM     16  C   UNL     1       6.002   5.537  15.878  0.00  0.00    +0.000 C 
BRANCH  16  17
ATOM     17  C   UNL     1       6.635   4.935  14.636  0.00  0.00    +0.000 C 
ATOM     18  O   UNL     1       7.700   5.318  14.145  0.00  0.00    +0.000 OA
ATOM     19  N   UNL     1       5.949   3.857  14.133  0.00  0.00    +0.000 N 
ATOM     20  H   UNL     1       4.935   3.822  14.189  0.00  0.00    +0.000 HD
BRANCH  19  21
ATOM     21  O   UNL     1       6.506   3.304  12.950  0.00  0.00    +0.000 OA
ATOM     22  H   UNL     1       6.775   4.106  12.451  0.00  0.00    +0.000 HD
ENDBRANCH  19  21
ENDBRANCH  16  17
ENDBRANCH   1  16
TORSDOF 11
ENDMDL
MODEL 4
REMARK VINA RESULT:      -6.3      1.640      1.950
REMARK  Name = 
REMARK  13 active torsions:
REMARK  status: ('A' for Active; 'I' for Inactive)
REMARK    1  A    between atoms: C_1  and  C_2
REMARK    2  A    between atoms: C_2  and  C_3
REMARK    3  A    between atoms: C_3  and  C_4
REMARK    4  A    between atoms: C_4  and  C_5
REMARK    5  A    between atoms: C_5  and  C_6
REMARK    6  A    between atoms: C_6  and  C_7
REMARK    7  A    between atoms: C_6  and  C_12
REMARK    8  A    between atoms: C_7  and  C_8
REMARK    9  A    between atoms: N_10  and  O_11
REMARK   10  A    between atoms: N_14  and  C_15
REMARK   11  A    between atoms: C_15  and  C_16
REMARK   12  A    between atoms: C_16  and  O_18
REMARK   13  A    between atoms: O_18  and  C_19
REMARK                            x       y       z     vdW  Elec       q    Type
REMARK                         _______ _______ _______ _____ _____    ______ ____
ROOT
ATOM      1  C   UNL     1       5.545   5.652  16.427  0.00  0.00    +0.000 C 
ENDROOT
BRANCH   1   2
ATOM      2  C   UNL     1       4.328   5.380  17.315  0.00  0.00    +0.000 C 
ATOM      3  O   UNL     1       3.965   6.188  18.168  0.00  0.00    +0.000 OA
ATOM      4  N   UNL     1       3.734   4.158  17.138  0.00  0.00    +0.000 N 
ATOM      5  H   UNL     1       4.265   3.434  16.667  0.00  0.00    +0.000 HD
BRANCH   4   6
ATOM      6  C   UNL     1       2.649   3.723  18.002  0.00  0.00    +0.000 C 
BRANCH   6   7
ATOM      7  C   UNL     1       2.786   2.251  18.374  0.00  0.00    +0.000 C 
ATOM      8  O   UNL     1       3.686   1.504  18.014  0.00  0.00    +0.000 OA
BRANCH   7   9
ATOM      9  O   UNL     1       1.731   1.886  19.160  0.00  0.00    +0.000 OA
ATOM     10  C   UNL     1       0.905   2.976  19.566  0.00  0.00    +0.000 C 
ENDBRANCH   7   9
ENDBRANCH   6   7
ENDBRANCH   4   6
ENDBRANCH   1   2
BRANCH   1  11
ATOM     11  C   UNL     1       5.331   5.311  14.937  0.00  0.00    +0.000 C 
BRANCH  11  12
ATOM     12  C   UNL     1       6.050   4.031  14.513  0.00  0.00    +0.000 C 
BRANCH  12  13
ATOM     13  C   UNL     1       6.721   4.164  13.144  0.00  0.00    +0.000 C 
BRANCH  13  15
ATOM     14  C   UNL     1       4.684   3.408  11.847  0.00  0.00    +0.000 C 
ATOM     15  C   UNL     1       6.134   3.122  12.191  0.00  0.00    +0.000 C 
ENDBRANCH  13  15
ENDBRANCH  12  13
ENDBRANCH  11  12
ENDBRANCH   1  11
BRANCH   1  16
ATOM     16  C   UNL     1       6.780   4.961  17.023  0.00  0.00    +0.000 C 
BRANCH  16  17
ATOM     17  C   UNL     1       7.406   5.682  18.203  0.00  0.00    +0.000 C 
ATOM     18  O   UNL     1       7.904   6.809  18.143  0.00  0.00    +0.000 OA
ATOM     19  N   UNL     1       7.306   4.994  19.388  0.00  0.00    +0.000 N 
ATOM     20  H   UNL     1       7.353   3.979  19.397  0.00  0.00    +0.000 HD
BRANCH  19  21
ATOM     21  O   UNL     1       7.919   5.636  20.495  0.00  0.00    +0.000 OA
ATOM     22  H   UNL     1       8.718   6.036  20.088  0.00  0.00    +0.000 HD
ENDBRANCH  19  21
ENDBRANCH  16  17
ENDBRANCH   1  16
TORSDOF 11
ENDMDL
MODEL 5
REMARK VINA RESULT:      -6.3      1.912      2.133
REMARK  Name = 
REMARK  13 active torsions:
REMARK  status: ('A' for Active; 'I' for Inactive)
REMARK    1  A    between atoms: C_1  and  C_2
REMARK    2  A    between atoms: C_2  and  C_3
REMARK    3  A    between atoms: C_3  and  C_4
REMARK    4  A    between atoms: C_4  and  C_5
REMARK    5  A    between atoms: C_5  and  C_6
REMARK    6  A    between atoms: C_6  and  C_7
REMARK    7  A    between atoms: C_6  and  C_12
REMARK    8  A    between atoms: C_7  and  C_8
REMARK    9  A    between atoms: N_10  and  O_11
REMARK   10  A    between atoms: N_14  and  C_15
REMARK   11  A    between atoms: C_15  and  C_16
REMARK   12  A    between atoms: C_16  and  O_18
REMARK   13  A    between atoms: O_18  and  C_19
REMARK                            x       y       z     vdW  Elec       q    Type
REMARK                         _______ _______ _______ _____ _____    ______ ____
ROOT
ATOM      1  C   UNL     1       5.578   5.905  17.209  0.00  0.00    +0.000 C 
ENDROOT
BRANCH   1   2
ATOM      2  C   UNL     1       4.921   5.185  18.389  0.00  0.00    +0.000 C 
ATOM      3  O   UNL     1       4.406   5.809  19.314  0.00  0.00    +0.000 OA
ATOM      4  N   UNL     1       5.015   3.817  18.367  0.00  0.00    +0.000 N 
ATOM      5  H   UNL     1       5.715   3.397  17.764  0.00  0.00    +0.000 HD
BRANCH   4   6
ATOM      6  C   UNL     1       4.546   3.019  19.487  0.00  0.00    +0.000 C 
BRANCH   6   7
ATOM      7  C   UNL     1       3.487   2.012  19.052  0.00  0.00    +0.000 C 
ATOM      8  O   UNL     1       3.653   1.102  18.252  0.00  0.00    +0.000 OA
BRANCH   7   9
ATOM      9  O   UNL     1       2.310   2.297  19.683  0.00  0.00    +0.000 OA
ATOM     10  C   UNL     1       1.274   2.739  18.807  0.00  0.00    +0.000 C 
ENDBRANCH   7   9
ENDBRANCH   6   7
ENDBRANCH   4   6
ENDBRANCH   1   2
BRANCH   1  11
ATOM     11  C   UNL     1       5.539   5.117  15.883  0.00  0.00    +0.000 C 
BRANCH  11  12
ATOM     12  C   UNL     1       6.927   4.899  15.282  0.00  0.00    +0.000 C 
BRANCH  12  13
ATOM     13  C   UNL     1       6.883   4.714  13.764  0.00  0.00    +0.000 C 
BRANCH  13  15
ATOM     14  C   UNL     1       5.916   3.104  12.067  0.00  0.00    +0.000 C 
ATOM     15  C   UNL     1       5.712   3.799  13.401  0.00  0.00    +0.000 C 
ENDBRANCH  13  15
ENDBRANCH  12  13
ENDBRANCH  11  12
ENDBRANCH   1  11
BRANCH   1  16
ATOM     16  C   UNL     1       6.998   6.340  17.600  0.00  0.00    +0.000 C 
BRANCH  16  17
ATOM     17  C   UNL     1       7.687   5.435  18.605  0.00  0.00    +0.000 C 
ATOM     18  O   UNL     1       8.109   4.305  18.345  0.00  0.00    +0.000 OA
ATOM     19  N   UNL     1       7.876   6.016  19.835  0.00  0.00    +0.000 N 
ATOM     20  H   UNL     1       7.189   6.667  20.205  0.00  0.00    +0.000 HD
BRANCH  19  21
ATOM     21  O   UNL     1       8.486   5.172  20.798  0.00  0.00    +0.000 OA
ATOM     22  H   UNL     1       8.638   4.347  20.287  0.00  0.00    +0.000 HD
ENDBRANCH  19  21
ENDBRANCH  16  17
ENDBRANCH   1  16
TORSDOF 11
ENDMDL
MODEL 6
REMARK VINA RESULT:      -6.3      2.021      6.704
REMARK  Name = 
REMARK  13 active torsions:
REMARK  status: ('A' for Active; 'I' for Inactive)
REMARK    1  A    between atoms: C_1  and  C_2
REMARK    2  A    between atoms: C_2  and  C_3
REMARK    3  A    between atoms: C_3  and  C_4
REMARK    4  A    between atoms: C_4  and  C_5
REMARK    5  A    between atoms: C_5  and  C_6
REMARK    6  A    between atoms: C_6  and  C_7
REMARK    7  A    between atoms: C_6  and  C_12
REMARK    8  A    between atoms: C_7  and  C_8
REMARK    9  A    between atoms: N_10  and  O_11
REMARK   10  A    between atoms: N_14  and  C_15
REMARK   11  A    between atoms: C_15  and  C_16
REMARK   12  A    between atoms: C_16  and  O_18
REMARK   13  A    between atoms: O_18  and  C_19
REMARK                            x       y       z     vdW  Elec       q    Type
REMARK                         _______ _______ _______ _____ _____    ______ ____
ROOT
ATOM      1  C   UNL     1       3.536   4.487  18.739  0.00  0.00    +0.000 C 
ENDROOT
BRANCH   1   2
ATOM      2  C   UNL     1       4.153   4.852  17.387  0.00  0.00    +0.000 C 
ATOM      3  O   UNL     1       4.151   4.059  16.448  0.00  0.00    +0.000 OA
ATOM      4  N   UNL     1       4.758   6.081  17.331  0.00  0.00    +0.000 N 
ATOM      5  H   UNL     1       5.004   6.531  18.206  0.00  0.00    +0.000 HD
BRANCH   4   6
ATOM      6  C   UNL     1       5.491   6.498  16.147  0.00  0.00    +0.000 C 
BRANCH   6   7
ATOM      7  C   UNL     1       6.993   6.312  16.324  0.00  0.00    +0.000 C 
ATOM      8  O   UNL     1       7.768   7.143  16.778  0.00  0.00    +0.000 OA
BRANCH   7   9
ATOM      9  O   UNL     1       7.348   5.071  15.875  0.00  0.00    +0.000 OA
ATOM     10  C   UNL     1       6.953   4.806  14.530  0.00  0.00    +0.000 C 
ENDBRANCH   7   9
ENDBRANCH   6   7
ENDBRANCH   4   6
ENDBRANCH   1   2
BRANCH   1  11
ATOM     11  C   UNL     1       2.769   5.640  19.419  0.00  0.00    +0.000 C 
BRANCH  11  12
ATOM     12  C   UNL     1       1.781   5.153  20.478  0.00  0.00    +0.000 C 
BRANCH  12  13
ATOM     13  C   UNL     1       0.925   3.984  19.984  0.00  0.00    +0.000 C 
BRANCH  13  15
ATOM     14  C   UNL     1       2.095   3.083  22.039  0.00  0.00    +0.000 C 
ATOM     15  C   UNL     1       1.101   2.795  20.929  0.00  0.00    +0.000 C 
ENDBRANCH  13  15
ENDBRANCH  12  13
ENDBRANCH  11  12
ENDBRANCH   1  11
BRANCH   1  16
ATOM     16  C   UNL     1       4.614   3.876  19.646  0.00  0.00    +0.000 C 
BRANCH  16  17
ATOM     17  C   UNL     1       4.648   2.359  19.663  0.00  0.00    +0.000 C 
ATOM     18  O   UNL     1       5.091   1.685  20.597  0.00  0.00    +0.000 OA
ATOM     19  N   UNL     1       4.065   1.780  18.562  0.00  0.00    +0.000 N 
ATOM     20  H   UNL     1       4.133   2.226  17.652  0.00  0.00    +0.000 HD
BRANCH  19  21
ATOM     21  O   UNL     1       4.121   0.362  18.543  0.00  0.00    +0.000 OA
ATOM     22  H   UNL     1       4.894   0.175  19.119  0.00  0.00    +0.000 HD
ENDBRANCH  19  21
ENDBRANCH  16  17
ENDBRANCH   1  16
TORSDOF 11
ENDMDL
MODEL 7
REMARK VINA RESULT:      -6.3      2.402      4.200
REMARK  Name = 
REMARK  13 active torsions:
REMARK  status: ('A' for Active; 'I' for Inactive)
REMARK    1  A    between atoms: C_1  and  C_2
REMARK    2  A    between atoms: C_2  and  C_3
REMARK    3  A    between atoms: C_3  and  C_4
REMARK    4  A    between atoms: C_4  and  C_5
REMARK    5  A    between atoms: C_5  and  C_6
REMARK    6  A    between atoms: C_6  and  C_7
REMARK    7  A    between atoms: C_6  and  C_12
REMARK    8  A    between atoms: C_7  and  C_8
REMARK    9  A    between atoms: N_10  and  O_11
REMARK   10  A    between atoms: N_14  and  C_15
REMARK   11  A    between atoms: C_15  and  C_16
REMARK   12  A    between atoms: C_16  and  O_18
REMARK   13  A    between atoms: O_18  and  C_19
REMARK                            x       y       z     vdW  Elec       q    Type
REMARK                         _______ _______ _______ _____ _____    ______ ____
ROOT
ATOM      1  C   UNL     1       5.483   4.117  17.048  0.00  0.00    +0.000 C 
ENDROOT
BRANCH   1   2
ATOM      2  C   UNL     1       4.183   3.348  17.295  0.00  0.00    +0.000 C 
ATOM      3  O   UNL     1       3.136   3.663  16.733  0.00  0.00    +0.000 OA
ATOM      4  N   UNL     1       4.262   2.346  18.227  0.00  0.00    +0.000 N 
ATOM      5  H   UNL     1       5.047   2.355  18.871  0.00  0.00    +0.000 HD
BRANCH   4   6
ATOM      6  C   UNL     1       3.075   1.622  18.648  0.00  0.00    +0.000 C 
BRANCH   6   7
ATOM      7  C   UNL     1       2.158   2.495  19.496  0.00  0.00    +0.000 C 
ATOM      8  O   UNL     1       0.982   2.738  19.259  0.00  0.00    +0.000 OA
BRANCH   7   9
ATOM      9  O   UNL     1       2.861   2.985  20.560  0.00  0.00    +0.000 OA
ATOM     10  C   UNL     1       2.085   3.139  21.747  0.00  0.00    +0.000 C 
ENDBRANCH   7   9
ENDBRANCH   6   7
ENDBRANCH   4   6
ENDBRANCH   1   2
BRANCH   1  11
ATOM     11  C   UNL     1       6.025   4.861  18.286  0.00  0.00    +0.000 C 
BRANCH  11  12
ATOM     12  C   UNL     1       7.535   5.093  18.225  0.00  0.00    +0.000 C 
BRANCH  12  13
ATOM     13  C   UNL     1       7.932   6.484  18.723  0.00  0.00    +0.000 C 
BRANCH  13  15
ATOM     14  C   UNL     1       8.178   8.888  17.971  0.00  0.00    +0.000 C 
ATOM     15  C   UNL     1       7.628   7.515  17.634  0.00  0.00    +0.000 C 
ENDBRANCH  13  15
ENDBRANCH  12  13
ENDBRANCH  11  12
ENDBRANCH   1  11
BRANCH   1  16
ATOM     16  C   UNL     1       5.310   5.038  15.830  0.00  0.00    +0.000 C 
BRANCH  16  17
ATOM     17  C   UNL     1       6.266   4.765  14.684  0.00  0.00    +0.000 C 
ATOM     18  O   UNL     1       6.075   3.918  13.807  0.00  0.00    +0.000 OA
ATOM     19  N   UNL     1       7.350   5.608  14.655  0.00  0.00    +0.000 N 
ATOM     20  H   UNL     1       7.763   5.942  15.522  0.00  0.00    +0.000 HD
BRANCH  19  21
ATOM     21  O   UNL     1       8.274   5.344  13.612  0.00  0.00    +0.000 OA
ATOM     22  H   UNL     1       8.552   6.247  13.345  0.00  0.00    +0.000 HD
ENDBRANCH  19  21
ENDBRANCH  16  17
ENDBRANCH   1  16
TORSDOF 11
ENDMDL
MODEL 8
REMARK VINA RESULT:      -6.3      1.613      1.804
REMARK  Name = 
REMARK  13 active torsions:
REMARK  status: ('A' for Active; 'I' for Inactive)
REMARK    1  A    between atoms: C_1  and  C_2
REMARK    2  A    between atoms: C_2  and  C_3
REMARK    3  A    between atoms: C_3  and  C_4
REMARK    4  A    between atoms: C_4  and  C_5
REMARK    5  A    between atoms: C_5  and  C_6
REMARK    6  A    between atoms: C_6  and  C_7
REMARK    7  A    between atoms: C_6  and  C_12
REMARK    8  A    between atoms: C_7  and  C_8
REMARK    9  A    between atoms: N_10  and  O_11
REMARK   10  A    between atoms: N_14  and  C_15
REMARK   11  A    between atoms: C_15  and  C_16
REMARK   12  A    between atoms: C_16  and  O_18
REMARK   13  A    between atoms: O_18  and  C_19
REMARK                            x       y       z     vdW  Elec       q    Type
REMARK                         _______ _______ _______ _____ _____    ______ ____
ROOT
ATOM      1  C   UNL     1       5.419   5.615  17.027  0.00  0.00    +0.000 C 
ENDROOT
BRANCH   1   2
ATOM      2  C   UNL     1       4.301   4.650  17.433  0.00  0.00    +0.000 C 
ATOM      3  O   UNL     1       3.155   5.047  17.632  0.00  0.00    +0.000 OA
ATOM      4  N   UNL     1       4.689   3.349  17.623  0.00  0.00    +0.000 N 
ATOM      5  H   UNL     1       5.677   3.162  17.758  0.00  0.00    +0.000 HD
BRANCH   4   6
ATOM      6  C   UNL     1       3.755   2.358  18.130  0.00  0.00    +0.000 C 
BRANCH   6   7
ATOM      7  C   UNL     1       3.831   2.243  19.648  0.00  0.00    +0.000 C 
ATOM      8  O   UNL     1       4.837   1.991  20.296  0.00  0.00    +0.000 OA
BRANCH   7   9
ATOM      9  O   UNL     1       2.588   2.447  20.177  0.00  0.00    +0.000 OA
ATOM     10  C   UNL     1       2.478   3.633  20.961  0.00  0.00    +0.000 C 
ENDBRANCH   7   9
ENDBRANCH   6   7
ENDBRANCH   4   6
ENDBRANCH   1   2
BRANCH   1  11
ATOM     11  C   UNL     1       5.498   5.891  15.511  0.00  0.00    +0.000 C 
BRANCH  11  12
ATOM     12  C   UNL     1       6.610   5.100  14.821  0.00  0.00    +0.000 C 
BRANCH  12  13
ATOM     13  C   UNL     1       6.146   3.712  14.374  0.00  0.00    +0.000 C 
BRANCH  13  15
ATOM     14  C   UNL     1       6.162   3.058  11.929  0.00  0.00    +0.000 C 
ATOM     15  C   UNL     1       5.442   3.827  13.021  0.00  0.00    +0.000 C 
ENDBRANCH  13  15
ENDBRANCH  12  13
ENDBRANCH  11  12
ENDBRANCH   1  11
BRANCH   1  16
ATOM     16  C   UNL     1       6.752   5.128  17.613  0.00  0.00    +0.000 C 
BRANCH  16  17
ATOM     17  C   UNL     1       6.848   5.200  19.126  0.00  0.00    +0.000 C 
ATOM     18  O   UNL     1       5.877   5.162  19.885  0.00  0.00    +0.000 OA
ATOM     19  N   UNL     1       8.138   5.237  19.597  0.00  0.00    +0.000 N 
ATOM     20  H   UNL     1       8.863   5.718  19.072  0.00  0.00    +0.000 HD
BRANCH  19  21
ATOM     21  O   UNL     1       8.247   5.342  21.008  0.00  0.00    +0.000 OA
ATOM     22  H   UNL     1       7.888   4.480  21.311  0.00  0.00    +0.000 HD
ENDBRANCH  19  21
ENDBRANCH  16  17
ENDBRANCH   1  16
TORSDOF 11
ENDMDL
MODEL 9
REMARK VINA RESULT:      -6.3      1.254      1.525
REMARK  Name = 
REMARK  13 active torsions:
REMARK  status: ('A' for Active; 'I' for Inactive)
REMARK    1  A    between atoms: C_1  and  C_2
REMARK    2  A    between atoms: C_2  and  C_3
REMARK    3  A    between atoms: C_3  and  C_4
REMARK    4  A    between atoms: C_4  and  C_5
REMARK    5  A    between atoms: C_5  and  C_6
REMARK    6  A    between atoms: C_6  and  C_7
REMARK    7  A    between atoms: C_6  and  C_12
REMARK    8  A    between atoms: C_7  and  C_8
REMARK    9  A    between atoms: N_10  and  O_11
REMARK   10  A    between atoms: N_14  and  C_15
REMARK   11  A    between atoms: C_15  and  C_16
REMARK   12  A    between atoms: C_16  and  O_18
REMARK   13  A    between atoms: O_18  and  C_19
REMARK                            x       y       z     vdW  Elec       q    Type
REMARK                         _______ _______ _______ _____ _____    ______ ____
ROOT
ATOM      1  C   UNL     1       4.890   4.925  16.039  0.00  0.00    +0.000 C 
ENDROOT
BRANCH   1   2
ATOM      2  C   UNL     1       3.949   4.271  17.055  0.00  0.00    +0.000 C 
ATOM      3  O   UNL     1       3.052   4.910  17.601  0.00  0.00    +0.000 OA
ATOM      4  N   UNL     1       4.227   2.962  17.354  0.00  0.00    +0.000 N 
ATOM      5  H   UNL     1       5.149   2.606  17.124  0.00  0.00    +0.000 HD
BRANCH   4   6
ATOM      6  C   UNL     1       3.492   2.261  18.393  0.00  0.00    +0.000 C 
BRANCH   6   7
ATOM      7  C   UNL     1       4.060   2.554  19.776  0.00  0.00    +0.000 C 
ATOM      8  O   UNL     1       5.226   2.829  20.026  0.00  0.00    +0.000 OA
BRANCH   7   9
ATOM      9  O   UNL     1       3.065   2.440  20.705  0.00  0.00    +0.000 OA
ATOM     10  C   UNL     1       2.080   3.470  20.628  0.00  0.00    +0.000 C 
ENDBRANCH   7   9
ENDBRANCH   6   7
ENDBRANCH   4   6
ENDBRANCH   1   2
BRANCH   1  11
ATOM     11  C   UNL     1       5.914   3.958  15.409  0.00  0.00    +0.000 C 
BRANCH  11  12
ATOM     12  C   UNL     1       6.561   4.522  14.144  0.00  0.00    +0.000 C 
BRANCH  12  13
ATOM     13  C   UNL     1       6.317   3.637  12.920  0.00  0.00    +0.000 C 
BRANCH  13  15
ATOM     14  C   UNL     1       4.413   3.260  11.297  0.00  0.00    +0.000 C 
ATOM     15  C   UNL     1       4.814   3.411  12.752  0.00  0.00    +0.000 C 
ENDBRANCH  13  15
ENDBRANCH  12  13
ENDBRANCH  11  12
ENDBRANCH   1  11
BRANCH   1  16
ATOM     16  C   UNL     1       5.549   6.159  16.673  0.00  0.00    +0.000 C 
BRANCH  16  17
ATOM     17  C   UNL     1       6.591   5.851  17.733  0.00  0.00    +0.000 C 
ATOM     18  O   UNL     1       7.809   5.908  17.547  0.00  0.00    +0.000 OA
ATOM     19  N   UNL     1       6.058   5.570  18.968  0.00  0.00    +0.000 N 
ATOM     20  H   UNL     1       5.172   5.077  19.044  0.00  0.00    +0.000 HD
BRANCH  19  21
ATOM     21  O   UNL     1       7.015   5.243  19.962  0.00  0.00    +0.000 OA
ATOM     22  H   UNL     1       7.298   4.341  19.693  0.00  0.00    +0.000 HD
ENDBRANCH  19  21
ENDBRANCH  16  17
ENDBRANCH   1  16
TORSDOF 11
ENDMDL
