MODEL 1
REMARK VINA RESULT:      -6.8      0.000      0.000
REMARK  Name = 
REMARK  10 active torsions:
REMARK  status: ('A' for Active; 'I' for Inactive)
REMARK    1  A    between atoms: C_1  and  C_2
REMARK    2  A    between atoms: N_5  and  C_6
REMARK    3  A    between atoms: C_6  and  C_7
REMARK    4  A    between atoms: C_8  and  C_9
REMARK    5  A    between atoms: C_12  and  S_13
REMARK    6  A    between atoms: S_13  and  C_14
REMARK    7  A    between atoms: C_14  and  C_15
REMARK    8  A    between atoms: C_14  and  C_16
REMARK    9  A    between atoms: N_17  and  C_18
REMARK   10  A    between atoms: N_24  and  C_25
REMARK                            x       y       z     vdW  Elec       q    Type
REMARK                         _______ _______ _______ _____ _____    ______ ____
ROOT
ATOM      1  C   UNL     1      -3.984  13.238  20.547  0.00  0.00    +0.000 A 
ATOM      2  C   UNL     1      -2.784  12.916  19.899  0.00  0.00    +0.000 A 
ATOM      3  N   UNL     1      -3.078  11.937  18.966  0.00  0.00    +0.000 N 
ATOM      4  C   UNL     1      -2.157  11.268  18.066  0.00  0.00    +0.000 C 
ATOM      5  C   UNL     1      -4.444  11.722  18.899  0.00  0.00    +0.000 A 
ATOM      6  C   UNL     1      -5.207  10.901  18.051  0.00  0.00    +0.000 A 
ATOM      7  C   UNL     1      -6.596  10.902  18.200  0.00  0.00    +0.000 A 
ATOM      8  C   UNL     1      -7.206  11.682  19.175  0.00  0.00    +0.000 A 
ATOM      9  C   UNL     1      -6.436  12.485  20.023  0.00  0.00    +0.000 A 
ATOM     10  C   UNL     1      -5.031  12.515  19.883  0.00  0.00    +0.000 A 
ENDROOT
BRANCH   2  11
ATOM     11  C   UNL     1      -1.455  13.466  20.076  0.00  0.00    +0.000 A 
ATOM     12  N   UNL     1      -1.167  14.713  19.757  0.00  0.00    +0.000 NA
ATOM     13  N   UNL     1       0.176  14.906  19.915  0.00  0.00    +0.000 NA
ATOM     14  C   UNL     1       0.707  13.772  20.312  0.00  0.00    +0.000 A 
ATOM     15  N   UNL     1      -0.298  12.829  20.560  0.00  0.00    +0.000 N 
BRANCH  15  16
ATOM     16  C   UNL     1      -0.222  11.556  21.225  0.00  0.00    +0.000 A 
ATOM     17  C   UNL     1       0.423  10.475  20.598  0.00  0.00    +0.000 A 
ATOM     18  C   UNL     1       0.502   9.221  21.211  0.00  0.00    +0.000 A 
ATOM     19  C   UNL     1      -0.103   9.010  22.441  0.00  0.00    +0.000 A 
ATOM     20  C   UNL     1      -0.753  10.062  23.074  0.00  0.00    +0.000 A 
ATOM     21  C   UNL     1      -0.790  11.330  22.486  0.00  0.00    +0.000 A 
ENDBRANCH  15  16
BRANCH  14  22
ATOM     22  S   UNL     1       2.422  13.547  20.521  0.00  0.00    +0.000 S 
BRANCH  22  23
ATOM     23  C   UNL     1       3.072  13.384  18.827  0.00  0.00    +0.000 C 
ATOM     24  C   UNL     1       2.142  12.501  17.999  0.00  0.00    +0.000 C 
ATOM     25  C   UNL     1       3.142  14.783  18.201  0.00  0.00    +0.000 C 
ENDBRANCH  22  23
ENDBRANCH  14  22
ENDBRANCH   2  11
BRANCH   1  26
ATOM     26  C   UNL     1      -4.198  14.241  21.649  0.00  0.00    +0.000 C 
BRANCH  26  31
ATOM     27  C   UNL     1      -2.488  16.517  25.210  0.00  0.00    +0.000 C 
ATOM     28  C   UNL     1      -3.417  15.328  24.982  0.00  0.00    +0.000 C 
ATOM     29  C   UNL     1      -2.660  14.189  24.283  0.00  0.00    +0.000 C 
ATOM     30  C   UNL     1      -3.593  13.102  23.752  0.00  0.00    +0.000 C 
ATOM     31  N   UNL     1      -4.675  13.626  22.903  0.00  0.00    +0.000 NA
ATOM     32  C   UNL     1      -5.477  14.581  23.685  0.00  0.00    +0.000 C 
ATOM     33  C   UNL     1      -4.669  15.769  24.205  0.00  0.00    +0.000 C 
ENDBRANCH  26  31
ENDBRANCH   1  26
TORSDOF 6
ENDMDL
MODEL 2
REMARK VINA RESULT:      -6.8      0.594      1.180
REMARK  Name = 
REMARK  10 active torsions:
REMARK  status: ('A' for Active; 'I' for Inactive)
REMARK    1  A    between atoms: C_1  and  C_2
REMARK    2  A    between atoms: N_5  and  C_6
REMARK    3  A    between atoms: C_6  and  C_7
REMARK    4  A    between atoms: C_8  and  C_9
REMARK    5  A    between atoms: C_12  and  S_13
REMARK    6  A    between atoms: S_13  and  C_14
REMARK    7  A    between atoms: C_14  and  C_15
REMARK    8  A    between atoms: C_14  and  C_16
REMARK    9  A    between atoms: N_17  and  C_18
REMARK   10  A    between atoms: N_24  and  C_25
REMARK                            x       y       z     vdW  Elec       q    Type
REMARK                         _______ _______ _______ _____ _____    ______ ____
ROOT
ATOM      1  C   UNL     1      -4.042  13.317  20.602  0.00  0.00    +0.000 A 
ATOM      2  C   UNL     1      -2.874  12.937  19.928  0.00  0.00    +0.000 A 
ATOM      3  N   UNL     1      -3.238  11.985  18.992  0.00  0.00    +0.000 N 
ATOM      4  C   UNL     1      -2.373  11.277  18.068  0.00  0.00    +0.000 C 
ATOM      5  C   UNL     1      -4.615  11.845  18.950  0.00  0.00    +0.000 A 
ATOM      6  C   UNL     1      -5.438  11.076  18.108  0.00  0.00    +0.000 A 
ATOM      7  C   UNL     1      -6.822  11.151  18.284  0.00  0.00    +0.000 A 
ATOM      8  C   UNL     1      -7.369  11.952  19.279  0.00  0.00    +0.000 A 
ATOM      9  C   UNL     1      -6.541  12.703  20.119  0.00  0.00    +0.000 A 
ATOM     10  C   UNL     1      -5.139  12.659  19.952  0.00  0.00    +0.000 A 
ENDROOT
BRANCH   2  11
ATOM     11  C   UNL     1      -1.514  13.412  20.085  0.00  0.00    +0.000 A 
ATOM     12  N   UNL     1      -1.163  14.644  19.768  0.00  0.00    +0.000 NA
ATOM     13  N   UNL     1       0.190  14.761  19.903  0.00  0.00    +0.000 NA
ATOM     14  C   UNL     1       0.666  13.597  20.283  0.00  0.00    +0.000 A 
ATOM     15  N   UNL     1      -0.385  12.709  20.544  0.00  0.00    +0.000 N 
BRANCH  15  16
ATOM     16  C   UNL     1      -0.367  11.429  21.199  0.00  0.00    +0.000 A 
ATOM     17  C   UNL     1      -0.767  11.324  22.543  0.00  0.00    +0.000 A 
ATOM     18  C   UNL     1      -0.748  10.098  23.213  0.00  0.00    +0.000 A 
ATOM     19  C   UNL     1      -0.283   8.960  22.569  0.00  0.00    +0.000 A 
ATOM     20  C   UNL     1       0.125   9.044  21.243  0.00  0.00    +0.000 A 
ATOM     21  C   UNL     1       0.059  10.259  20.555  0.00  0.00    +0.000 A 
ENDBRANCH  15  16
BRANCH  14  22
ATOM     22  S   UNL     1       2.369  13.277  20.461  0.00  0.00    +0.000 S 
BRANCH  22  23
ATOM     23  C   UNL     1       3.186  14.726  19.715  0.00  0.00    +0.000 C 
ATOM     24  C   UNL     1       4.367  15.155  20.581  0.00  0.00    +0.000 C 
ATOM     25  C   UNL     1       3.690  14.330  18.321  0.00  0.00    +0.000 C 
ENDBRANCH  22  23
ENDBRANCH  14  22
ENDBRANCH   2  11
BRANCH   1  26
ATOM     26  C   UNL     1      -4.180  14.318  21.718  0.00  0.00    +0.000 C 
BRANCH  26  31
ATOM     27  C   UNL     1      -2.633  16.807  25.210  0.00  0.00    +0.000 C 
ATOM     28  C   UNL     1      -3.478  15.551  25.017  0.00  0.00    +0.000 C 
ATOM     29  C   UNL     1      -2.644  14.447  24.350  0.00  0.00    +0.000 C 
ATOM     30  C   UNL     1      -3.499  13.283  23.851  0.00  0.00    +0.000 C 
ATOM     31  N   UNL     1      -4.614  13.707  22.990  0.00  0.00    +0.000 NA
ATOM     32  C   UNL     1      -5.481  14.626  23.745  0.00  0.00    +0.000 C 
ATOM     33  C   UNL     1      -4.757  15.882  24.230  0.00  0.00    +0.000 C 
ENDBRANCH  26  31
ENDBRANCH   1  26
TORSDOF 6
ENDMDL
MODEL 3
REMARK VINA RESULT:      -6.8      1.483      4.727
REMARK  Name = 
REMARK  10 active torsions:
REMARK  status: ('A' for Active; 'I' for Inactive)
REMARK    1  A    between atoms: C_1  and  C_2
REMARK    2  A    between atoms: N_5  and  C_6
REMARK    3  A    between atoms: C_6  and  C_7
REMARK    4  A    between atoms: C_8  and  C_9
REMARK    5  A    between atoms: C_12  and  S_13
REMARK    6  A    between atoms: S_13  and  C_14
REMARK    7  A    between atoms: C_14  and  C_15
REMARK    8  A    between atoms: C_14  and  C_16
REMARK    9  A    between atoms: N_17  and  C_18
REMARK   10  A    between atoms: N_24  and  C_25
REMARK                            x       y       z     vdW  Elec       q    Type
REMARK                         _______ _______ _______ _____ _____    ______ ____
ROOT
ATOM      1  C   UNL     1      -4.326  12.606  19.970  0.00  0.00    +0.000 A 
ATOM      2  C   UNL     1      -3.552  13.338  20.881  0.00  0.00    +0.000 A 
ATOM      3  N   UNL     1      -4.328  13.524  22.012  0.00  0.00    +0.000 N 
ATOM      4  C   UNL     1      -3.970  14.242  23.221  0.00  0.00    +0.000 C 
ATOM      5  C   UNL     1      -5.515  12.820  21.910  0.00  0.00    +0.000 A 
ATOM      6  C   UNL     1      -6.560  12.636  22.832  0.00  0.00    +0.000 A 
ATOM      7  C   UNL     1      -7.645  11.841  22.456  0.00  0.00    +0.000 A 
ATOM      8  C   UNL     1      -7.697  11.260  21.195  0.00  0.00    +0.000 A 
ATOM      9  C   UNL     1      -6.658  11.460  20.280  0.00  0.00    +0.000 A 
ATOM     10  C   UNL     1      -5.542  12.246  20.640  0.00  0.00    +0.000 A 
ENDROOT
BRANCH   2  11
ATOM     11  C   UNL     1      -2.190  13.821  20.767  0.00  0.00    +0.000 A 
ATOM     12  N   UNL     1      -1.918  15.077  20.469  0.00  0.00    +0.000 NA
ATOM     13  N   UNL     1      -0.568  15.205  20.311  0.00  0.00    +0.000 NA
ATOM     14  C   UNL     1      -0.021  14.025  20.494  0.00  0.00    +0.000 A 
ATOM     15  N   UNL     1      -0.989  13.105  20.915  0.00  0.00    +0.000 N 
BRANCH  15  16
ATOM     16  C   UNL     1      -0.827  11.783  21.459  0.00  0.00    +0.000 A 
ATOM     17  C   UNL     1      -1.168  11.529  22.799  0.00  0.00    +0.000 A 
ATOM     18  C   UNL     1      -1.009  10.260  23.361  0.00  0.00    +0.000 A 
ATOM     19  C   UNL     1      -0.462   9.230  22.609  0.00  0.00    +0.000 A 
ATOM     20  C   UNL     1      -0.111   9.461  21.285  0.00  0.00    +0.000 A 
ATOM     21  C   UNL     1      -0.315  10.718  20.705  0.00  0.00    +0.000 A 
ENDBRANCH  15  16
BRANCH  14  22
ATOM     22  S   UNL     1       1.679  13.720  20.268  0.00  0.00    +0.000 S 
BRANCH  22  23
ATOM     23  C   UNL     1       1.878  13.549  18.464  0.00  0.00    +0.000 C 
ATOM     24  C   UNL     1       2.931  14.534  17.965  0.00  0.00    +0.000 C 
ATOM     25  C   UNL     1       2.332  12.115  18.163  0.00  0.00    +0.000 C 
ENDBRANCH  22  23
ENDBRANCH  14  22
ENDBRANCH   2  11
BRANCH   1  26
ATOM     26  C   UNL     1      -3.940  12.154  18.586  0.00  0.00    +0.000 C 
BRANCH  26  31
ATOM     27  C   UNL     1      -3.595  10.106  14.528  0.00  0.00    +0.000 C 
ATOM     28  C   UNL     1      -2.816  10.132  15.840  0.00  0.00    +0.000 C 
ATOM     29  C   UNL     1      -3.678   9.573  16.982  0.00  0.00    +0.000 C 
ATOM     30  C   UNL     1      -3.081   9.852  18.360  0.00  0.00    +0.000 C 
ATOM     31  N   UNL     1      -2.757  11.271  18.578  0.00  0.00    +0.000 NA
ATOM     32  C   UNL     1      -1.786  11.703  17.560  0.00  0.00    +0.000 C 
ATOM     33  C   UNL     1      -2.301  11.552  16.128  0.00  0.00    +0.000 C 
ENDBRANCH  26  31
ENDBRANCH   1  26
TORSDOF 6
ENDMDL
MODEL 4
REMARK VINA RESULT:      -6.7      1.291      1.872
REMARK  Name = 
REMARK  10 active torsions:
REMARK  status: ('A' for Active; 'I' for Inactive)
REMARK    1  A    between atoms: C_1  and  C_2
REMARK    2  A    between atoms: N_5  and  C_6
REMARK    3  A    between atoms: C_6  and  C_7
REMARK    4  A    between atoms: C_8  and  C_9
REMARK    5  A    between atoms: C_12  and  S_13
REMARK    6  A    between atoms: S_13  and  C_14
REMARK    7  A    between atoms: C_14  and  C_15
REMARK    8  A    between atoms: C_14  and  C_16
REMARK    9  A    between atoms: N_17  and  C_18
REMARK   10  A    between atoms: N_24  and  C_25
REMARK                            x       y       z     vdW  Elec       q    Type
REMARK                         _______ _______ _______ _____ _____    ______ ____
ROOT
ATOM      1  C   UNL     1      -3.101  12.848  20.280  0.00  0.00    +0.000 A 
ATOM      2  C   UNL     1      -2.164  12.645  19.257  0.00  0.00    +0.000 A 
ATOM      3  N   UNL     1      -2.762  11.821  18.319  0.00  0.00    +0.000 N 
ATOM      4  C   UNL     1      -2.180  11.312  17.091  0.00  0.00    +0.000 C 
ATOM      5  C   UNL     1      -4.091  11.605  18.637  0.00  0.00    +0.000 A 
ATOM      6  C   UNL     1      -5.105  10.920  17.944  0.00  0.00    +0.000 A 
ATOM      7  C   UNL     1      -6.384  10.883  18.506  0.00  0.00    +0.000 A 
ATOM      8  C   UNL     1      -6.642  11.494  19.727  0.00  0.00    +0.000 A 
ATOM      9  C   UNL     1      -5.623  12.161  20.414  0.00  0.00    +0.000 A 
ATOM     10  C   UNL     1      -4.325  12.228  19.862  0.00  0.00    +0.000 A 
ENDROOT
BRANCH   2  11
ATOM     11  C   UNL     1      -0.823  13.174  19.106  0.00  0.00    +0.000 A 
ATOM     12  N   UNL     1      -0.601  14.445  18.832  0.00  0.00    +0.000 NA
ATOM     13  N   UNL     1       0.737  14.620  18.626  0.00  0.00    +0.000 NA
ATOM     14  C   UNL     1       1.327  13.453  18.756  0.00  0.00    +0.000 A 
ATOM     15  N   UNL     1       0.404  12.492  19.189  0.00  0.00    +0.000 N 
BRANCH  15  16
ATOM     16  C   UNL     1       0.627  11.162  19.689  0.00  0.00    +0.000 A 
ATOM     17  C   UNL     1       0.478  10.895  21.062  0.00  0.00    +0.000 A 
ATOM     18  C   UNL     1       0.700   9.618  21.582  0.00  0.00    +0.000 A 
ATOM     19  C   UNL     1       1.123   8.592  20.749  0.00  0.00    +0.000 A 
ATOM     20  C   UNL     1       1.285   8.836  19.391  0.00  0.00    +0.000 A 
ATOM     21  C   UNL     1       1.014  10.101  18.860  0.00  0.00    +0.000 A 
ENDBRANCH  15  16
BRANCH  14  22
ATOM     22  S   UNL     1       3.025  13.207  18.458  0.00  0.00    +0.000 S 
BRANCH  22  23
ATOM     23  C   UNL     1       3.777  14.848  18.712  0.00  0.00    +0.000 C 
ATOM     24  C   UNL     1       4.102  15.045  20.190  0.00  0.00    +0.000 C 
ATOM     25  C   UNL     1       5.069  14.918  17.889  0.00  0.00    +0.000 C 
ENDBRANCH  22  23
ENDBRANCH  14  22
ENDBRANCH   2  11
BRANCH   1  26
ATOM     26  C   UNL     1      -2.935  13.663  21.535  0.00  0.00    +0.000 C 
BRANCH  26  31
ATOM     27  C   UNL     1      -2.837  16.268  25.275  0.00  0.00    +0.000 C 
ATOM     28  C   UNL     1      -2.528  14.819  24.911  0.00  0.00    +0.000 C 
ATOM     29  C   UNL     1      -1.365  14.758  23.910  0.00  0.00    +0.000 C 
ATOM     30  C   UNL     1      -1.208  13.378  23.274  0.00  0.00    +0.000 C 
ATOM     31  N   UNL     1      -2.453  12.865  22.680  0.00  0.00    +0.000 NA
ATOM     32  C   UNL     1      -3.482  12.775  23.728  0.00  0.00    +0.000 C 
ATOM     33  C   UNL     1      -3.794  14.117  24.389  0.00  0.00    +0.000 C 
ENDBRANCH  26  31
ENDBRANCH   1  26
TORSDOF 6
ENDMDL
MODEL 5
REMARK VINA RESULT:      -6.7      0.787      1.127
REMARK  Name = 
REMARK  10 active torsions:
REMARK  status: ('A' for Active; 'I' for Inactive)
REMARK    1  A    between atoms: C_1  and  C_2
REMARK    2  A    between atoms: N_5  and  C_6
REMARK    3  A    between atoms: C_6  and  C_7
REMARK    4  A    between atoms: C_8  and  C_9
REMARK    5  A    between atoms: C_12  and  S_13
REMARK    6  A    between atoms: S_13  and  C_14
REMARK    7  A    between atoms: C_14  and  C_15
REMARK    8  A    between atoms: C_14  and  C_16
REMARK    9  A    between atoms: N_17  and  C_18
REMARK   10  A    between atoms: N_24  and  C_25
REMARK                            x       y       z     vdW  Elec       q    Type
REMARK                         _______ _______ _______ _____ _____    ______ ____
ROOT
ATOM      1  C   UNL     1      -4.056  13.032  20.859  0.00  0.00    +0.000 A 
ATOM      2  C   UNL     1      -2.887  12.912  20.096  0.00  0.00    +0.000 A 
ATOM      3  N   UNL     1      -3.193  12.105  19.013  0.00  0.00    +0.000 N 
ATOM      4  C   UNL     1      -2.302  11.674  17.952  0.00  0.00    +0.000 C 
ATOM      5  C   UNL     1      -4.547  11.820  18.984  0.00  0.00    +0.000 A 
ATOM      6  C   UNL     1      -5.323  11.125  18.041  0.00  0.00    +0.000 A 
ATOM      7  C   UNL     1      -6.697  11.011  18.265  0.00  0.00    +0.000 A 
ATOM      8  C   UNL     1      -7.279  11.557  19.403  0.00  0.00    +0.000 A 
ATOM      9  C   UNL     1      -6.496  12.236  20.342  0.00  0.00    +0.000 A 
ATOM     10  C   UNL     1      -5.107  12.380  20.132  0.00  0.00    +0.000 A 
ENDROOT
BRANCH   2  11
ATOM     11  C   UNL     1      -1.579  13.502  20.298  0.00  0.00    +0.000 A 
ATOM     12  N   UNL     1      -1.339  14.773  20.041  0.00  0.00    +0.000 NA
ATOM     13  N   UNL     1      -0.004  15.008  20.206  0.00  0.00    +0.000 NA
ATOM     14  C   UNL     1       0.570  13.876  20.546  0.00  0.00    +0.000 A 
ATOM     15  N   UNL     1      -0.398  12.885  20.748  0.00  0.00    +0.000 N 
BRANCH  15  16
ATOM     16  C   UNL     1      -0.272  11.584  21.349  0.00  0.00    +0.000 A 
ATOM     17  C   UNL     1       0.334  10.537  20.632  0.00  0.00    +0.000 A 
ATOM     18  C   UNL     1       0.459   9.258  21.182  0.00  0.00    +0.000 A 
ATOM     19  C   UNL     1      -0.061   8.988  22.440  0.00  0.00    +0.000 A 
ATOM     20  C   UNL     1      -0.671  10.007  23.161  0.00  0.00    +0.000 A 
ATOM     21  C   UNL     1      -0.752  11.299  22.634  0.00  0.00    +0.000 A 
ENDBRANCH  15  16
BRANCH  14  22
ATOM     22  S   UNL     1       2.293  13.706  20.741  0.00  0.00    +0.000 S 
BRANCH  22  23
ATOM     23  C   UNL     1       2.945  13.672  19.040  0.00  0.00    +0.000 C 
ATOM     24  C   UNL     1       2.050  12.804  18.160  0.00  0.00    +0.000 C 
ATOM     25  C   UNL     1       2.958  15.108  18.500  0.00  0.00    +0.000 C 
ENDBRANCH  22  23
ENDBRANCH  14  22
ENDBRANCH   2  11
BRANCH   1  26
ATOM     26  C   UNL     1      -4.246  13.798  22.142  0.00  0.00    +0.000 C 
BRANCH  26  31
ATOM     27  C   UNL     1      -2.793  17.086  24.945  0.00  0.00    +0.000 C 
ATOM     28  C   UNL     1      -3.885  16.912  23.893  0.00  0.00    +0.000 C 
ATOM     29  C   UNL     1      -4.878  15.826  24.331  0.00  0.00    +0.000 C 
ATOM     30  C   UNL     1      -5.808  15.388  23.201  0.00  0.00    +0.000 C 
ATOM     31  N   UNL     1      -5.092  14.997  21.976  0.00  0.00    +0.000 NA
ATOM     32  C   UNL     1      -4.295  16.140  21.501  0.00  0.00    +0.000 C 
ATOM     33  C   UNL     1      -3.261  16.622  22.517  0.00  0.00    +0.000 C 
ENDBRANCH  26  31
ENDBRANCH   1  26
TORSDOF 6
ENDMDL
MODEL 6
REMARK VINA RESULT:      -6.7      2.275      4.754
REMARK  Name = 
REMARK  10 active torsions:
REMARK  status: ('A' for Active; 'I' for Inactive)
REMARK    1  A    between atoms: C_1  and  C_2
REMARK    2  A    between atoms: N_5  and  C_6
REMARK    3  A    between atoms: C_6  and  C_7
REMARK    4  A    between atoms: C_8  and  C_9
REMARK    5  A    between atoms: C_12  and  S_13
REMARK    6  A    between atoms: S_13  and  C_14
REMARK    7  A    between atoms: C_14  and  C_15
REMARK    8  A    between atoms: C_14  and  C_16
REMARK    9  A    between atoms: N_17  and  C_18
REMARK   10  A    between atoms: N_24  and  C_25
REMARK                            x       y       z     vdW  Elec       q    Type
REMARK                         _______ _______ _______ _____ _____    ______ ____
ROOT
ATOM      1  C   UNL     1      -3.433  12.526  19.935  0.00  0.00    +0.000 A 
ATOM      2  C   UNL     1      -2.077  12.527  20.288  0.00  0.00    +0.000 A 
ATOM      3  N   UNL     1      -1.417  11.741  19.358  0.00  0.00    +0.000 N 
ATOM      4  C   UNL     1      -0.003  11.422  19.315  0.00  0.00    +0.000 C 
ATOM      5  C   UNL     1      -2.280  11.354  18.348  0.00  0.00    +0.000 A 
ATOM      6  C   UNL     1      -2.047  10.637  17.161  0.00  0.00    +0.000 A 
ATOM      7  C   UNL     1      -3.124  10.408  16.302  0.00  0.00    +0.000 A 
ATOM      8  C   UNL     1      -4.398  10.863  16.622  0.00  0.00    +0.000 A 
ATOM      9  C   UNL     1      -4.621  11.563  17.811  0.00  0.00    +0.000 A 
ATOM     10  C   UNL     1      -3.547  11.823  18.690  0.00  0.00    +0.000 A 
ENDROOT
BRANCH   2  11
ATOM     11  C   UNL     1      -1.398  13.208  21.372  0.00  0.00    +0.000 A 
ATOM     12  N   UNL     1      -0.898  12.555  22.403  0.00  0.00    +0.000 NA
ATOM     13  N   UNL     1      -0.435  13.463  23.312  0.00  0.00    +0.000 NA
ATOM     14  C   UNL     1      -0.670  14.667  22.843  0.00  0.00    +0.000 A 
ATOM     15  N   UNL     1      -1.176  14.587  21.539  0.00  0.00    +0.000 N 
BRANCH  15  16
ATOM     16  C   UNL     1      -1.350  15.621  20.555  0.00  0.00    +0.000 A 
ATOM     17  C   UNL     1      -0.408  15.773  19.523  0.00  0.00    +0.000 A 
ATOM     18  C   UNL     1      -0.541  16.776  18.559  0.00  0.00    +0.000 A 
ATOM     19  C   UNL     1      -1.593  17.678  18.635  0.00  0.00    +0.000 A 
ATOM     20  C   UNL     1      -2.531  17.552  19.653  0.00  0.00    +0.000 A 
ATOM     21  C   UNL     1      -2.427  16.518  20.589  0.00  0.00    +0.000 A 
ENDBRANCH  15  16
BRANCH  14  22
ATOM     22  S   UNL     1      -0.340  16.120  23.746  0.00  0.00    +0.000 S 
BRANCH  22  23
ATOM     23  C   UNL     1      -1.770  16.300  24.861  0.00  0.00    +0.000 C 
ATOM     24  C   UNL     1      -1.294  16.712  26.251  0.00  0.00    +0.000 C 
ATOM     25  C   UNL     1      -2.691  17.387  24.291  0.00  0.00    +0.000 C 
ENDBRANCH  22  23
ENDBRANCH  14  22
ENDBRANCH   2  11
BRANCH   1  26
ATOM     26  C   UNL     1      -4.569  13.225  20.635  0.00  0.00    +0.000 C 
BRANCH  26  31
ATOM     27  C   UNL     1      -6.217  16.105  23.762  0.00  0.00    +0.000 C 
ATOM     28  C   UNL     1      -6.090  14.594  23.586  0.00  0.00    +0.000 C 
ATOM     29  C   UNL     1      -4.611  14.187  23.529  0.00  0.00    +0.000 C 
ATOM     30  C   UNL     1      -4.414  12.749  23.051  0.00  0.00    +0.000 C 
ATOM     31  N   UNL     1      -5.098  12.460  21.781  0.00  0.00    +0.000 NA
ATOM     32  C   UNL     1      -6.541  12.696  21.949  0.00  0.00    +0.000 C 
ATOM     33  C   UNL     1      -6.878  14.132  22.348  0.00  0.00    +0.000 C 
ENDBRANCH  26  31
ENDBRANCH   1  26
TORSDOF 6
ENDMDL
MODEL 7
REMARK VINA RESULT:      -6.6      2.466      6.491
REMARK  Name = 
REMARK  10 active torsions:
REMARK  status: ('A' for Active; 'I' for Inactive)
REMARK    1  A    between atoms: C_1  and  C_2
REMARK    2  A    between atoms: N_5  and  C_6
REMARK    3  A    between atoms: C_6  and  C_7
REMARK    4  A    between atoms: C_8  and  C_9
REMARK    5  A    between atoms: C_12  and  S_13
REMARK    6  A    between atoms: S_13  and  C_14
REMARK    7  A    between atoms: C_14  and  C_15
REMARK    8  A    between atoms: C_14  and  C_16
REMARK    9  A    between atoms: N_17  and  C_18
REMARK   10  A    between atoms: N_24  and  C_25
REMARK                            x       y       z     vdW  Elec       q    Type
REMARK                         _______ _______ _______ _____ _____    ______ ____
ROOT
ATOM      1  C   UNL     1      -2.681  12.137  19.709  0.00  0.00    +0.000 A 
ATOM      2  C   UNL     1      -3.953  12.592  20.084  0.00  0.00    +0.000 A 
ATOM      3  N   UNL     1      -4.790  12.387  19.001  0.00  0.00    +0.000 N 
ATOM      4  C   UNL     1      -6.199  12.717  18.898  0.00  0.00    +0.000 C 
ATOM      5  C   UNL     1      -4.132  11.692  18.001  0.00  0.00    +0.000 A 
ATOM      6  C   UNL     1      -4.594  11.187  16.772  0.00  0.00    +0.000 A 
ATOM      7  C   UNL     1      -3.693  10.494  15.959  0.00  0.00    +0.000 A 
ATOM      8  C   UNL     1      -2.370  10.324  16.349  0.00  0.00    +0.000 A 
ATOM      9  C   UNL     1      -1.918  10.842  17.566  0.00  0.00    +0.000 A 
ATOM     10  C   UNL     1      -2.811  11.533  18.415  0.00  0.00    +0.000 A 
ENDROOT
BRANCH   2  11
ATOM     11  C   UNL     1      -4.408  13.150  21.341  0.00  0.00    +0.000 A 
ATOM     12  N   UNL     1      -4.551  12.410  22.424  0.00  0.00    +0.000 NA
ATOM     13  N   UNL     1      -5.107  13.176  23.407  0.00  0.00    +0.000 NA
ATOM     14  C   UNL     1      -5.320  14.377  22.918  0.00  0.00    +0.000 A 
ATOM     15  N   UNL     1      -4.781  14.475  21.629  0.00  0.00    +0.000 N 
BRANCH  15  16
ATOM     16  C   UNL     1      -4.560  15.637  20.811  0.00  0.00    +0.000 A 
ATOM     17  C   UNL     1      -3.302  16.264  20.807  0.00  0.00    +0.000 A 
ATOM     18  C   UNL     1      -3.059  17.402  20.034  0.00  0.00    +0.000 A 
ATOM     19  C   UNL     1      -4.082  17.966  19.285  0.00  0.00    +0.000 A 
ATOM     20  C   UNL     1      -5.337  17.367  19.281  0.00  0.00    +0.000 A 
ATOM     21  C   UNL     1      -5.568  16.199  20.015  0.00  0.00    +0.000 A 
ENDBRANCH  15  16
BRANCH  14  22
ATOM     22  S   UNL     1      -6.127  15.637  23.810  0.00  0.00    +0.000 S 
BRANCH  22  23
ATOM     23  C   UNL     1      -4.779  16.573  24.602  0.00  0.00    +0.000 C 
ATOM     24  C   UNL     1      -3.496  15.746  24.585  0.00  0.00    +0.000 C 
ATOM     25  C   UNL     1      -4.564  17.870  23.812  0.00  0.00    +0.000 C 
ENDBRANCH  22  23
ENDBRANCH  14  22
ENDBRANCH   2  11
BRANCH   1  26
ATOM     26  C   UNL     1      -1.419  12.148  20.531  0.00  0.00    +0.000 C 
BRANCH  26  31
ATOM     27  C   UNL     1       2.524  12.583  18.283  0.00  0.00    +0.000 C 
ATOM     28  C   UNL     1       1.629  13.458  19.157  0.00  0.00    +0.000 C 
ATOM     29  C   UNL     1       1.542  12.880  20.577  0.00  0.00    +0.000 C 
ATOM     30  C   UNL     1       0.432  13.523  21.407  0.00  0.00    +0.000 C 
ATOM     31  N   UNL     1      -0.879  13.505  20.740  0.00  0.00    +0.000 NA
ATOM     32  C   UNL     1      -0.778  14.233  19.464  0.00  0.00    +0.000 C 
ATOM     33  C   UNL     1       0.248  13.631  18.503  0.00  0.00    +0.000 C 
ENDBRANCH  26  31
ENDBRANCH   1  26
TORSDOF 6
ENDMDL
MODEL 8
REMARK VINA RESULT:      -6.6      0.905      1.585
REMARK  Name = 
REMARK  10 active torsions:
REMARK  status: ('A' for Active; 'I' for Inactive)
REMARK    1  A    between atoms: C_1  and  C_2
REMARK    2  A    between atoms: N_5  and  C_6
REMARK    3  A    between atoms: C_6  and  C_7
REMARK    4  A    between atoms: C_8  and  C_9
REMARK    5  A    between atoms: C_12  and  S_13
REMARK    6  A    between atoms: S_13  and  C_14
REMARK    7  A    between atoms: C_14  and  C_15
REMARK    8  A    between atoms: C_14  and  C_16
REMARK    9  A    between atoms: N_17  and  C_18
REMARK   10  A    between atoms: N_24  and  C_25
REMARK                            x       y       z     vdW  Elec       q    Type
REMARK                         _______ _______ _______ _____ _____    ______ ____
ROOT
ATOM      1  C   UNL     1      -4.026  12.993  20.806  0.00  0.00    +0.000 A 
ATOM      2  C   UNL     1      -2.888  12.820  20.007  0.00  0.00    +0.000 A 
ATOM      3  N   UNL     1      -3.265  12.037  18.930  0.00  0.00    +0.000 N 
ATOM      4  C   UNL     1      -2.429  11.569  17.841  0.00  0.00    +0.000 C 
ATOM      5  C   UNL     1      -4.633  11.821  18.940  0.00  0.00    +0.000 A 
ATOM      6  C   UNL     1      -5.470  11.172  18.016  0.00  0.00    +0.000 A 
ATOM      7  C   UNL     1      -6.841  11.125  18.282  0.00  0.00    +0.000 A 
ATOM      8  C   UNL     1      -7.360  11.693  19.439  0.00  0.00    +0.000 A 
ATOM      9  C   UNL     1      -6.517  12.325  20.358  0.00  0.00    +0.000 A 
ATOM     10  C   UNL     1      -5.129  12.400  20.107  0.00  0.00    +0.000 A 
ENDROOT
BRANCH   2  11
ATOM     11  C   UNL     1      -1.546  13.341  20.174  0.00  0.00    +0.000 A 
ATOM     12  N   UNL     1      -1.244  14.595  19.893  0.00  0.00    +0.000 NA
ATOM     13  N   UNL     1       0.104  14.760  20.027  0.00  0.00    +0.000 NA
ATOM     14  C   UNL     1       0.626  13.604  20.370  0.00  0.00    +0.000 A 
ATOM     15  N   UNL     1      -0.390  12.668  20.607  0.00  0.00    +0.000 N 
BRANCH  15  16
ATOM     16  C   UNL     1      -0.319  11.371  21.223  0.00  0.00    +0.000 A 
ATOM     17  C   UNL     1      -0.673  11.216  22.575  0.00  0.00    +0.000 A 
ATOM     18  C   UNL     1      -0.602   9.972  23.207  0.00  0.00    +0.000 A 
ATOM     19  C   UNL     1      -0.131   8.866  22.514  0.00  0.00    +0.000 A 
ATOM     20  C   UNL     1       0.232   8.998  21.179  0.00  0.00    +0.000 A 
ATOM     21  C   UNL     1       0.114  10.231  20.531  0.00  0.00    +0.000 A 
ENDBRANCH  15  16
BRANCH  14  22
ATOM     22  S   UNL     1       2.340  13.345  20.532  0.00  0.00    +0.000 S 
BRANCH  22  23
ATOM     23  C   UNL     1       3.100  14.766  19.681  0.00  0.00    +0.000 C 
ATOM     24  C   UNL     1       4.453  15.083  20.311  0.00  0.00    +0.000 C 
ATOM     25  C   UNL     1       3.297  14.395  18.205  0.00  0.00    +0.000 C 
ENDBRANCH  22  23
ENDBRANCH  14  22
ENDBRANCH   2  11
BRANCH   1  26
ATOM     26  C   UNL     1      -4.139  13.759  22.098  0.00  0.00    +0.000 C 
BRANCH  26  31
ATOM     27  C   UNL     1      -2.471  16.813  25.043  0.00  0.00    +0.000 C 
ATOM     28  C   UNL     1      -3.542  16.773  23.957  0.00  0.00    +0.000 C 
ATOM     29  C   UNL     1      -4.644  15.772  24.333  0.00  0.00    +0.000 C 
ATOM     30  C   UNL     1      -5.577  15.456  23.164  0.00  0.00    +0.000 C 
ATOM     31  N   UNL     1      -4.864  15.036  21.948  0.00  0.00    +0.000 NA
ATOM     32  C   UNL     1      -3.951  16.113  21.531  0.00  0.00    +0.000 C 
ATOM     33  C   UNL     1      -2.907  16.466  22.590  0.00  0.00    +0.000 C 
ENDBRANCH  26  31
ENDBRANCH   1  26
TORSDOF 6
ENDMDL
MODEL 9
REMARK VINA RESULT:      -6.5      2.225      4.841
REMARK  Name = 
REMARK  10 active torsions:
REMARK  status: ('A' for Active; 'I' for Inactive)
REMARK    1  A    between atoms: C_1  and  C_2
REMARK    2  A    between atoms: N_5  and  C_6
REMARK    3  A    between atoms: C_6  and  C_7
REMARK    4  A    between atoms: C_8  and  C_9
REMARK    5  A    between atoms: C_12  and  S_13
REMARK    6  A    between atoms: S_13  and  C_14
REMARK    7  A    between atoms: C_14  and  C_15
REMARK    8  A    between atoms: C_14  and  C_16
REMARK    9  A    between atoms: N_17  and  C_18
REMARK   10  A    between atoms: N_24  and  C_25
REMARK                            x       y       z     vdW  Elec       q    Type
REMARK                         _______ _______ _______ _____ _____    ______ ____
ROOT
ATOM      1  C   UNL     1      -2.941  12.643  20.297  0.00  0.00    +0.000 A 
ATOM      2  C   UNL     1      -1.643  12.835  20.791  0.00  0.00    +0.000 A 
ATOM      3  N   UNL     1      -0.809  11.996  20.072  0.00  0.00    +0.000 N 
ATOM      4  C   UNL     1       0.622  11.823  20.234  0.00  0.00    +0.000 C 
ATOM      5  C   UNL     1      -1.504  11.380  19.046  0.00  0.00    +0.000 A 
ATOM      6  C   UNL     1      -1.066  10.527  18.018  0.00  0.00    +0.000 A 
ATOM      7  C   UNL     1      -2.005  10.066  17.092  0.00  0.00    +0.000 A 
ATOM      8  C   UNL     1      -3.343  10.428  17.197  0.00  0.00    +0.000 A 
ATOM      9  C   UNL     1      -3.771  11.266  18.231  0.00  0.00    +0.000 A 
ATOM     10  C   UNL     1      -2.839  11.760  19.171  0.00  0.00    +0.000 A 
ENDROOT
BRANCH   2  11
ATOM     11  C   UNL     1      -1.164  13.733  21.823  0.00  0.00    +0.000 A 
ATOM     12  N   UNL     1      -1.120  13.377  23.092  0.00  0.00    +0.000 NA
ATOM     13  N   UNL     1      -0.747  14.459  23.837  0.00  0.00    +0.000 NA
ATOM     14  C   UNL     1      -0.583  15.478  23.023  0.00  0.00    +0.000 A 
ATOM     15  N   UNL     1      -0.712  15.058  21.693  0.00  0.00    +0.000 N 
BRANCH  15  16
ATOM     16  C   UNL     1      -0.384  15.749  20.475  0.00  0.00    +0.000 A 
ATOM     17  C   UNL     1       0.927  15.696  19.970  0.00  0.00    +0.000 A 
ATOM     18  C   UNL     1       1.281  16.368  18.797  0.00  0.00    +0.000 A 
ATOM     19  C   UNL     1       0.344  17.144  18.130  0.00  0.00    +0.000 A 
ATOM     20  C   UNL     1      -0.955  17.217  18.617  0.00  0.00    +0.000 A 
ATOM     21  C   UNL     1      -1.325  16.506  19.763  0.00  0.00    +0.000 A 
ENDBRANCH  15  16
BRANCH  14  22
ATOM     22  S   UNL     1      -0.219  17.088  23.578  0.00  0.00    +0.000 S 
BRANCH  22  23
ATOM     23  C   UNL     1      -1.838  17.797  24.021  0.00  0.00    +0.000 C 
ATOM     24  C   UNL     1      -2.890  17.357  23.007  0.00  0.00    +0.000 C 
ATOM     25  C   UNL     1      -2.223  17.283  25.415  0.00  0.00    +0.000 C 
ENDBRANCH  22  23
ENDBRANCH  14  22
ENDBRANCH   2  11
BRANCH   1  26
ATOM     26  C   UNL     1      -4.210  13.315  20.751  0.00  0.00    +0.000 C 
BRANCH  26  31
ATOM     27  C   UNL     1      -6.313  16.099  23.686  0.00  0.00    +0.000 C 
ATOM     28  C   UNL     1      -6.204  14.595  23.450  0.00  0.00    +0.000 C 
ATOM     29  C   UNL     1      -4.753  14.130  23.640  0.00  0.00    +0.000 C 
ATOM     30  C   UNL     1      -4.516  12.712  23.124  0.00  0.00    +0.000 C 
ATOM     31  N   UNL     1      -4.964  12.515  21.736  0.00  0.00    +0.000 NA
ATOM     32  C   UNL     1      -6.405  12.801  21.652  0.00  0.00    +0.000 C 
ATOM     33  C   UNL     1      -6.765  14.229  22.065  0.00  0.00    +0.000 C 
ENDBRANCH  26  31
ENDBRANCH   1  26
TORSDOF 6
ENDMDL
