MODEL 1
REMARK VINA RESULT:      -7.4      0.000      0.000
REMARK  Name = 
REMARK  7 active torsions:
REMARK  status: ('A' for Active; 'I' for Inactive)
REMARK    1  A    between atoms: C_1  and  C_2
REMARK    2  A    between atoms: C_4  and  C_5
REMARK    3  A    between atoms: C_12  and  C_13
REMARK    4  A    between atoms: C_13  and  S_14
REMARK    5  A    between atoms: S_14  and  C_16
REMARK    6  A    between atoms: C_16  and  C_17
REMARK    7  A    between atoms: N_19  and  C_20
REMARK                            x       y       z     vdW  Elec       q    Type
REMARK                         _______ _______ _______ _____ _____    ______ ____
ROOT
ATOM      1  S   UNL     1       1.079   2.982  18.546  0.00  0.00    +0.000 S 
ATOM      2  O   UNL     1      -0.139   2.053  18.194  0.00  0.00    +0.000 OA
ENDROOT
BRANCH   1   3
ATOM      3  C   UNL     1       2.623   2.097  18.161  0.00  0.00    +0.000 C 
BRANCH   3   9
ATOM      4  C   UNL     1       4.793   1.738  20.716  0.00  0.00    +0.000 C 
ATOM      5  C   UNL     1       4.709   2.676  19.585  0.00  0.00    +0.000 A 
ATOM      6  O   UNL     1       5.671   3.640  19.518  0.00  0.00    +0.000 OA
ATOM      7  C   UNL     1       5.327   4.396  18.435  0.00  0.00    +0.000 A 
ATOM      8  N   UNL     1       4.251   3.967  17.795  0.00  0.00    +0.000 NA
ATOM      9  C   UNL     1       3.840   2.864  18.529  0.00  0.00    +0.000 A 
BRANCH   7  10
ATOM     10  C   UNL     1       6.169   5.560  18.163  0.00  0.00    +0.000 A 
ATOM     11  C   UNL     1       5.851   6.524  17.200  0.00  0.00    +0.000 A 
ATOM     12  C   UNL     1       6.692   7.624  16.993  0.00  0.00    +0.000 A 
ATOM     13  C   UNL     1       7.834   7.799  17.769  0.00  0.00    +0.000 A 
ATOM     14  C   UNL     1       8.168   6.849  18.724  0.00  0.00    +0.000 A 
ATOM     15  C   UNL     1       7.357   5.724  18.877  0.00  0.00    +0.000 A 
ENDBRANCH   7  10
ENDBRANCH   3   9
ENDBRANCH   1   3
BRANCH   1  16
ATOM     16  C   UNL     1       1.261   3.052  20.351  0.00  0.00    +0.000 C 
BRANCH  16  17
ATOM     17  C   UNL     1       1.927   4.348  20.770  0.00  0.00    +0.000 C 
ATOM     18  O   UNL     1       2.502   4.467  21.844  0.00  0.00    +0.000 OA
ATOM     19  N   UNL     1       1.820   5.383  19.859  0.00  0.00    +0.000 N 
ATOM     20  H   UNL     1       1.065   5.302  19.181  0.00  0.00    +0.000 HD
BRANCH  19  21
ATOM     21  C   UNL     1       2.318   6.735  20.160  0.00  0.00    +0.000 C 
ATOM     22  C   UNL     1       2.950   7.363  18.909  0.00  0.00    +0.000 C 
ATOM     23  C   UNL     1       1.913   7.793  17.881  0.00  0.00    +0.000 C 
ATOM     24  C   UNL     1       1.466   9.238  17.985  0.00  0.00    +0.000 C 
ATOM     25  C   UNL     1       0.626   9.521  19.229  0.00  0.00    +0.000 C 
ATOM     26  C   UNL     1       1.256   9.091  20.556  0.00  0.00    +0.000 C 
ATOM     27  C   UNL     1       1.201   7.578  20.806  0.00  0.00    +0.000 C 
ENDBRANCH  19  21
ENDBRANCH  16  17
ENDBRANCH   1  16
TORSDOF 6
ENDMDL
MODEL 2
REMARK VINA RESULT:      -7.3      2.085      6.315
REMARK  Name = 
REMARK  7 active torsions:
REMARK  status: ('A' for Active; 'I' for Inactive)
REMARK    1  A    between atoms: C_1  and  C_2
REMARK    2  A    between atoms: C_4  and  C_5
REMARK    3  A    between atoms: C_12  and  C_13
REMARK    4  A    between atoms: C_13  and  S_14
REMARK    5  A    between atoms: S_14  and  C_16
REMARK    6  A    between atoms: C_16  and  C_17
REMARK    7  A    between atoms: N_19  and  C_20
REMARK                            x       y       z     vdW  Elec       q    Type
REMARK                         _______ _______ _______ _____ _____    ______ ____
ROOT
ATOM      1  S   UNL     1       1.822   4.140  18.948  0.00  0.00    +0.000 S 
ATOM      2  O   UNL     1       2.081   4.571  17.458  0.00  0.00    +0.000 OA
ENDROOT
BRANCH   1   3
ATOM      3  C   UNL     1       2.734   5.265  20.051  0.00  0.00    +0.000 C 
BRANCH   3   9
ATOM      4  C   UNL     1       3.227   7.716  17.788  0.00  0.00    +0.000 C 
ATOM      5  C   UNL     1       2.456   7.636  19.040  0.00  0.00    +0.000 A 
ATOM      6  O   UNL     1       1.803   8.767  19.430  0.00  0.00    +0.000 OA
ATOM      7  C   UNL     1       1.234   8.442  20.627  0.00  0.00    +0.000 A 
ATOM      8  N   UNL     1       1.444   7.192  21.006  0.00  0.00    +0.000 NA
ATOM      9  C   UNL     1       2.236   6.663  19.995  0.00  0.00    +0.000 A 
BRANCH   7  10
ATOM     10  C   UNL     1       0.511   9.512  21.313  0.00  0.00    +0.000 A 
ATOM     11  C   UNL     1       0.448  10.824  20.829  0.00  0.00    +0.000 A 
ATOM     12  C   UNL     1      -0.271  11.803  21.526  0.00  0.00    +0.000 A 
ATOM     13  C   UNL     1      -0.968  11.479  22.687  0.00  0.00    +0.000 A 
ATOM     14  C   UNL     1      -0.910  10.185  23.184  0.00  0.00    +0.000 A 
ATOM     15  C   UNL     1      -0.139   9.233  22.517  0.00  0.00    +0.000 A 
ENDBRANCH   7  10
ENDBRANCH   3   9
ENDBRANCH   1   3
BRANCH   1  16
ATOM     16  C   UNL     1       2.757   2.622  19.290  0.00  0.00    +0.000 C 
BRANCH  16  17
ATOM     17  C   UNL     1       4.248   2.892  19.240  0.00  0.00    +0.000 C 
ATOM     18  O   UNL     1       5.006   2.527  20.129  0.00  0.00    +0.000 OA
ATOM     19  N   UNL     1       4.680   3.592  18.128  0.00  0.00    +0.000 N 
ATOM     20  H   UNL     1       3.968   4.130  17.638  0.00  0.00    +0.000 HD
BRANCH  19  21
ATOM     21  C   UNL     1       6.078   4.028  17.981  0.00  0.00    +0.000 C 
ATOM     22  C   UNL     1       6.418   4.241  16.499  0.00  0.00    +0.000 C 
ATOM     23  C   UNL     1       5.790   5.505  15.930  0.00  0.00    +0.000 C 
ATOM     24  C   UNL     1       6.672   6.738  15.975  0.00  0.00    +0.000 C 
ATOM     25  C   UNL     1       6.900   7.263  17.391  0.00  0.00    +0.000 C 
ATOM     26  C   UNL     1       7.420   6.232  18.396  0.00  0.00    +0.000 C 
ATOM     27  C   UNL     1       6.350   5.247  18.884  0.00  0.00    +0.000 C 
ENDBRANCH  19  21
ENDBRANCH  16  17
ENDBRANCH   1  16
TORSDOF 6
ENDMDL
MODEL 3
REMARK VINA RESULT:      -7.2      3.089      5.310
REMARK  Name = 
REMARK  7 active torsions:
REMARK  status: ('A' for Active; 'I' for Inactive)
REMARK    1  A    between atoms: C_1  and  C_2
REMARK    2  A    between atoms: C_4  and  C_5
REMARK    3  A    between atoms: C_12  and  C_13
REMARK    4  A    between atoms: C_13  and  S_14
REMARK    5  A    between atoms: S_14  and  C_16
REMARK    6  A    between atoms: C_16  and  C_17
REMARK    7  A    between atoms: N_19  and  C_20
REMARK                            x       y       z     vdW  Elec       q    Type
REMARK                         _______ _______ _______ _____ _____    ______ ____
ROOT
ATOM      1  S   UNL     1       5.946   5.390  15.479  0.00  0.00    +0.000 S 
ATOM      2  O   UNL     1       7.511   5.402  15.324  0.00  0.00    +0.000 OA
ENDROOT
BRANCH   1   3
ATOM      3  C   UNL     1       5.476   6.583  16.771  0.00  0.00    +0.000 C 
BRANCH   3   9
ATOM      4  C   UNL     1       7.879   5.387  18.811  0.00  0.00    +0.000 C 
ATOM      5  C   UNL     1       7.615   6.713  18.229  0.00  0.00    +0.000 A 
ATOM      6  O   UNL     1       8.475   7.714  18.571  0.00  0.00    +0.000 OA
ATOM      7  C   UNL     1       7.973   8.825  17.959  0.00  0.00    +0.000 A 
ATOM      8  N   UNL     1       6.890   8.601  17.232  0.00  0.00    +0.000 NA
ATOM      9  C   UNL     1       6.645   7.245  17.403  0.00  0.00    +0.000 A 
BRANCH   7  10
ATOM     10  C   UNL     1       8.679  10.080  18.213  0.00  0.00    +0.000 A 
ATOM     11  C   UNL     1       8.459  11.244  17.468  0.00  0.00    +0.000 A 
ATOM     12  C   UNL     1       9.158  12.420  17.767  0.00  0.00    +0.000 A 
ATOM     13  C   UNL     1      10.052  12.462  18.833  0.00  0.00    +0.000 A 
ATOM     14  C   UNL     1      10.287  11.314  19.578  0.00  0.00    +0.000 A 
ATOM     15  C   UNL     1       9.633  10.132  19.231  0.00  0.00    +0.000 A 
ENDBRANCH   7  10
ENDBRANCH   3   9
ENDBRANCH   1   3
BRANCH   1  16
ATOM     16  C   UNL     1       5.453   3.867  16.335  0.00  0.00    +0.000 C 
BRANCH  16  17
ATOM     17  C   UNL     1       4.503   4.181  17.475  0.00  0.00    +0.000 C 
ATOM     18  O   UNL     1       4.853   4.125  18.647  0.00  0.00    +0.000 OA
ATOM     19  N   UNL     1       3.218   4.515  17.091  0.00  0.00    +0.000 N 
ATOM     20  H   UNL     1       2.940   4.212  16.160  0.00  0.00    +0.000 HD
BRANCH  19  21
ATOM     21  C   UNL     1       2.148   4.741  18.077  0.00  0.00    +0.000 C 
ATOM     22  C   UNL     1       1.271   3.488  18.211  0.00  0.00    +0.000 C 
ATOM     23  C   UNL     1       1.963   2.366  18.972  0.00  0.00    +0.000 C 
ATOM     24  C   UNL     1       1.679   2.329  20.461  0.00  0.00    +0.000 C 
ATOM     25  C   UNL     1       2.311   3.491  21.224  0.00  0.00    +0.000 C 
ATOM     26  C   UNL     1       1.985   4.885  20.682  0.00  0.00    +0.000 C 
ATOM     27  C   UNL     1       2.749   5.248  19.403  0.00  0.00    +0.000 C 
ENDBRANCH  19  21
ENDBRANCH  16  17
ENDBRANCH   1  16
TORSDOF 6
ENDMDL
MODEL 4
REMARK VINA RESULT:      -7.1      2.686      3.216
REMARK  Name = 
REMARK  7 active torsions:
REMARK  status: ('A' for Active; 'I' for Inactive)
REMARK    1  A    between atoms: C_1  and  C_2
REMARK    2  A    between atoms: C_4  and  C_5
REMARK    3  A    between atoms: C_12  and  C_13
REMARK    4  A    between atoms: C_13  and  S_14
REMARK    5  A    between atoms: S_14  and  C_16
REMARK    6  A    between atoms: C_16  and  C_17
REMARK    7  A    between atoms: N_19  and  C_20
REMARK                            x       y       z     vdW  Elec       q    Type
REMARK                         _______ _______ _______ _____ _____    ______ ____
ROOT
ATOM      1  S   UNL     1       2.368   3.485  17.990  0.00  0.00    +0.000 S 
ATOM      2  O   UNL     1       2.041   2.019  17.525  0.00  0.00    +0.000 OA
ENDROOT
BRANCH   1   3
ATOM      3  C   UNL     1       4.051   3.518  18.683  0.00  0.00    +0.000 C 
BRANCH   3   9
ATOM      4  C   UNL     1       6.743   5.515  19.052  0.00  0.00    +0.000 C 
ATOM      5  C   UNL     1       6.169   4.793  17.904  0.00  0.00    +0.000 A 
ATOM      6  O   UNL     1       6.802   4.946  16.707  0.00  0.00    +0.000 OA
ATOM      7  C   UNL     1       6.043   4.237  15.822  0.00  0.00    +0.000 A 
ATOM      8  N   UNL     1       5.006   3.623  16.368  0.00  0.00    +0.000 NA
ATOM      9  C   UNL     1       5.072   3.978  17.708  0.00  0.00    +0.000 A 
BRANCH   7  10
ATOM     10  C   UNL     1       6.467   4.282  14.423  0.00  0.00    +0.000 A 
ATOM     11  C   UNL     1       5.903   3.476  13.428  0.00  0.00    +0.000 A 
ATOM     12  C   UNL     1       6.343   3.573  12.102  0.00  0.00    +0.000 A 
ATOM     13  C   UNL     1       7.318   4.500  11.745  0.00  0.00    +0.000 A 
ATOM     14  C   UNL     1       7.893   5.304  12.720  0.00  0.00    +0.000 A 
ATOM     15  C   UNL     1       7.492   5.153  14.048  0.00  0.00    +0.000 A 
ENDBRANCH   7  10
ENDBRANCH   3   9
ENDBRANCH   1   3
BRANCH   1  16
ATOM     16  C   UNL     1       1.449   3.836  19.516  0.00  0.00    +0.000 C 
BRANCH  16  17
ATOM     17  C   UNL     1       1.924   5.135  20.137  0.00  0.00    +0.000 C 
ATOM     18  O   UNL     1       2.322   5.195  21.293  0.00  0.00    +0.000 OA
ATOM     19  N   UNL     1       1.858   6.239  19.309  0.00  0.00    +0.000 N 
ATOM     20  H   UNL     1       1.220   6.164  18.519  0.00  0.00    +0.000 HD
BRANCH  19  21
ATOM     21  C   UNL     1       2.179   7.592  19.793  0.00  0.00    +0.000 C 
ATOM     22  C   UNL     1       2.377   8.550  18.609  0.00  0.00    +0.000 C 
ATOM     23  C   UNL     1       1.066   8.923  17.932  0.00  0.00    +0.000 C 
ATOM     24  C   UNL     1       0.421  10.199  18.438  0.00  0.00    +0.000 C 
ATOM     25  C   UNL     1      -0.129  10.074  19.857  0.00  0.00    +0.000 C 
ATOM     26  C   UNL     1       0.864   9.560  20.902  0.00  0.00    +0.000 C 
ATOM     27  C   UNL     1       1.125   8.051  20.820  0.00  0.00    +0.000 C 
ENDBRANCH  19  21
ENDBRANCH  16  17
ENDBRANCH   1  16
TORSDOF 6
ENDMDL
MODEL 5
REMARK VINA RESULT:      -6.9      2.272      6.534
REMARK  Name = 
REMARK  7 active torsions:
REMARK  status: ('A' for Active; 'I' for Inactive)
REMARK    1  A    between atoms: C_1  and  C_2
REMARK    2  A    between atoms: C_4  and  C_5
REMARK    3  A    between atoms: C_12  and  C_13
REMARK    4  A    between atoms: C_13  and  S_14
REMARK    5  A    between atoms: S_14  and  C_16
REMARK    6  A    between atoms: C_16  and  C_17
REMARK    7  A    between atoms: N_19  and  C_20
REMARK                            x       y       z     vdW  Elec       q    Type
REMARK                         _______ _______ _______ _____ _____    ______ ____
ROOT
ATOM      1  S   UNL     1       1.218   4.165  19.726  0.00  0.00    +0.000 S 
ATOM      2  O   UNL     1       1.421   4.539  18.212  0.00  0.00    +0.000 OA
ENDROOT
BRANCH   1   3
ATOM      3  C   UNL     1       2.108   5.377  20.753  0.00  0.00    +0.000 C 
BRANCH   3   9
ATOM      4  C   UNL     1       2.832   7.610  18.333  0.00  0.00    +0.000 C 
ATOM      5  C   UNL     1       1.963   7.653  19.521  0.00  0.00    +0.000 A 
ATOM      6  O   UNL     1       1.308   8.824  19.757  0.00  0.00    +0.000 OA
ATOM      7  C   UNL     1       0.639   8.615  20.928  0.00  0.00    +0.000 A 
ATOM      8  N   UNL     1       0.791   7.400  21.430  0.00  0.00    +0.000 NA
ATOM      9  C   UNL     1       1.647   6.772  20.536  0.00  0.00    +0.000 A 
BRANCH   7  10
ATOM     10  C   UNL     1      -0.112   9.752  21.458  0.00  0.00    +0.000 A 
ATOM     11  C   UNL     1      -0.560   9.822  22.782  0.00  0.00    +0.000 A 
ATOM     12  C   UNL     1      -1.265  10.944  23.234  0.00  0.00    +0.000 A 
ATOM     13  C   UNL     1      -1.496  12.025  22.388  0.00  0.00    +0.000 A 
ATOM     14  C   UNL     1      -1.065  11.970  21.069  0.00  0.00    +0.000 A 
ATOM     15  C   UNL     1      -0.420  10.820  20.612  0.00  0.00    +0.000 A 
ENDBRANCH   7  10
ENDBRANCH   3   9
ENDBRANCH   1   3
BRANCH   1  16
ATOM     16  C   UNL     1       2.227   2.706  20.109  0.00  0.00    +0.000 C 
BRANCH  16  17
ATOM     17  C   UNL     1       3.478   2.683  19.253  0.00  0.00    +0.000 C 
ATOM     18  O   UNL     1       3.848   1.672  18.670  0.00  0.00    +0.000 OA
ATOM     19  N   UNL     1       4.172   3.877  19.197  0.00  0.00    +0.000 N 
ATOM     20  H   UNL     1       3.990   4.532  19.955  0.00  0.00    +0.000 HD
BRANCH  19  21
ATOM     21  C   UNL     1       5.463   3.992  18.499  0.00  0.00    +0.000 C 
ATOM     22  C   UNL     1       5.246   4.029  16.979  0.00  0.00    +0.000 C 
ATOM     23  C   UNL     1       4.680   5.358  16.500  0.00  0.00    +0.000 C 
ATOM     24  C   UNL     1       5.714   6.373  16.052  0.00  0.00    +0.000 C 
ATOM     25  C   UNL     1       6.550   6.929  17.202  0.00  0.00    +0.000 C 
ATOM     26  C   UNL     1       7.224   5.880  18.089  0.00  0.00    +0.000 C 
ATOM     27  C   UNL     1       6.265   5.182  19.062  0.00  0.00    +0.000 C 
ENDBRANCH  19  21
ENDBRANCH  16  17
ENDBRANCH   1  16
TORSDOF 6
ENDMDL
MODEL 6
REMARK VINA RESULT:      -6.9      2.534      6.612
REMARK  Name = 
REMARK  7 active torsions:
REMARK  status: ('A' for Active; 'I' for Inactive)
REMARK    1  A    between atoms: C_1  and  C_2
REMARK    2  A    between atoms: C_4  and  C_5
REMARK    3  A    between atoms: C_12  and  C_13
REMARK    4  A    between atoms: C_13  and  S_14
REMARK    5  A    between atoms: S_14  and  C_16
REMARK    6  A    between atoms: C_16  and  C_17
REMARK    7  A    between atoms: N_19  and  C_20
REMARK                            x       y       z     vdW  Elec       q    Type
REMARK                         _______ _______ _______ _____ _____    ______ ____
ROOT
ATOM      1  S   UNL     1       5.410   6.618  17.787  0.00  0.00    +0.000 S 
ATOM      2  O   UNL     1       5.418   6.053  19.254  0.00  0.00    +0.000 OA
ENDROOT
BRANCH   1   3
ATOM      3  C   UNL     1       3.690   6.689  17.196  0.00  0.00    +0.000 C 
BRANCH   3   9
ATOM      4  C   UNL     1       2.244   6.304  20.218  0.00  0.00    +0.000 C 
ATOM      5  C   UNL     1       2.270   7.406  19.243  0.00  0.00    +0.000 A 
ATOM      6  O   UNL     1       1.557   8.523  19.563  0.00  0.00    +0.000 OA
ATOM      7  C   UNL     1       1.697   9.344  18.482  0.00  0.00    +0.000 A 
ATOM      8  N   UNL     1       2.466   8.852  17.524  0.00  0.00    +0.000 NA
ATOM      9  C   UNL     1       2.837   7.602  17.999  0.00  0.00    +0.000 A 
BRANCH   7  10
ATOM     10  C   UNL     1       0.969  10.612  18.531  0.00  0.00    +0.000 A 
ATOM     11  C   UNL     1       1.600  11.848  18.702  0.00  0.00    +0.000 A 
ATOM     12  C   UNL     1       0.848  13.030  18.729  0.00  0.00    +0.000 A 
ATOM     13  C   UNL     1      -0.531  12.997  18.546  0.00  0.00    +0.000 A 
ATOM     14  C   UNL     1      -1.174  11.778  18.382  0.00  0.00    +0.000 A 
ATOM     15  C   UNL     1      -0.423  10.603  18.421  0.00  0.00    +0.000 A 
ENDBRANCH   7  10
ENDBRANCH   3   9
ENDBRANCH   1   3
BRANCH   1  16
ATOM     16  C   UNL     1       6.022   5.333  16.660  0.00  0.00    +0.000 C 
BRANCH  16  17
ATOM     17  C   UNL     1       5.065   4.157  16.623  0.00  0.00    +0.000 C 
ATOM     18  O   UNL     1       4.773   3.590  15.578  0.00  0.00    +0.000 OA
ATOM     19  N   UNL     1       4.539   3.790  17.848  0.00  0.00    +0.000 N 
ATOM     20  H   UNL     1       4.568   4.503  18.574  0.00  0.00    +0.000 HD
BRANCH  19  21
ATOM     21  C   UNL     1       3.515   2.740  17.969  0.00  0.00    +0.000 C 
ATOM     22  C   UNL     1       3.732   1.927  19.253  0.00  0.00    +0.000 C 
ATOM     23  C   UNL     1       3.332   2.694  20.506  0.00  0.00    +0.000 C 
ATOM     24  C   UNL     1       1.911   2.455  20.980  0.00  0.00    +0.000 C 
ATOM     25  C   UNL     1       0.858   3.052  20.050  0.00  0.00    +0.000 C 
ATOM     26  C   UNL     1       0.975   2.644  18.579  0.00  0.00    +0.000 C 
ATOM     27  C   UNL     1       2.108   3.354  17.827  0.00  0.00    +0.000 C 
ENDBRANCH  19  21
ENDBRANCH  16  17
ENDBRANCH   1  16
TORSDOF 6
ENDMDL
MODEL 7
REMARK VINA RESULT:      -6.9      3.630      7.035
REMARK  Name = 
REMARK  7 active torsions:
REMARK  status: ('A' for Active; 'I' for Inactive)
REMARK    1  A    between atoms: C_1  and  C_2
REMARK    2  A    between atoms: C_4  and  C_5
REMARK    3  A    between atoms: C_12  and  C_13
REMARK    4  A    between atoms: C_13  and  S_14
REMARK    5  A    between atoms: S_14  and  C_16
REMARK    6  A    between atoms: C_16  and  C_17
REMARK    7  A    between atoms: N_19  and  C_20
REMARK                            x       y       z     vdW  Elec       q    Type
REMARK                         _______ _______ _______ _____ _____    ______ ____
ROOT
ATOM      1  S   UNL     1       6.815   6.025  16.869  0.00  0.00    +0.000 S 
ATOM      2  O   UNL     1       7.621   5.886  15.526  0.00  0.00    +0.000 OA
ENDROOT
BRANCH   1   3
ATOM      3  C   UNL     1       5.047   5.762  16.522  0.00  0.00    +0.000 C 
BRANCH   3   9
ATOM      4  C   UNL     1       4.309   4.223  19.429  0.00  0.00    +0.000 C 
ATOM      5  C   UNL     1       3.900   5.505  18.831  0.00  0.00    +0.000 A 
ATOM      6  O   UNL     1       3.019   6.260  19.547  0.00  0.00    +0.000 OA
ATOM      7  C   UNL     1       2.765   7.340  18.752  0.00  0.00    +0.000 A 
ATOM      8  N   UNL     1       3.438   7.345  17.613  0.00  0.00    +0.000 NA
ATOM      9  C   UNL     1       4.168   6.165  17.649  0.00  0.00    +0.000 A 
BRANCH   7  10
ATOM     10  C   UNL     1       1.784   8.300  19.257  0.00  0.00    +0.000 A 
ATOM     11  C   UNL     1       1.236   9.317  18.468  0.00  0.00    +0.000 A 
ATOM     12  C   UNL     1       0.291  10.201  19.006  0.00  0.00    +0.000 A 
ATOM     13  C   UNL     1      -0.147  10.056  20.319  0.00  0.00    +0.000 A 
ATOM     14  C   UNL     1       0.392   9.057  21.118  0.00  0.00    +0.000 A 
ATOM     15  C   UNL     1       1.379   8.223  20.591  0.00  0.00    +0.000 A 
ENDBRANCH   7  10
ENDBRANCH   3   9
ENDBRANCH   1   3
BRANCH   1  16
ATOM     16  C   UNL     1       6.735   7.780  17.324  0.00  0.00    +0.000 C 
BRANCH  16  17
ATOM     17  C   UNL     1       7.983   8.193  18.079  0.00  0.00    +0.000 C 
ATOM     18  O   UNL     1       8.605   7.409  18.785  0.00  0.00    +0.000 OA
ATOM     19  N   UNL     1       8.352   9.516  17.923  0.00  0.00    +0.000 N 
ATOM     20  H   UNL     1       7.617  10.148  17.613  0.00  0.00    +0.000 HD
BRANCH  19  21
ATOM     21  C   UNL     1       9.477  10.101  18.673  0.00  0.00    +0.000 C 
ATOM     22  C   UNL     1      10.086  11.274  17.892  0.00  0.00    +0.000 C 
ATOM     23  C   UNL     1       9.205  12.516  17.919  0.00  0.00    +0.000 C 
ATOM     24  C   UNL     1       9.523  13.506  19.023  0.00  0.00    +0.000 C 
ATOM     25  C   UNL     1       9.165  12.991  20.415  0.00  0.00    +0.000 C 
ATOM     26  C   UNL     1       9.750  11.624  20.779  0.00  0.00    +0.000 C 
ATOM     27  C   UNL     1       9.033  10.445  20.108  0.00  0.00    +0.000 C 
ENDBRANCH  19  21
ENDBRANCH  16  17
ENDBRANCH   1  16
TORSDOF 6
ENDMDL
MODEL 8
REMARK VINA RESULT:      -6.8      3.084      5.367
REMARK  Name = 
REMARK  7 active torsions:
REMARK  status: ('A' for Active; 'I' for Inactive)
REMARK    1  A    between atoms: C_1  and  C_2
REMARK    2  A    between atoms: C_4  and  C_5
REMARK    3  A    between atoms: C_12  and  C_13
REMARK    4  A    between atoms: C_13  and  S_14
REMARK    5  A    between atoms: S_14  and  C_16
REMARK    6  A    between atoms: C_16  and  C_17
REMARK    7  A    between atoms: N_19  and  C_20
REMARK                            x       y       z     vdW  Elec       q    Type
REMARK                         _______ _______ _______ _____ _____    ______ ____
ROOT
ATOM      1  S   UNL     1       5.221   6.200  15.994  0.00  0.00    +0.000 S 
ATOM      2  O   UNL     1       4.578   4.943  15.304  0.00  0.00    +0.000 OA
ENDROOT
BRANCH   1   3
ATOM      3  C   UNL     1       6.967   5.838  16.361  0.00  0.00    +0.000 C 
BRANCH   3   9
ATOM      4  C   UNL     1       7.924   5.449  19.571  0.00  0.00    +0.000 C 
ATOM      5  C   UNL     1       7.954   6.588  18.638  0.00  0.00    +0.000 A 
ATOM      6  O   UNL     1       8.437   7.766  19.125  0.00  0.00    +0.000 OA
ATOM      7  C   UNL     1       8.296   8.649  18.095  0.00  0.00    +0.000 A 
ATOM      8  N   UNL     1       7.798   8.119  16.990  0.00  0.00    +0.000 NA
ATOM      9  C   UNL     1       7.567   6.792  17.329  0.00  0.00    +0.000 A 
BRANCH   7  10
ATOM     10  C   UNL     1       8.686  10.032  18.369  0.00  0.00    +0.000 A 
ATOM     11  C   UNL     1       8.363  11.098  17.522  0.00  0.00    +0.000 A 
ATOM     12  C   UNL     1       8.755  12.403  17.845  0.00  0.00    +0.000 A 
ATOM     13  C   UNL     1       9.434  12.667  19.030  0.00  0.00    +0.000 A 
ATOM     14  C   UNL     1       9.769  11.620  19.879  0.00  0.00    +0.000 A 
ATOM     15  C   UNL     1       9.430  10.317  19.516  0.00  0.00    +0.000 A 
ENDBRANCH   7  10
ENDBRANCH   3   9
ENDBRANCH   1   3
BRANCH   1  16
ATOM     16  C   UNL     1       4.612   6.308  17.701  0.00  0.00    +0.000 C 
BRANCH  16  17
ATOM     17  C   UNL     1       3.618   5.199  17.983  0.00  0.00    +0.000 C 
ATOM     18  O   UNL     1       2.427   5.422  18.161  0.00  0.00    +0.000 OA
ATOM     19  N   UNL     1       4.158   3.927  18.039  0.00  0.00    +0.000 N 
ATOM     20  H   UNL     1       5.159   3.879  18.215  0.00  0.00    +0.000 HD
BRANCH  19  21
ATOM     21  C   UNL     1       3.347   2.756  18.409  0.00  0.00    +0.000 C 
ATOM     22  C   UNL     1       3.596   2.376  19.876  0.00  0.00    +0.000 C 
ATOM     23  C   UNL     1       2.942   3.344  20.851  0.00  0.00    +0.000 C 
ATOM     24  C   UNL     1       1.555   2.946  21.320  0.00  0.00    +0.000 C 
ATOM     25  C   UNL     1       0.498   3.041  20.223  0.00  0.00    +0.000 C 
ATOM     26  C   UNL     1       0.828   2.294  18.928  0.00  0.00    +0.000 C 
ATOM     27  C   UNL     1       1.868   3.001  18.051  0.00  0.00    +0.000 C 
ENDBRANCH  19  21
ENDBRANCH  16  17
ENDBRANCH   1  16
TORSDOF 6
ENDMDL
MODEL 9
REMARK VINA RESULT:      -6.8      4.413      7.860
REMARK  Name = 
REMARK  7 active torsions:
REMARK  status: ('A' for Active; 'I' for Inactive)
REMARK    1  A    between atoms: C_1  and  C_2
REMARK    2  A    between atoms: C_4  and  C_5
REMARK    3  A    between atoms: C_12  and  C_13
REMARK    4  A    between atoms: C_13  and  S_14
REMARK    5  A    between atoms: S_14  and  C_16
REMARK    6  A    between atoms: C_16  and  C_17
REMARK    7  A    between atoms: N_19  and  C_20
REMARK                            x       y       z     vdW  Elec       q    Type
REMARK                         _______ _______ _______ _____ _____    ______ ____
ROOT
ATOM      1  S   UNL     1       7.239   7.254  17.472  0.00  0.00    +0.000 S 
ATOM      2  O   UNL     1       8.012   6.653  16.241  0.00  0.00    +0.000 OA
ENDROOT
BRANCH   1   3
ATOM      3  C   UNL     1       5.452   7.179  17.136  0.00  0.00    +0.000 C 
BRANCH   3   9
ATOM      4  C   UNL     1       5.272   4.211  15.545  0.00  0.00    +0.000 C 
ATOM      5  C   UNL     1       4.797   4.687  16.855  0.00  0.00    +0.000 A 
ATOM      6  O   UNL     1       4.111   3.790  17.619  0.00  0.00    +0.000 OA
ATOM      7  C   UNL     1       3.739   4.494  18.727  0.00  0.00    +0.000 A 
ATOM      8  N   UNL     1       4.162   5.747  18.740  0.00  0.00    +0.000 NA
ATOM      9  C   UNL     1       4.840   5.886  17.536  0.00  0.00    +0.000 A 
BRANCH   7  10
ATOM     10  C   UNL     1       2.920   3.778  19.705  0.00  0.00    +0.000 A 
ATOM     11  C   UNL     1       3.456   2.895  20.648  0.00  0.00    +0.000 A 
ATOM     12  C   UNL     1       2.621   2.247  21.568  0.00  0.00    +0.000 A 
ATOM     13  C   UNL     1       1.253   2.503  21.586  0.00  0.00    +0.000 A 
ATOM     14  C   UNL     1       0.704   3.372  20.652  0.00  0.00    +0.000 A 
ATOM     15  C   UNL     1       1.536   3.961  19.700  0.00  0.00    +0.000 A 
ENDBRANCH   7  10
ENDBRANCH   3   9
ENDBRANCH   1   3
BRANCH   1  16
ATOM     16  C   UNL     1       7.432   9.059  17.461  0.00  0.00    +0.000 C 
BRANCH  16  17
ATOM     17  C   UNL     1       8.614   9.474  18.316  0.00  0.00    +0.000 C 
ATOM     18  O   UNL     1       9.030   8.776  19.232  0.00  0.00    +0.000 OA
ATOM     19  N   UNL     1       9.169  10.698  17.994  0.00  0.00    +0.000 N 
ATOM     20  H   UNL     1       8.570  11.333  17.471  0.00  0.00    +0.000 HD
BRANCH  19  21
ATOM     21  C   UNL     1      10.252  11.293  18.795  0.00  0.00    +0.000 C 
ATOM     22  C   UNL     1      11.313  11.918  17.878  0.00  0.00    +0.000 C 
ATOM     23  C   UNL     1      10.845  13.218  17.240  0.00  0.00    +0.000 C 
ATOM     24  C   UNL     1      11.223  14.478  17.995  0.00  0.00    +0.000 C 
ATOM     25  C   UNL     1      10.473  14.635  19.316  0.00  0.00    +0.000 C 
ATOM     26  C   UNL     1      10.553  13.435  20.263  0.00  0.00    +0.000 C 
ATOM     27  C   UNL     1       9.664  12.256  19.845  0.00  0.00    +0.000 C 
ENDBRANCH  19  21
ENDBRANCH  16  17
ENDBRANCH   1  16
TORSDOF 6
ENDMDL
