MODEL 1
REMARK VINA RESULT:      -5.4      0.000      0.000
REMARK  Name = 
REMARK  4 active torsions:
REMARK  status: ('A' for Active; 'I' for Inactive)
REMARK    1  A    between atoms: C_1  and  C_2
REMARK    2  A    between atoms: C_2  and  N_3
REMARK    3  A    between atoms: C_2  and  C_5
REMARK    4  A    between atoms: N_3  and  N_4
REMARK                            x       y       z     vdW  Elec       q    Type
REMARK                         _______ _______ _______ _____ _____    ______ ____
ROOT
ATOM      1  C   UNL     1       6.104   4.250  14.343  0.00  0.00    +0.000 C 
ATOM      2  C   UNL     1       6.265   4.107  15.866  0.00  0.00    +0.000 C 
ENDROOT
BRANCH   2   3
ATOM      3  C   UNL     1       5.065   4.664  16.632  0.00  0.00    +0.000 A 
ATOM      4  C   UNL     1       4.022   3.798  17.005  0.00  0.00    +0.000 A 
ATOM      5  C   UNL     1       2.888   4.285  17.667  0.00  0.00    +0.000 A 
ATOM      6  C   UNL     1       2.787   5.639  17.973  0.00  0.00    +0.000 A 
ATOM      7  C   UNL     1       3.826   6.503  17.642  0.00  0.00    +0.000 A 
ATOM      8  C   UNL     1       4.963   6.018  16.992  0.00  0.00    +0.000 A 
ENDBRANCH   2   3
BRANCH   2   9
ATOM      9  N   UNL     1       7.510   4.749  16.340  0.00  0.00    +0.000 NA
ATOM     10  H   UNL     1       7.322   5.747  16.489  0.00  0.00    +0.000 HD
BRANCH   9  11
ATOM     11  N   UNL     1       8.021   4.139  17.554  0.00  0.00    +0.000 NA
ATOM     12  H   UNL     1       8.567   4.813  18.097  0.00  0.00    +0.000 HD
ATOM     13  H   UNL     1       8.634   3.339  17.379  0.00  0.00    +0.000 HD
ENDBRANCH   9  11
ENDBRANCH   2   9
TORSDOF 3
ENDMDL
MODEL 2
REMARK VINA RESULT:      -5.3      0.223      1.535
REMARK  Name = 
REMARK  4 active torsions:
REMARK  status: ('A' for Active; 'I' for Inactive)
REMARK    1  A    between atoms: C_1  and  C_2
REMARK    2  A    between atoms: C_2  and  N_3
REMARK    3  A    between atoms: C_2  and  C_5
REMARK    4  A    between atoms: N_3  and  N_4
REMARK                            x       y       z     vdW  Elec       q    Type
REMARK                         _______ _______ _______ _____ _____    ______ ____
ROOT
ATOM      1  C   UNL     1       6.075   4.203  14.322  0.00  0.00    +0.000 C 
ATOM      2  C   UNL     1       6.233   4.121  15.849  0.00  0.00    +0.000 C 
ENDROOT
BRANCH   2   3
ATOM      3  C   UNL     1       5.057   4.756  16.591  0.00  0.00    +0.000 A 
ATOM      4  C   UNL     1       5.055   6.143  16.822  0.00  0.00    +0.000 A 
ATOM      5  C   UNL     1       4.016   6.748  17.538  0.00  0.00    +0.000 A 
ATOM      6  C   UNL     1       2.963   5.979  18.024  0.00  0.00    +0.000 A 
ATOM      7  C   UNL     1       2.932   4.610  17.774  0.00  0.00    +0.000 A 
ATOM      8  C   UNL     1       3.961   4.006  17.050  0.00  0.00    +0.000 A 
ENDBRANCH   2   3
BRANCH   2   9
ATOM      9  N   UNL     1       7.503   4.733  16.295  0.00  0.00    +0.000 NA
ATOM     10  H   UNL     1       7.350   5.741  16.415  0.00  0.00    +0.000 HD
BRANCH   9  11
ATOM     11  N   UNL     1       8.003   4.143  17.522  0.00  0.00    +0.000 NA
ATOM     12  H   UNL     1       7.807   3.139  17.549  0.00  0.00    +0.000 HD
ATOM     13  H   UNL     1       7.585   4.545  18.365  0.00  0.00    +0.000 HD
ENDBRANCH   9  11
ENDBRANCH   2   9
TORSDOF 3
ENDMDL
MODEL 3
REMARK VINA RESULT:      -5.2      1.210      2.162
REMARK  Name = 
REMARK  4 active torsions:
REMARK  status: ('A' for Active; 'I' for Inactive)
REMARK    1  A    between atoms: C_1  and  C_2
REMARK    2  A    between atoms: C_2  and  N_3
REMARK    3  A    between atoms: C_2  and  C_5
REMARK    4  A    between atoms: N_3  and  N_4
REMARK                            x       y       z     vdW  Elec       q    Type
REMARK                         _______ _______ _______ _____ _____    ______ ____
ROOT
ATOM      1  C   UNL     1       5.978   3.952  13.749  0.00  0.00    +0.000 C 
ATOM      2  C   UNL     1       6.518   4.361  15.130  0.00  0.00    +0.000 C 
ENDROOT
BRANCH   2   3
ATOM      3  C   UNL     1       5.418   4.886  16.053  0.00  0.00    +0.000 A 
ATOM      4  C   UNL     1       5.319   6.268  16.292  0.00  0.00    +0.000 A 
ATOM      5  C   UNL     1       4.353   6.776  17.168  0.00  0.00    +0.000 A 
ATOM      6  C   UNL     1       3.468   5.912  17.808  0.00  0.00    +0.000 A 
ATOM      7  C   UNL     1       3.531   4.545  17.555  0.00  0.00    +0.000 A 
ATOM      8  C   UNL     1       4.486   4.038  16.673  0.00  0.00    +0.000 A 
ENDBRANCH   2   3
BRANCH   2   9
ATOM      9  N   UNL     1       7.601   5.362  15.012  0.00  0.00    +0.000 NA
ATOM     10  H   UNL     1       8.388   5.055  15.594  0.00  0.00    +0.000 HD
BRANCH   9  11
ATOM     11  N   UNL     1       8.027   5.559  13.640  0.00  0.00    +0.000 NA
ATOM     12  H   UNL     1       7.252   5.397  12.991  0.00  0.00    +0.000 HD
ATOM     13  H   UNL     1       8.783   4.929  13.355  0.00  0.00    +0.000 HD
ENDBRANCH   9  11
ENDBRANCH   2   9
TORSDOF 3
ENDMDL
MODEL 4
REMARK VINA RESULT:      -5.2      2.261      3.433
REMARK  Name = 
REMARK  4 active torsions:
REMARK  status: ('A' for Active; 'I' for Inactive)
REMARK    1  A    between atoms: C_1  and  C_2
REMARK    2  A    between atoms: C_2  and  N_3
REMARK    3  A    between atoms: C_2  and  C_5
REMARK    4  A    between atoms: N_3  and  N_4
REMARK                            x       y       z     vdW  Elec       q    Type
REMARK                         _______ _______ _______ _____ _____    ______ ____
ROOT
ATOM      1  C   UNL     1       4.495   4.935  16.984  0.00  0.00    +0.000 C 
ATOM      2  C   UNL     1       4.458   3.721  17.927  0.00  0.00    +0.000 C 
ENDROOT
BRANCH   2   3
ATOM      3  C   UNL     1       3.169   3.657  18.746  0.00  0.00    +0.000 A 
ATOM      4  C   UNL     1       3.074   4.393  19.941  0.00  0.00    +0.000 A 
ATOM      5  C   UNL     1       1.924   4.319  20.737  0.00  0.00    +0.000 A 
ATOM      6  C   UNL     1       0.854   3.520  20.345  0.00  0.00    +0.000 A 
ATOM      7  C   UNL     1       0.919   2.813  19.148  0.00  0.00    +0.000 A 
ATOM      8  C   UNL     1       2.060   2.894  18.347  0.00  0.00    +0.000 A 
ENDBRANCH   2   3
BRANCH   2   9
ATOM      9  N   UNL     1       5.632   3.702  18.828  0.00  0.00    +0.000 NA
ATOM     10  H   UNL     1       5.783   2.736  19.140  0.00  0.00    +0.000 HD
BRANCH   9  11
ATOM     11  N   UNL     1       6.827   4.226  18.194  0.00  0.00    +0.000 NA
ATOM     12  H   UNL     1       7.658   4.013  18.753  0.00  0.00    +0.000 HD
ATOM     13  H   UNL     1       6.809   5.242  18.072  0.00  0.00    +0.000 HD
ENDBRANCH   9  11
ENDBRANCH   2   9
TORSDOF 3
ENDMDL
MODEL 5
REMARK VINA RESULT:      -5.2      2.288      3.162
REMARK  Name = 
REMARK  4 active torsions:
REMARK  status: ('A' for Active; 'I' for Inactive)
REMARK    1  A    between atoms: C_1  and  C_2
REMARK    2  A    between atoms: C_2  and  N_3
REMARK    3  A    between atoms: C_2  and  C_5
REMARK    4  A    between atoms: N_3  and  N_4
REMARK                            x       y       z     vdW  Elec       q    Type
REMARK                         _______ _______ _______ _____ _____    ______ ____
ROOT
ATOM      1  C   UNL     1       4.446   4.254  16.805  0.00  0.00    +0.000 C 
ATOM      2  C   UNL     1       4.452   3.385  18.073  0.00  0.00    +0.000 C 
ENDROOT
BRANCH   2   3
ATOM      3  C   UNL     1       3.190   3.575  18.915  0.00  0.00    +0.000 A 
ATOM      4  C   UNL     1       2.067   2.766  18.668  0.00  0.00    +0.000 A 
ATOM      5  C   UNL     1       0.882   2.946  19.390  0.00  0.00    +0.000 A 
ATOM      6  C   UNL     1       0.806   3.928  20.374  0.00  0.00    +0.000 A 
ATOM      7  C   UNL     1       1.920   4.713  20.655  0.00  0.00    +0.000 A 
ATOM      8  C   UNL     1       3.107   4.528  19.943  0.00  0.00    +0.000 A 
ENDBRANCH   2   3
BRANCH   2   9
ATOM      9  N   UNL     1       5.654   3.640  18.897  0.00  0.00    +0.000 NA
ATOM     10  H   UNL     1       5.964   2.747  19.298  0.00  0.00    +0.000 HD
BRANCH   9  11
ATOM     11  N   UNL     1       6.725   4.259  18.140  0.00  0.00    +0.000 NA
ATOM     12  H   UNL     1       7.530   3.631  18.068  0.00  0.00    +0.000 HD
ATOM     13  H   UNL     1       7.068   5.128  18.558  0.00  0.00    +0.000 HD
ENDBRANCH   9  11
ENDBRANCH   2   9
TORSDOF 3
ENDMDL
MODEL 6
REMARK VINA RESULT:      -5.2      2.158      3.241
REMARK  Name = 
REMARK  4 active torsions:
REMARK  status: ('A' for Active; 'I' for Inactive)
REMARK    1  A    between atoms: C_1  and  C_2
REMARK    2  A    between atoms: C_2  and  N_3
REMARK    3  A    between atoms: C_2  and  C_5
REMARK    4  A    between atoms: N_3  and  N_4
REMARK                            x       y       z     vdW  Elec       q    Type
REMARK                         _______ _______ _______ _____ _____    ______ ____
ROOT
ATOM      1  C   UNL     1       3.320   2.181  17.889  0.00  0.00    +0.000 C 
ATOM      2  C   UNL     1       4.050   3.331  18.602  0.00  0.00    +0.000 C 
ENDROOT
BRANCH   2   3
ATOM      3  C   UNL     1       4.400   4.476  17.652  0.00  0.00    +0.000 A 
ATOM      4  C   UNL     1       5.091   4.197  16.459  0.00  0.00    +0.000 A 
ATOM      5  C   UNL     1       5.467   5.229  15.591  0.00  0.00    +0.000 A 
ATOM      6  C   UNL     1       5.150   6.549  15.898  0.00  0.00    +0.000 A 
ATOM      7  C   UNL     1       4.436   6.838  17.057  0.00  0.00    +0.000 A 
ATOM      8  C   UNL     1       4.050   5.810  17.918  0.00  0.00    +0.000 A 
ENDBRANCH   2   3
BRANCH   2   9
ATOM      9  N   UNL     1       5.269   2.853  19.290  0.00  0.00    +0.000 NA
ATOM     10  H   UNL     1       5.707   3.652  19.762  0.00  0.00    +0.000 HD
BRANCH   9  11
ATOM     11  N   UNL     1       4.991   1.789  20.237  0.00  0.00    +0.000 NA
ATOM     12  H   UNL     1       5.325   2.039  21.172  0.00  0.00    +0.000 HD
ATOM     13  H   UNL     1       5.440   0.902  19.993  0.00  0.00    +0.000 HD
ENDBRANCH   9  11
ENDBRANCH   2   9
TORSDOF 3
ENDMDL
MODEL 7
REMARK VINA RESULT:      -5.2      1.092      1.442
REMARK  Name = 
REMARK  4 active torsions:
REMARK  status: ('A' for Active; 'I' for Inactive)
REMARK    1  A    between atoms: C_1  and  C_2
REMARK    2  A    between atoms: C_2  and  N_3
REMARK    3  A    between atoms: C_2  and  C_5
REMARK    4  A    between atoms: N_3  and  N_4
REMARK                            x       y       z     vdW  Elec       q    Type
REMARK                         _______ _______ _______ _____ _____    ______ ____
ROOT
ATOM      1  C   UNL     1       5.736   4.029  13.880  0.00  0.00    +0.000 C 
ATOM      2  C   UNL     1       6.322   4.343  15.266  0.00  0.00    +0.000 C 
ENDROOT
BRANCH   2   3
ATOM      3  C   UNL     1       5.290   4.962  16.209  0.00  0.00    +0.000 A 
ATOM      4  C   UNL     1       4.357   4.130  16.853  0.00  0.00    +0.000 A 
ATOM      5  C   UNL     1       3.370   4.671  17.686  0.00  0.00    +0.000 A 
ATOM      6  C   UNL     1       3.309   6.046  17.892  0.00  0.00    +0.000 A 
ATOM      7  C   UNL     1       4.246   6.880  17.289  0.00  0.00    +0.000 A 
ATOM      8  C   UNL     1       5.238   6.341  16.468  0.00  0.00    +0.000 A 
ENDBRANCH   2   3
BRANCH   2   9
ATOM      9  N   UNL     1       7.507   5.223  15.165  0.00  0.00    +0.000 NA
ATOM     10  H   UNL     1       8.288   4.768  15.651  0.00  0.00    +0.000 HD
BRANCH   9  11
ATOM     11  N   UNL     1       7.863   5.518  13.790  0.00  0.00    +0.000 NA
ATOM     12  H   UNL     1       7.503   6.434  13.510  0.00  0.00    +0.000 HD
ATOM     13  H   UNL     1       7.489   4.840  13.120  0.00  0.00    +0.000 HD
ENDBRANCH   9  11
ENDBRANCH   2   9
TORSDOF 3
ENDMDL
MODEL 8
REMARK VINA RESULT:      -5.2      1.487      2.463
REMARK  Name = 
REMARK  4 active torsions:
REMARK  status: ('A' for Active; 'I' for Inactive)
REMARK    1  A    between atoms: C_1  and  C_2
REMARK    2  A    between atoms: C_2  and  N_3
REMARK    3  A    between atoms: C_2  and  C_5
REMARK    4  A    between atoms: N_3  and  N_4
REMARK                            x       y       z     vdW  Elec       q    Type
REMARK                         _______ _______ _______ _____ _____    ______ ____
ROOT
ATOM      1  C   UNL     1       5.331   6.165  17.422  0.00  0.00    +0.000 C 
ATOM      2  C   UNL     1       5.333   4.628  17.438  0.00  0.00    +0.000 C 
ENDROOT
BRANCH   2   3
ATOM      3  C   UNL     1       3.954   4.046  17.748  0.00  0.00    +0.000 A 
ATOM      4  C   UNL     1       3.831   2.673  18.025  0.00  0.00    +0.000 A 
ATOM      5  C   UNL     1       2.576   2.101  18.268  0.00  0.00    +0.000 A 
ATOM      6  C   UNL     1       1.432   2.894  18.247  0.00  0.00    +0.000 A 
ATOM      7  C   UNL     1       1.541   4.261  18.008  0.00  0.00    +0.000 A 
ATOM      8  C   UNL     1       2.792   4.835  17.778  0.00  0.00    +0.000 A 
ENDBRANCH   2   3
BRANCH   2   9
ATOM      9  N   UNL     1       6.332   4.099  18.392  0.00  0.00    +0.000 NA
ATOM     10  H   UNL     1       6.144   3.100  18.534  0.00  0.00    +0.000 HD
BRANCH   9  11
ATOM     11  N   UNL     1       7.695   4.302  17.939  0.00  0.00    +0.000 NA
ATOM     12  H   UNL     1       8.189   3.409  17.859  0.00  0.00    +0.000 HD
ATOM     13  H   UNL     1       8.249   4.887  18.569  0.00  0.00    +0.000 HD
ENDBRANCH   9  11
ENDBRANCH   2   9
TORSDOF 3
ENDMDL
MODEL 9
REMARK VINA RESULT:      -5.1      2.316      3.229
REMARK  Name = 
REMARK  4 active torsions:
REMARK  status: ('A' for Active; 'I' for Inactive)
REMARK    1  A    between atoms: C_1  and  C_2
REMARK    2  A    between atoms: C_2  and  N_3
REMARK    3  A    between atoms: C_2  and  C_5
REMARK    4  A    between atoms: N_3  and  N_4
REMARK                            x       y       z     vdW  Elec       q    Type
REMARK                         _______ _______ _______ _____ _____    ______ ____
ROOT
ATOM      1  C   UNL     1       7.960   7.066  18.182  0.00  0.00    +0.000 C 
ATOM      2  C   UNL     1       7.696   5.630  18.664  0.00  0.00    +0.000 C 
ENDROOT
BRANCH   2   3
ATOM      3  C   UNL     1       6.570   4.951  17.883  0.00  0.00    +0.000 A 
ATOM      4  C   UNL     1       5.348   4.684  18.526  0.00  0.00    +0.000 A 
ATOM      5  C   UNL     1       4.315   4.022  17.852  0.00  0.00    +0.000 A 
ATOM      6  C   UNL     1       4.485   3.628  16.529  0.00  0.00    +0.000 A 
ATOM      7  C   UNL     1       5.675   3.916  15.868  0.00  0.00    +0.000 A 
ATOM      8  C   UNL     1       6.703   4.586  16.533  0.00  0.00    +0.000 A 
ENDBRANCH   2   3
BRANCH   2   9
ATOM      9  N   UNL     1       7.401   5.593  20.113  0.00  0.00    +0.000 NA
ATOM     10  H   UNL     1       6.605   4.962  20.263  0.00  0.00    +0.000 HD
BRANCH   9  11
ATOM     11  N   UNL     1       8.543   5.170  20.901  0.00  0.00    +0.000 NA
ATOM     12  H   UNL     1       9.380   5.700  20.642  0.00  0.00    +0.000 HD
ATOM     13  H   UNL     1       8.775   4.181  20.780  0.00  0.00    +0.000 HD
ENDBRANCH   9  11
ENDBRANCH   2   9
TORSDOF 3
ENDMDL
