MODEL 1
REMARK VINA RESULT:      -7.7      0.000      0.000
REMARK  Name = 
REMARK  1 active torsions:
REMARK  status: ('A' for Active; 'I' for Inactive)
REMARK    1  A    between atoms: C_2  and  C_3
REMARK                            x       y       z     vdW  Elec       q    Type
REMARK                         _______ _______ _______ _____ _____    ______ ____
ROOT
ATOM      1  C   UNL     1       4.236   5.128  17.101  0.00  0.00    +0.000 A 
ATOM      2  C   UNL     1       4.027   3.862  16.545  0.00  0.00    +0.000 A 
ATOM      3  C   UNL     1       3.063   3.005  17.091  0.00  0.00    +0.000 A 
ATOM      4  C   UNL     1       2.323   3.383  18.226  0.00  0.00    +0.000 A 
ATOM      5  C   UNL     1       1.401   2.530  18.854  0.00  0.00    +0.000 A 
ATOM      6  C   UNL     1       0.732   2.931  20.016  0.00  0.00    +0.000 A 
ATOM      7  C   UNL     1       0.970   4.189  20.565  0.00  0.00    +0.000 A 
ATOM      8  C   UNL     1       1.850   5.061  19.932  0.00  0.00    +0.000 A 
ATOM      9  C   UNL     1       2.521   4.671  18.766  0.00  0.00    +0.000 A 
ATOM     10  C   UNL     1       3.407   5.549  18.141  0.00  0.00    +0.000 A 
ENDROOT
BRANCH   1  12
ATOM     11  O   UNL     1       4.956   6.767  15.619  0.00  0.00    +0.000 OA
ATOM     12  C   UNL     1       5.290   6.022  16.543  0.00  0.00    +0.000 C 
ATOM     13  N   UNL     1       6.592   6.004  17.063  0.00  0.00    +0.000 N 
ATOM     14  C   UNL     1       7.159   5.080  18.049  0.00  0.00    +0.000 C 
ATOM     15  C   UNL     1       7.494   5.845  19.333  0.00  0.00    +0.000 C 
ATOM     16  C   UNL     1       8.439   7.009  19.035  0.00  0.00    +0.000 C 
ATOM     17  C   UNL     1       7.914   7.887  17.892  0.00  0.00    +0.000 C 
ATOM     18  C   UNL     1       7.522   7.057  16.666  0.00  0.00    +0.000 C 
ENDBRANCH   1  12
TORSDOF 1
ENDMDL
MODEL 2
REMARK VINA RESULT:      -7.7      3.187      5.393
REMARK  Name = 
REMARK  1 active torsions:
REMARK  status: ('A' for Active; 'I' for Inactive)
REMARK    1  A    between atoms: C_2  and  C_3
REMARK                            x       y       z     vdW  Elec       q    Type
REMARK                         _______ _______ _______ _____ _____    ______ ____
ROOT
ATOM      1  C   UNL     1       2.836   7.070  18.427  0.00  0.00    +0.000 A 
ATOM      2  C   UNL     1       2.581   8.139  17.561  0.00  0.00    +0.000 A 
ATOM      3  C   UNL     1       1.800   9.219  17.990  0.00  0.00    +0.000 A 
ATOM      4  C   UNL     1       1.227   9.228  19.275  0.00  0.00    +0.000 A 
ATOM      5  C   UNL     1       0.376  10.251  19.723  0.00  0.00    +0.000 A 
ATOM      6  C   UNL     1      -0.215  10.188  20.989  0.00  0.00    +0.000 A 
ATOM      7  C   UNL     1       0.036   9.105  21.828  0.00  0.00    +0.000 A 
ATOM      8  C   UNL     1       0.909   8.103  21.416  0.00  0.00    +0.000 A 
ATOM      9  C   UNL     1       1.510   8.160  20.152  0.00  0.00    +0.000 A 
ATOM     10  C   UNL     1       2.379   7.149  19.743  0.00  0.00    +0.000 A 
ENDROOT
BRANCH   1  12
ATOM     11  O   UNL     1       4.848   6.079  17.816  0.00  0.00    +0.000 OA
ATOM     12  C   UNL     1       3.635   5.903  17.955  0.00  0.00    +0.000 C 
ATOM     13  N   UNL     1       3.017   4.673  17.693  0.00  0.00    +0.000 N 
ATOM     14  C   UNL     1       1.584   4.366  17.676  0.00  0.00    +0.000 C 
ATOM     15  C   UNL     1       1.254   3.403  18.821  0.00  0.00    +0.000 C 
ATOM     16  C   UNL     1       2.108   2.138  18.723  0.00  0.00    +0.000 C 
ATOM     17  C   UNL     1       3.599   2.470  18.582  0.00  0.00    +0.000 C 
ATOM     18  C   UNL     1       3.855   3.497  17.476  0.00  0.00    +0.000 C 
ENDBRANCH   1  12
TORSDOF 1
ENDMDL
MODEL 3
REMARK VINA RESULT:      -7.6      3.522      5.800
REMARK  Name = 
REMARK  1 active torsions:
REMARK  status: ('A' for Active; 'I' for Inactive)
REMARK    1  A    between atoms: C_2  and  C_3
REMARK                            x       y       z     vdW  Elec       q    Type
REMARK                         _______ _______ _______ _____ _____    ______ ____
ROOT
ATOM      1  C   UNL     1       2.893   6.816  19.112  0.00  0.00    +0.000 A 
ATOM      2  C   UNL     1       2.972   7.499  17.893  0.00  0.00    +0.000 A 
ATOM      3  C   UNL     1       2.259   8.690  17.707  0.00  0.00    +0.000 A 
ATOM      4  C   UNL     1       1.424   9.194  18.721  0.00  0.00    +0.000 A 
ATOM      5  C   UNL     1       0.632  10.342  18.556  0.00  0.00    +0.000 A 
ATOM      6  C   UNL     1      -0.227  10.772  19.574  0.00  0.00    +0.000 A 
ATOM      7  C   UNL     1      -0.305  10.067  20.771  0.00  0.00    +0.000 A 
ATOM      8  C   UNL     1       0.503   8.951  20.968  0.00  0.00    +0.000 A 
ATOM      9  C   UNL     1       1.369   8.515  19.956  0.00  0.00    +0.000 A 
ATOM     10  C   UNL     1       2.172   7.392  20.158  0.00  0.00    +0.000 A 
ENDROOT
BRANCH   1  12
ATOM     11  O   UNL     1       4.851   5.590  19.365  0.00  0.00    +0.000 OA
ATOM     12  C   UNL     1       3.622   5.528  19.292  0.00  0.00    +0.000 C 
ATOM     13  N   UNL     1       2.922   4.317  19.379  0.00  0.00    +0.000 N 
ATOM     14  C   UNL     1       1.490   4.083  19.166  0.00  0.00    +0.000 C 
ATOM     15  C   UNL     1       0.841   3.652  20.485  0.00  0.00    +0.000 C 
ATOM     16  C   UNL     1       1.543   2.417  21.051  0.00  0.00    +0.000 C 
ATOM     17  C   UNL     1       3.062   2.612  21.125  0.00  0.00    +0.000 C 
ATOM     18  C   UNL     1       3.640   3.118  19.802  0.00  0.00    +0.000 C 
ENDBRANCH   1  12
TORSDOF 1
ENDMDL
MODEL 4
REMARK VINA RESULT:      -7.3      1.961      6.009
REMARK  Name = 
REMARK  1 active torsions:
REMARK  status: ('A' for Active; 'I' for Inactive)
REMARK    1  A    between atoms: C_2  and  C_3
REMARK                            x       y       z     vdW  Elec       q    Type
REMARK                         _______ _______ _______ _____ _____    ______ ____
ROOT
ATOM      1  C   UNL     1       4.586   4.229  17.694  0.00  0.00    +0.000 A 
ATOM      2  C   UNL     1       4.355   5.048  16.584  0.00  0.00    +0.000 A 
ATOM      3  C   UNL     1       5.208   6.126  16.316  0.00  0.00    +0.000 A 
ATOM      4  C   UNL     1       6.281   6.426  17.176  0.00  0.00    +0.000 A 
ATOM      5  C   UNL     1       7.117   7.539  16.991  0.00  0.00    +0.000 A 
ATOM      6  C   UNL     1       8.135   7.828  17.906  0.00  0.00    +0.000 A 
ATOM      7  C   UNL     1       8.336   7.011  19.016  0.00  0.00    +0.000 A 
ATOM      8  C   UNL     1       7.542   5.881  19.192  0.00  0.00    +0.000 A 
ATOM      9  C   UNL     1       6.523   5.580  18.278  0.00  0.00    +0.000 A 
ATOM     10  C   UNL     1       5.728   4.450  18.464  0.00  0.00    +0.000 A 
ENDROOT
BRANCH   1  12
ATOM     11  O   UNL     1       3.930   2.006  17.518  0.00  0.00    +0.000 OA
ATOM     12  C   UNL     1       3.652   3.107  17.998  0.00  0.00    +0.000 C 
ATOM     13  N   UNL     1       2.522   3.316  18.800  0.00  0.00    +0.000 N 
ATOM     14  C   UNL     1       1.997   4.586  19.311  0.00  0.00    +0.000 C 
ATOM     15  C   UNL     1       2.120   4.613  20.837  0.00  0.00    +0.000 C 
ATOM     16  C   UNL     1       1.406   3.412  21.456  0.00  0.00    +0.000 C 
ATOM     17  C   UNL     1       1.846   2.093  20.807  0.00  0.00    +0.000 C 
ATOM     18  C   UNL     1       1.776   2.156  19.279  0.00  0.00    +0.000 C 
ENDBRANCH   1  12
TORSDOF 1
ENDMDL
MODEL 5
REMARK VINA RESULT:      -7.2      3.483      5.726
REMARK  Name = 
REMARK  1 active torsions:
REMARK  status: ('A' for Active; 'I' for Inactive)
REMARK    1  A    between atoms: C_2  and  C_3
REMARK                            x       y       z     vdW  Elec       q    Type
REMARK                         _______ _______ _______ _____ _____    ______ ____
ROOT
ATOM      1  C   UNL     1       2.628   6.975  18.798  0.00  0.00    +0.000 A 
ATOM      2  C   UNL     1       2.226   6.734  20.115  0.00  0.00    +0.000 A 
ATOM      3  C   UNL     1       1.462   7.685  20.803  0.00  0.00    +0.000 A 
ATOM      4  C   UNL     1       1.123   8.910  20.199  0.00  0.00    +0.000 A 
ATOM      5  C   UNL     1       0.425   9.925  20.872  0.00  0.00    +0.000 A 
ATOM      6  C   UNL     1       0.161  11.148  20.247  0.00  0.00    +0.000 A 
ATOM      7  C   UNL     1       0.588  11.376  18.941  0.00  0.00    +0.000 A 
ATOM      8  C   UNL     1       1.246  10.366  18.246  0.00  0.00    +0.000 A 
ATOM      9  C   UNL     1       1.509   9.136  18.861  0.00  0.00    +0.000 A 
ATOM     10  C   UNL     1       2.175   8.130  18.160  0.00  0.00    +0.000 A 
ENDROOT
BRANCH   1  12
ATOM     11  O   UNL     1       4.662   6.269  17.923  0.00  0.00    +0.000 OA
ATOM     12  C   UNL     1       3.474   5.978  18.082  0.00  0.00    +0.000 C 
ATOM     13  N   UNL     1       2.926   4.772  17.626  0.00  0.00    +0.000 N 
ATOM     14  C   UNL     1       1.518   4.364  17.618  0.00  0.00    +0.000 C 
ATOM     15  C   UNL     1       1.321   3.187  18.578  0.00  0.00    +0.000 C 
ATOM     16  C   UNL     1       2.251   2.031  18.210  0.00  0.00    +0.000 C 
ATOM     17  C   UNL     1       3.706   2.496  18.066  0.00  0.00    +0.000 C 
ATOM     18  C   UNL     1       3.828   3.722  17.158  0.00  0.00    +0.000 C 
ENDBRANCH   1  12
TORSDOF 1
ENDMDL
MODEL 6
REMARK VINA RESULT:      -7.2      3.170      5.128
REMARK  Name = 
REMARK  1 active torsions:
REMARK  status: ('A' for Active; 'I' for Inactive)
REMARK    1  A    between atoms: C_2  and  C_3
REMARK                            x       y       z     vdW  Elec       q    Type
REMARK                         _______ _______ _______ _____ _____    ______ ____
ROOT
ATOM      1  C   UNL     1       2.568   7.064  17.997  0.00  0.00    +0.000 A 
ATOM      2  C   UNL     1       3.899   6.847  17.628  0.00  0.00    +0.000 A 
ATOM      3  C   UNL     1       4.377   5.542  17.456  0.00  0.00    +0.000 A 
ATOM      4  C   UNL     1       3.543   4.433  17.691  0.00  0.00    +0.000 A 
ATOM      5  C   UNL     1       3.997   3.107  17.606  0.00  0.00    +0.000 A 
ATOM      6  C   UNL     1       3.144   2.038  17.904  0.00  0.00    +0.000 A 
ATOM      7  C   UNL     1       1.827   2.277  18.289  0.00  0.00    +0.000 A 
ATOM      8  C   UNL     1       1.350   3.583  18.339  0.00  0.00    +0.000 A 
ATOM      9  C   UNL     1       2.195   4.659  18.037  0.00  0.00    +0.000 A 
ATOM     10  C   UNL     1       1.712   5.967  18.095  0.00  0.00    +0.000 A 
ENDROOT
BRANCH   1  12
ATOM     11  O   UNL     1       2.029   9.191  17.231  0.00  0.00    +0.000 OA
ATOM     12  C   UNL     1       2.073   8.453  18.217  0.00  0.00    +0.000 C 
ATOM     13  N   UNL     1       1.676   8.876  19.493  0.00  0.00    +0.000 N 
ATOM     14  C   UNL     1       1.810   8.160  20.766  0.00  0.00    +0.000 C 
ATOM     15  C   UNL     1       0.419   7.810  21.303  0.00  0.00    +0.000 C 
ATOM     16  C   UNL     1      -0.436   9.069  21.446  0.00  0.00    +0.000 C 
ATOM     17  C   UNL     1      -0.445   9.897  20.155  0.00  0.00    +0.000 C 
ATOM     18  C   UNL     1       0.969  10.147  19.624  0.00  0.00    +0.000 C 
ENDBRANCH   1  12
TORSDOF 1
ENDMDL
MODEL 7
REMARK VINA RESULT:      -7.1      3.270      4.705
REMARK  Name = 
REMARK  1 active torsions:
REMARK  status: ('A' for Active; 'I' for Inactive)
REMARK    1  A    between atoms: C_2  and  C_3
REMARK                            x       y       z     vdW  Elec       q    Type
REMARK                         _______ _______ _______ _____ _____    ______ ____
ROOT
ATOM      1  C   UNL     1       2.420   6.746  18.431  0.00  0.00    +0.000 A 
ATOM      2  C   UNL     1       2.283   7.799  17.521  0.00  0.00    +0.000 A 
ATOM      3  C   UNL     1       1.811   9.045  17.954  0.00  0.00    +0.000 A 
ATOM      4  C   UNL     1       1.431   9.245  19.294  0.00  0.00    +0.000 A 
ATOM      5  C   UNL     1       0.883  10.451  19.758  0.00  0.00    +0.000 A 
ATOM      6  C   UNL     1       0.466  10.583  21.088  0.00  0.00    +0.000 A 
ATOM      7  C   UNL     1       0.593   9.515  21.973  0.00  0.00    +0.000 A 
ATOM      8  C   UNL     1       1.172   8.327  21.539  0.00  0.00    +0.000 A 
ATOM      9  C   UNL     1       1.597   8.187  20.211  0.00  0.00    +0.000 A 
ATOM     10  C   UNL     1       2.170   6.990  19.782  0.00  0.00    +0.000 A 
ENDROOT
BRANCH   1  12
ATOM     11  O   UNL     1       2.019   4.547  17.795  0.00  0.00    +0.000 OA
ATOM     12  C   UNL     1       2.884   5.410  17.960  0.00  0.00    +0.000 C 
ATOM     13  N   UNL     1       4.243   5.170  17.717  0.00  0.00    +0.000 N 
ATOM     14  C   UNL     1       5.382   6.047  18.006  0.00  0.00    +0.000 C 
ATOM     15  C   UNL     1       6.027   6.495  16.691  0.00  0.00    +0.000 C 
ATOM     16  C   UNL     1       6.439   5.285  15.853  0.00  0.00    +0.000 C 
ATOM     17  C   UNL     1       5.283   4.291  15.686  0.00  0.00    +0.000 C 
ATOM     18  C   UNL     1       4.628   3.943  17.025  0.00  0.00    +0.000 C 
ENDBRANCH   1  12
TORSDOF 1
ENDMDL
MODEL 8
REMARK VINA RESULT:      -7.1      2.287      5.929
REMARK  Name = 
REMARK  1 active torsions:
REMARK  status: ('A' for Active; 'I' for Inactive)
REMARK    1  A    between atoms: C_2  and  C_3
REMARK                            x       y       z     vdW  Elec       q    Type
REMARK                         _______ _______ _______ _____ _____    ______ ____
ROOT
ATOM      1  C   UNL     1       4.632   5.540  18.232  0.00  0.00    +0.000 A 
ATOM      2  C   UNL     1       5.961   5.890  18.494  0.00  0.00    +0.000 A 
ATOM      3  C   UNL     1       6.932   5.763  17.493  0.00  0.00    +0.000 A 
ATOM      4  C   UNL     1       6.598   5.246  16.228  0.00  0.00    +0.000 A 
ATOM      5  C   UNL     1       7.549   5.030  15.218  0.00  0.00    +0.000 A 
ATOM      6  C   UNL     1       7.177   4.460  13.995  0.00  0.00    +0.000 A 
ATOM      7  C   UNL     1       5.852   4.100  13.762  0.00  0.00    +0.000 A 
ATOM      8  C   UNL     1       4.890   4.345  14.736  0.00  0.00    +0.000 A 
ATOM      9  C   UNL     1       5.252   4.920  15.962  0.00  0.00    +0.000 A 
ATOM     10  C   UNL     1       4.283   5.157  16.937  0.00  0.00    +0.000 A 
ENDROOT
BRANCH   1  12
ATOM     11  O   UNL     1       3.178   6.764  19.569  0.00  0.00    +0.000 OA
ATOM     12  C   UNL     1       3.609   5.638  19.312  0.00  0.00    +0.000 C 
ATOM     13  N   UNL     1       3.168   4.491  19.985  0.00  0.00    +0.000 N 
ATOM     14  C   UNL     1       3.692   3.125  19.884  0.00  0.00    +0.000 C 
ATOM     15  C   UNL     1       2.631   2.216  19.258  0.00  0.00    +0.000 C 
ATOM     16  C   UNL     1       1.333   2.269  20.063  0.00  0.00    +0.000 C 
ATOM     17  C   UNL     1       0.871   3.713  20.301  0.00  0.00    +0.000 C 
ATOM     18  C   UNL     1       1.997   4.590  20.852  0.00  0.00    +0.000 C 
ENDBRANCH   1  12
TORSDOF 1
ENDMDL
MODEL 9
REMARK VINA RESULT:      -7.0      2.453      6.119
REMARK  Name = 
REMARK  1 active torsions:
REMARK  status: ('A' for Active; 'I' for Inactive)
REMARK    1  A    between atoms: C_2  and  C_3
REMARK                            x       y       z     vdW  Elec       q    Type
REMARK                         _______ _______ _______ _____ _____    ______ ____
ROOT
ATOM      1  C   UNL     1       5.076   5.017  17.683  0.00  0.00    +0.000 A 
ATOM      2  C   UNL     1       6.346   5.597  17.763  0.00  0.00    +0.000 A 
ATOM      3  C   UNL     1       7.168   5.648  16.630  0.00  0.00    +0.000 A 
ATOM      4  C   UNL     1       6.749   5.083  15.411  0.00  0.00    +0.000 A 
ATOM      5  C   UNL     1       7.566   5.042  14.270  0.00  0.00    +0.000 A 
ATOM      6  C   UNL     1       7.127   4.418  13.097  0.00  0.00    +0.000 A 
ATOM      7  C   UNL     1       5.867   3.828  13.046  0.00  0.00    +0.000 A 
ATOM      8  C   UNL     1       5.029   3.895  14.154  0.00  0.00    +0.000 A 
ATOM      9  C   UNL     1       5.458   4.523  15.331  0.00  0.00    +0.000 A 
ATOM     10  C   UNL     1       4.614   4.581  16.441  0.00  0.00    +0.000 A 
ENDROOT
BRANCH   1  12
ATOM     11  O   UNL     1       4.159   5.933  19.612  0.00  0.00    +0.000 OA
ATOM     12  C   UNL     1       4.220   4.928  18.900  0.00  0.00    +0.000 C 
ATOM     13  N   UNL     1       3.521   3.751  19.199  0.00  0.00    +0.000 N 
ATOM     14  C   UNL     1       3.614   2.450  18.529  0.00  0.00    +0.000 C 
ATOM     15  C   UNL     1       2.285   2.136  17.835  0.00  0.00    +0.000 C 
ATOM     16  C   UNL     1       1.131   2.180  18.836  0.00  0.00    +0.000 C 
ATOM     17  C   UNL     1       1.132   3.483  19.647  0.00  0.00    +0.000 C 
ATOM     18  C   UNL     1       2.507   3.781  20.249  0.00  0.00    +0.000 C 
ENDBRANCH   1  12
TORSDOF 1
ENDMDL
