MODEL 1
REMARK VINA RESULT:      -7.2      0.000      0.000
REMARK  Name = 
REMARK  3 active torsions:
REMARK  status: ('A' for Active; 'I' for Inactive)
REMARK    1  A    between atoms: C_1  and  C_2
REMARK    2  A    between atoms: C_4  and  C_5
REMARK    3  A    between atoms: C_15  and  C_16
REMARK                            x       y       z     vdW  Elec       q    Type
REMARK                         _______ _______ _______ _____ _____    ______ ____
ROOT
ATOM      1  C   UNL     1       3.050   6.657  18.255  0.00  0.00    +0.000 C 
ATOM      2  C   UNL     1       2.222   7.822  18.650  0.00  0.00    +0.000 A 
ATOM      3  C   UNL     1       1.752   8.865  17.834  0.00  0.00    +0.000 A 
ATOM      4  C   UNL     1       1.045   9.700  18.672  0.00  0.00    +0.000 A 
ATOM      5  C   UNL     1       0.357  10.975  18.352  0.00  0.00    +0.000 C 
ATOM      6  N   UNL     1       1.095   9.123  19.935  0.00  0.00    +0.000 N 
ATOM      7  C   UNL     1       0.494   9.582  21.155  0.00  0.00    +0.000 A 
ATOM      8  C   UNL     1       0.742   8.884  22.317  0.00  0.00    +0.000 A 
ATOM      9  C   UNL     1       0.161   9.399  23.443  0.00  0.00    +0.000 A 
ATOM     10  N   UNL     1      -0.614  10.497  23.442  0.00  0.00    +0.000 NA
ATOM     11  C   UNL     1      -0.830  11.121  22.275  0.00  0.00    +0.000 A 
ATOM     12  N   UNL     1      -1.606  12.255  22.256  0.00  0.00    +0.000 N 
ATOM     13  C   UNL     1      -2.238  12.739  23.471  0.00  0.00    +0.000 C 
ATOM     14  C   UNL     1      -3.743  12.486  23.393  0.00  0.00    +0.000 C 
ATOM     15  C   UNL     1      -4.355  13.120  22.134  0.00  0.00    +0.000 C 
ATOM     16  C   UNL     1      -3.596  12.634  20.884  0.00  0.00    +0.000 C 
ATOM     17  C   UNL     1      -2.079  12.819  21.000  0.00  0.00    +0.000 C 
ATOM     18  N   UNL     1      -0.290  10.685  21.127  0.00  0.00    +0.000 NA
ATOM     19  N   UNL     1       1.838   7.974  19.920  0.00  0.00    +0.000 NA
ENDROOT
BRANCH  15  20
ATOM     20  C   UNL     1      -4.403  14.653  22.210  0.00  0.00    +0.000 C 
ATOM     21  O   UNL     1      -3.476  15.346  21.779  0.00  0.00    +0.000 OA
ATOM     22  N   UNL     1      -5.528  15.241  22.747  0.00  0.00    +0.000 N 
ATOM     23  C   UNL     1      -6.743  14.607  23.224  0.00  0.00    +0.000 C 
ATOM     24  C   UNL     1      -7.823  15.609  22.860  0.00  0.00    +0.000 C 
ATOM     25  C   UNL     1      -7.137  16.953  23.079  0.00  0.00    +0.000 C 
ATOM     26  C   UNL     1      -5.668  16.688  22.761  0.00  0.00    +0.000 C 
ENDBRANCH  15  20
TORSDOF 1
ENDMDL
MODEL 2
REMARK VINA RESULT:      -7.0      1.478      1.564
REMARK  Name = 
REMARK  3 active torsions:
REMARK  status: ('A' for Active; 'I' for Inactive)
REMARK    1  A    between atoms: C_1  and  C_2
REMARK    2  A    between atoms: C_4  and  C_5
REMARK    3  A    between atoms: C_15  and  C_16
REMARK                            x       y       z     vdW  Elec       q    Type
REMARK                         _______ _______ _______ _____ _____    ______ ____
ROOT
ATOM      1  C   UNL     1       3.360   6.167  18.564  0.00  0.00    +0.000 C 
ATOM      2  C   UNL     1       2.546   7.385  18.788  0.00  0.00    +0.000 A 
ATOM      3  C   UNL     1       2.159   8.353  17.845  0.00  0.00    +0.000 A 
ATOM      4  C   UNL     1       1.428   9.284  18.551  0.00  0.00    +0.000 A 
ATOM      5  C   UNL     1       0.800  10.537  18.064  0.00  0.00    +0.000 C 
ATOM      6  N   UNL     1       1.381   8.835  19.865  0.00  0.00    +0.000 N 
ATOM      7  C   UNL     1       0.720   9.427  20.992  0.00  0.00    +0.000 A 
ATOM      8  C   UNL     1       0.874   8.842  22.230  0.00  0.00    +0.000 A 
ATOM      9  C   UNL     1       0.240   9.481  23.261  0.00  0.00    +0.000 A 
ATOM     10  N   UNL     1      -0.500  10.592  23.103  0.00  0.00    +0.000 NA
ATOM     11  C   UNL     1      -0.623  11.102  21.868  0.00  0.00    +0.000 A 
ATOM     12  N   UNL     1      -1.362  12.247  21.689  0.00  0.00    +0.000 N 
ATOM     13  C   UNL     1      -2.053  12.864  22.807  0.00  0.00    +0.000 C 
ATOM     14  C   UNL     1      -3.557  12.642  22.656  0.00  0.00    +0.000 C 
ATOM     15  C   UNL     1      -4.070  13.162  21.305  0.00  0.00    +0.000 C 
ATOM     16  C   UNL     1      -3.250  12.535  20.160  0.00  0.00    +0.000 C 
ATOM     17  C   UNL     1      -1.738  12.695  20.355  0.00  0.00    +0.000 C 
ATOM     18  N   UNL     1      -0.027  10.540  20.806  0.00  0.00    +0.000 NA
ATOM     19  N   UNL     1       2.088   7.672  20.010  0.00  0.00    +0.000 NA
ENDROOT
BRANCH  15  20
ATOM     20  C   UNL     1      -4.076  14.695  21.227  0.00  0.00    +0.000 C 
ATOM     21  O   UNL     1      -3.158  15.366  21.711  0.00  0.00    +0.000 OA
ATOM     22  N   UNL     1      -5.123  15.308  20.573  0.00  0.00    +0.000 N 
ATOM     23  C   UNL     1      -6.238  14.697  19.875  0.00  0.00    +0.000 C 
ATOM     24  C   UNL     1      -6.496  15.655  18.727  0.00  0.00    +0.000 C 
ATOM     25  C   UNL     1      -6.213  17.020  19.344  0.00  0.00    +0.000 C 
ATOM     26  C   UNL     1      -5.134  16.751  20.388  0.00  0.00    +0.000 C 
ENDBRANCH  15  20
TORSDOF 1
ENDMDL
MODEL 3
REMARK VINA RESULT:      -6.8      2.834      6.040
REMARK  Name = 
REMARK  3 active torsions:
REMARK  status: ('A' for Active; 'I' for Inactive)
REMARK    1  A    between atoms: C_1  and  C_2
REMARK    2  A    between atoms: C_4  and  C_5
REMARK    3  A    between atoms: C_15  and  C_16
REMARK                            x       y       z     vdW  Elec       q    Type
REMARK                         _______ _______ _______ _____ _____    ______ ____
ROOT
ATOM      1  C   UNL     1       4.834   1.435  20.063  0.00  0.00    +0.000 C 
ATOM      2  C   UNL     1       3.969   2.639  20.036  0.00  0.00    +0.000 A 
ATOM      3  C   UNL     1       2.801   2.881  20.779  0.00  0.00    +0.000 A 
ATOM      4  C   UNL     1       2.367   4.129  20.387  0.00  0.00    +0.000 A 
ATOM      5  C   UNL     1       1.161   4.874  20.825  0.00  0.00    +0.000 C 
ATOM      6  N   UNL     1       3.290   4.593  19.458  0.00  0.00    +0.000 N 
ATOM      7  C   UNL     1       3.311   5.851  18.767  0.00  0.00    +0.000 A 
ATOM      8  C   UNL     1       4.290   6.068  17.822  0.00  0.00    +0.000 A 
ATOM      9  C   UNL     1       4.228   7.276  17.183  0.00  0.00    +0.000 A 
ATOM     10  N   UNL     1       3.299   8.209  17.451  0.00  0.00    +0.000 NA
ATOM     11  C   UNL     1       2.383   7.942  18.394  0.00  0.00    +0.000 A 
ATOM     12  N   UNL     1       1.414   8.877  18.669  0.00  0.00    +0.000 N 
ATOM     13  C   UNL     1       1.416  10.164  17.996  0.00  0.00    +0.000 C 
ATOM     14  C   UNL     1       1.834  11.251  18.986  0.00  0.00    +0.000 C 
ATOM     15  C   UNL     1       0.936  11.254  20.232  0.00  0.00    +0.000 C 
ATOM     16  C   UNL     1       0.909   9.846  20.858  0.00  0.00    +0.000 C 
ATOM     17  C   UNL     1       0.563   8.750  19.844  0.00  0.00    +0.000 C 
ATOM     18  N   UNL     1       2.370   6.778  19.060  0.00  0.00    +0.000 NA
ATOM     19  N   UNL     1       4.266   3.662  19.231  0.00  0.00    +0.000 NA
ENDROOT
BRANCH  15  20
ATOM     20  C   UNL     1      -0.479  11.772  19.936  0.00  0.00    +0.000 C 
ATOM     21  O   UNL     1      -0.933  11.782  18.787  0.00  0.00    +0.000 OA
ATOM     22  N   UNL     1      -1.248  12.201  20.997  0.00  0.00    +0.000 N 
ATOM     23  C   UNL     1      -0.928  12.189  22.412  0.00  0.00    +0.000 C 
ATOM     24  C   UNL     1      -2.268  11.913  23.069  0.00  0.00    +0.000 C 
ATOM     25  C   UNL     1      -3.250  12.668  22.181  0.00  0.00    +0.000 C 
ATOM     26  C   UNL     1      -2.626  12.615  20.789  0.00  0.00    +0.000 C 
ENDBRANCH  15  20
TORSDOF 1
ENDMDL
MODEL 4
REMARK VINA RESULT:      -6.6      5.034     10.672
REMARK  Name = 
REMARK  3 active torsions:
REMARK  status: ('A' for Active; 'I' for Inactive)
REMARK    1  A    between atoms: C_1  and  C_2
REMARK    2  A    between atoms: C_4  and  C_5
REMARK    3  A    between atoms: C_15  and  C_16
REMARK                            x       y       z     vdW  Elec       q    Type
REMARK                         _______ _______ _______ _____ _____    ______ ____
ROOT
ATOM      1  C   UNL     1       0.517  14.958  21.149  0.00  0.00    +0.000 C 
ATOM      2  C   UNL     1       0.909  13.700  20.468  0.00  0.00    +0.000 A 
ATOM      3  C   UNL     1       1.462  13.547  19.186  0.00  0.00    +0.000 A 
ATOM      4  C   UNL     1       1.632  12.190  19.017  0.00  0.00    +0.000 A 
ATOM      5  C   UNL     1       2.151  11.456  17.836  0.00  0.00    +0.000 C 
ATOM      6  N   UNL     1       1.206  11.590  20.196  0.00  0.00    +0.000 N 
ATOM      7  C   UNL     1       1.201  10.197  20.543  0.00  0.00    +0.000 A 
ATOM      8  C   UNL     1       0.655   9.820  21.751  0.00  0.00    +0.000 A 
ATOM      9  C   UNL     1       0.658   8.475  21.999  0.00  0.00    +0.000 A 
ATOM     10  N   UNL     1       1.166   7.565  21.148  0.00  0.00    +0.000 NA
ATOM     11  C   UNL     1       1.697   8.000  19.996  0.00  0.00    +0.000 A 
ATOM     12  N   UNL     1       2.206   7.084  19.107  0.00  0.00    +0.000 N 
ATOM     13  C   UNL     1       2.227   5.669  19.433  0.00  0.00    +0.000 C 
ATOM     14  C   UNL     1       3.666   5.235  19.709  0.00  0.00    +0.000 C 
ATOM     15  C   UNL     1       4.590   5.567  18.528  0.00  0.00    +0.000 C 
ATOM     16  C   UNL     1       4.467   7.062  18.174  0.00  0.00    +0.000 C 
ATOM     17  C   UNL     1       3.015   7.509  17.973  0.00  0.00    +0.000 C 
ATOM     18  N   UNL     1       1.726   9.302  19.675  0.00  0.00    +0.000 NA
ATOM     19  N   UNL     1       0.743  12.525  21.081  0.00  0.00    +0.000 NA
ENDROOT
BRANCH  15  20
ATOM     20  C   UNL     1       4.331   4.671  17.308  0.00  0.00    +0.000 C 
ATOM     21  O   UNL     1       3.220   4.171  17.102  0.00  0.00    +0.000 OA
ATOM     22  N   UNL     1       5.368   4.462  16.424  0.00  0.00    +0.000 N 
ATOM     23  C   UNL     1       6.706   5.024  16.446  0.00  0.00    +0.000 C 
ATOM     24  C   UNL     1       7.036   5.191  14.975  0.00  0.00    +0.000 C 
ATOM     25  C   UNL     1       6.375   3.978  14.331  0.00  0.00    +0.000 C 
ATOM     26  C   UNL     1       5.155   3.699  15.204  0.00  0.00    +0.000 C 
ENDBRANCH  15  20
TORSDOF 1
ENDMDL
MODEL 5
REMARK VINA RESULT:      -6.6      3.989      5.947
REMARK  Name = 
REMARK  3 active torsions:
REMARK  status: ('A' for Active; 'I' for Inactive)
REMARK    1  A    between atoms: C_1  and  C_2
REMARK    2  A    between atoms: C_4  and  C_5
REMARK    3  A    between atoms: C_15  and  C_16
REMARK                            x       y       z     vdW  Elec       q    Type
REMARK                         _______ _______ _______ _____ _____    ______ ____
ROOT
ATOM      1  C   UNL     1       5.931   3.269  15.169  0.00  0.00    +0.000 C 
ATOM      2  C   UNL     1       5.333   4.399  15.920  0.00  0.00    +0.000 A 
ATOM      3  C   UNL     1       5.447   5.773  15.649  0.00  0.00    +0.000 A 
ATOM      4  C   UNL     1       4.723   6.405  16.637  0.00  0.00    +0.000 A 
ATOM      5  C   UNL     1       4.526   7.859  16.861  0.00  0.00    +0.000 C 
ATOM      6  N   UNL     1       4.189   5.402  17.437  0.00  0.00    +0.000 N 
ATOM      7  C   UNL     1       3.337   5.528  18.584  0.00  0.00    +0.000 A 
ATOM      8  C   UNL     1       2.988   4.388  19.276  0.00  0.00    +0.000 A 
ATOM      9  C   UNL     1       2.199   4.591  20.376  0.00  0.00    +0.000 A 
ATOM     10  N   UNL     1       1.769   5.803  20.767  0.00  0.00    +0.000 NA
ATOM     11  C   UNL     1       2.132   6.870  20.040  0.00  0.00    +0.000 A 
ATOM     12  N   UNL     1       1.715   8.120  20.434  0.00  0.00    +0.000 N 
ATOM     13  C   UNL     1       0.842   8.280  21.584  0.00  0.00    +0.000 C 
ATOM     14  C   UNL     1      -0.555   8.672  21.106  0.00  0.00    +0.000 C 
ATOM     15  C   UNL     1      -0.518   9.935  20.231  0.00  0.00    +0.000 C 
ATOM     16  C   UNL     1       0.482   9.738  19.075  0.00  0.00    +0.000 C 
ATOM     17  C   UNL     1       1.861   9.270  19.553  0.00  0.00    +0.000 C 
ATOM     18  N   UNL     1       2.909   6.758  18.953  0.00  0.00    +0.000 NA
ATOM     19  N   UNL     1       4.584   4.166  17.000  0.00  0.00    +0.000 NA
ENDROOT
BRANCH  15  20
ATOM     20  C   UNL     1      -0.209  11.202  21.040  0.00  0.00    +0.000 C 
ATOM     21  O   UNL     1       0.299  11.139  22.165  0.00  0.00    +0.000 OA
ATOM     22  N   UNL     1      -0.485  12.424  20.463  0.00  0.00    +0.000 N 
ATOM     23  C   UNL     1      -0.997  12.704  19.135  0.00  0.00    +0.000 C 
ATOM     24  C   UNL     1      -0.305  14.003  18.763  0.00  0.00    +0.000 C 
ATOM     25  C   UNL     1      -0.244  14.754  20.088  0.00  0.00    +0.000 C 
ATOM     26  C   UNL     1      -0.129  13.658  21.144  0.00  0.00    +0.000 C 
ENDBRANCH  15  20
TORSDOF 1
ENDMDL
MODEL 6
REMARK VINA RESULT:      -6.4      3.409     10.261
REMARK  Name = 
REMARK  3 active torsions:
REMARK  status: ('A' for Active; 'I' for Inactive)
REMARK    1  A    between atoms: C_1  and  C_2
REMARK    2  A    between atoms: C_4  and  C_5
REMARK    3  A    between atoms: C_15  and  C_16
REMARK                            x       y       z     vdW  Elec       q    Type
REMARK                         _______ _______ _______ _____ _____    ______ ____
ROOT
ATOM      1  C   UNL     1      -3.632  13.259  22.816  0.00  0.00    +0.000 C 
ATOM      2  C   UNL     1      -2.554  12.284  22.520  0.00  0.00    +0.000 A 
ATOM      3  C   UNL     1      -1.886  11.435  23.419  0.00  0.00    +0.000 A 
ATOM      4  C   UNL     1      -0.971  10.740  22.658  0.00  0.00    +0.000 A 
ATOM      5  C   UNL     1       0.025   9.730  23.094  0.00  0.00    +0.000 C 
ATOM      6  N   UNL     1      -1.138  11.172  21.348  0.00  0.00    +0.000 N 
ATOM      7  C   UNL     1      -0.449  10.740  20.166  0.00  0.00    +0.000 A 
ATOM      8  C   UNL     1      -0.727  11.369  18.973  0.00  0.00    +0.000 A 
ATOM      9  C   UNL     1      -0.009  10.925  17.896  0.00  0.00    +0.000 A 
ATOM     10  N   UNL     1       0.899   9.936  17.968  0.00  0.00    +0.000 NA
ATOM     11  C   UNL     1       1.112   9.354  19.157  0.00  0.00    +0.000 A 
ATOM     12  N   UNL     1       2.048   8.352  19.253  0.00  0.00    +0.000 N 
ATOM     13  C   UNL     1       2.754   7.884  18.074  0.00  0.00    +0.000 C 
ATOM     14  C   UNL     1       2.247   6.492  17.701  0.00  0.00    +0.000 C 
ATOM     15  C   UNL     1       2.377   5.512  18.876  0.00  0.00    +0.000 C 
ATOM     16  C   UNL     1       1.679   6.095  20.121  0.00  0.00    +0.000 C 
ATOM     17  C   UNL     1       2.136   7.521  20.446  0.00  0.00    +0.000 C 
ATOM     18  N   UNL     1       0.454   9.737  20.262  0.00  0.00    +0.000 NA
ATOM     19  N   UNL     1      -2.104  12.139  21.272  0.00  0.00    +0.000 NA
ENDROOT
BRANCH  15  20
ATOM     20  C   UNL     1       3.836   5.133  19.168  0.00  0.00    +0.000 C 
ATOM     21  O   UNL     1       4.225   4.912  20.320  0.00  0.00    +0.000 OA
ATOM     22  N   UNL     1       4.702   5.014  18.101  0.00  0.00    +0.000 N 
ATOM     23  C   UNL     1       4.419   5.149  16.685  0.00  0.00    +0.000 C 
ATOM     24  C   UNL     1       5.353   4.137  16.047  0.00  0.00    +0.000 C 
ATOM     25  C   UNL     1       6.599   4.217  16.921  0.00  0.00    +0.000 C 
ATOM     26  C   UNL     1       6.070   4.569  18.308  0.00  0.00    +0.000 C 
ENDBRANCH  15  20
TORSDOF 1
ENDMDL
MODEL 7
REMARK VINA RESULT:      -6.4      2.901      5.410
REMARK  Name = 
REMARK  3 active torsions:
REMARK  status: ('A' for Active; 'I' for Inactive)
REMARK    1  A    between atoms: C_1  and  C_2
REMARK    2  A    between atoms: C_4  and  C_5
REMARK    3  A    between atoms: C_15  and  C_16
REMARK                            x       y       z     vdW  Elec       q    Type
REMARK                         _______ _______ _______ _____ _____    ______ ____
ROOT
ATOM      1  C   UNL     1       5.652   3.271  15.292  0.00  0.00    +0.000 C 
ATOM      2  C   UNL     1       5.106   4.420  16.053  0.00  0.00    +0.000 A 
ATOM      3  C   UNL     1       5.297   5.790  15.805  0.00  0.00    +0.000 A 
ATOM      4  C   UNL     1       4.595   6.445  16.795  0.00  0.00    +0.000 A 
ATOM      5  C   UNL     1       4.473   7.904  17.039  0.00  0.00    +0.000 C 
ATOM      6  N   UNL     1       3.998   5.460  17.572  0.00  0.00    +0.000 N 
ATOM      7  C   UNL     1       3.139   5.614  18.711  0.00  0.00    +0.000 A 
ATOM      8  C   UNL     1       2.722   4.485  19.380  0.00  0.00    +0.000 A 
ATOM      9  C   UNL     1       1.931   4.712  20.474  0.00  0.00    +0.000 A 
ATOM     10  N   UNL     1       1.561   5.939  20.879  0.00  0.00    +0.000 NA
ATOM     11  C   UNL     1       1.989   6.997  20.174  0.00  0.00    +0.000 A 
ATOM     12  N   UNL     1       1.635   8.261  20.582  0.00  0.00    +0.000 N 
ATOM     13  C   UNL     1       0.757   8.450  21.724  0.00  0.00    +0.000 C 
ATOM     14  C   UNL     1      -0.611   8.923  21.236  0.00  0.00    +0.000 C 
ATOM     15  C   UNL     1      -0.495  10.195  20.382  0.00  0.00    +0.000 C 
ATOM     16  C   UNL     1       0.507   9.962  19.235  0.00  0.00    +0.000 C 
ATOM     17  C   UNL     1       1.853   9.415  19.722  0.00  0.00    +0.000 C 
ATOM     18  N   UNL     1       2.773   6.859  19.094  0.00  0.00    +0.000 NA
ATOM     19  N   UNL     1       4.332   4.212  17.121  0.00  0.00    +0.000 NA
ENDROOT
BRANCH  15  20
ATOM     20  C   UNL     1      -0.129  11.432  21.215  0.00  0.00    +0.000 C 
ATOM     21  O   UNL     1       1.036  11.653  21.559  0.00  0.00    +0.000 OA
ATOM     22  N   UNL     1      -1.137  12.313  21.545  0.00  0.00    +0.000 N 
ATOM     23  C   UNL     1      -2.537  12.273  21.167  0.00  0.00    +0.000 C 
ATOM     24  C   UNL     1      -2.900  13.739  21.021  0.00  0.00    +0.000 C 
ATOM     25  C   UNL     1      -2.088  14.408  22.124  0.00  0.00    +0.000 C 
ATOM     26  C   UNL     1      -0.835  13.547  22.252  0.00  0.00    +0.000 C 
ENDBRANCH  15  20
TORSDOF 1
ENDMDL
MODEL 8
REMARK VINA RESULT:      -6.3      3.840     10.414
REMARK  Name = 
REMARK  3 active torsions:
REMARK  status: ('A' for Active; 'I' for Inactive)
REMARK    1  A    between atoms: C_1  and  C_2
REMARK    2  A    between atoms: C_4  and  C_5
REMARK    3  A    between atoms: C_15  and  C_16
REMARK                            x       y       z     vdW  Elec       q    Type
REMARK                         _______ _______ _______ _____ _____    ______ ____
ROOT
ATOM      1  C   UNL     1      -2.106  14.259  21.200  0.00  0.00    +0.000 C 
ATOM      2  C   UNL     1      -1.439  12.939  21.303  0.00  0.00    +0.000 A 
ATOM      3  C   UNL     1      -1.491  12.024  22.369  0.00  0.00    +0.000 A 
ATOM      4  C   UNL     1      -0.699  10.964  21.985  0.00  0.00    +0.000 A 
ATOM      5  C   UNL     1      -0.369   9.729  22.738  0.00  0.00    +0.000 C 
ATOM      6  N   UNL     1      -0.228  11.265  20.712  0.00  0.00    +0.000 N 
ATOM      7  C   UNL     1       0.613  10.477  19.858  0.00  0.00    +0.000 A 
ATOM      8  C   UNL     1       1.021  11.014  18.656  0.00  0.00    +0.000 A 
ATOM      9  C   UNL     1       1.847  10.217  17.911  0.00  0.00    +0.000 A 
ATOM     10  N   UNL     1       2.235   8.988  18.293  0.00  0.00    +0.000 NA
ATOM     11  C   UNL     1       1.789   8.518  19.467  0.00  0.00    +0.000 A 
ATOM     12  N   UNL     1       2.189   7.270  19.882  0.00  0.00    +0.000 N 
ATOM     13  C   UNL     1       3.031   6.443  19.036  0.00  0.00    +0.000 C 
ATOM     14  C   UNL     1       2.204   5.285  18.479  0.00  0.00    +0.000 C 
ATOM     15  C   UNL     1       1.544   4.472  19.603  0.00  0.00    +0.000 C 
ATOM     16  C   UNL     1       0.730   5.411  20.515  0.00  0.00    +0.000 C 
ATOM     17  C   UNL     1       1.542   6.613  21.010  0.00  0.00    +0.000 C 
ATOM     18  N   UNL     1       0.984   9.239  20.260  0.00  0.00    +0.000 NA
ATOM     19  N   UNL     1      -0.673  12.493  20.304  0.00  0.00    +0.000 NA
ENDROOT
BRANCH  15  20
ATOM     20  C   UNL     1       2.558   3.642  20.403  0.00  0.00    +0.000 C 
ATOM     21  O   UNL     1       2.597   3.689  21.637  0.00  0.00    +0.000 OA
ATOM     22  N   UNL     1       3.410   2.811  19.706  0.00  0.00    +0.000 N 
ATOM     23  C   UNL     1       3.461   2.556  18.279  0.00  0.00    +0.000 C 
ATOM     24  C   UNL     1       3.862   1.094  18.202  0.00  0.00    +0.000 C 
ATOM     25  C   UNL     1       4.827   0.938  19.372  0.00  0.00    +0.000 C 
ATOM     26  C   UNL     1       4.327   1.934  20.415  0.00  0.00    +0.000 C 
ENDBRANCH  15  20
TORSDOF 1
ENDMDL
MODEL 9
REMARK VINA RESULT:      -6.2      3.874      5.631
REMARK  Name = 
REMARK  3 active torsions:
REMARK  status: ('A' for Active; 'I' for Inactive)
REMARK    1  A    between atoms: C_1  and  C_2
REMARK    2  A    between atoms: C_4  and  C_5
REMARK    3  A    between atoms: C_15  and  C_16
REMARK                            x       y       z     vdW  Elec       q    Type
REMARK                         _______ _______ _______ _____ _____    ______ ____
ROOT
ATOM      1  C   UNL     1      -3.738  10.002  13.957  0.00  0.00    +0.000 C 
ATOM      2  C   UNL     1      -3.514  10.498  15.336  0.00  0.00    +0.000 A 
ATOM      3  C   UNL     1      -2.292  10.651  16.012  0.00  0.00    +0.000 A 
ATOM      4  C   UNL     1      -2.618  11.131  17.262  0.00  0.00    +0.000 A 
ATOM      5  C   UNL     1      -1.722  11.445  18.402  0.00  0.00    +0.000 C 
ATOM      6  N   UNL     1      -4.001  11.272  17.280  0.00  0.00    +0.000 N 
ATOM      7  C   UNL     1      -4.838  11.761  18.338  0.00  0.00    +0.000 A 
ATOM      8  C   UNL     1      -6.205  11.739  18.161  0.00  0.00    +0.000 A 
ATOM      9  C   UNL     1      -6.938  12.192  19.224  0.00  0.00    +0.000 A 
ATOM     10  N   UNL     1      -6.390  12.645  20.364  0.00  0.00    +0.000 NA
ATOM     11  C   UNL     1      -5.052  12.655  20.466  0.00  0.00    +0.000 A 
ATOM     12  N   UNL     1      -4.474  13.100  21.631  0.00  0.00    +0.000 N 
ATOM     13  C   UNL     1      -5.293  13.612  22.715  0.00  0.00    +0.000 C 
ATOM     14  C   UNL     1      -5.117  15.127  22.808  0.00  0.00    +0.000 C 
ATOM     15  C   UNL     1      -3.639  15.513  22.971  0.00  0.00    +0.000 C 
ATOM     16  C   UNL     1      -2.807  14.878  21.841  0.00  0.00    +0.000 C 
ATOM     17  C   UNL     1      -3.045  13.370  21.702  0.00  0.00    +0.000 C 
ATOM     18  N   UNL     1      -4.262  12.221  19.473  0.00  0.00    +0.000 NA
ATOM     19  N   UNL     1      -4.550  10.862  16.096  0.00  0.00    +0.000 NA
ENDROOT
BRANCH  15  20
ATOM     20  C   UNL     1      -3.086  15.152  24.357  0.00  0.00    +0.000 C 
ATOM     21  O   UNL     1      -3.470  14.145  24.960  0.00  0.00    +0.000 OA
ATOM     22  N   UNL     1      -2.119  15.969  24.903  0.00  0.00    +0.000 N 
ATOM     23  C   UNL     1      -1.484  17.137  24.320  0.00  0.00    +0.000 C 
ATOM     24  C   UNL     1      -0.068  17.068  24.862  0.00  0.00    +0.000 C 
ATOM     25  C   UNL     1      -0.263  16.524  26.273  0.00  0.00    +0.000 C 
ATOM     26  C   UNL     1      -1.492  15.626  26.169  0.00  0.00    +0.000 C 
ENDBRANCH  15  20
TORSDOF 1
ENDMDL
