MODEL 1
REMARK VINA RESULT:      -7.7      0.000      0.000
REMARK  Name = 
REMARK  13 active torsions:
REMARK  status: ('A' for Active; 'I' for Inactive)
REMARK    1  A    between atoms: C_1  and  C_2
REMARK    2  A    between atoms: N_4  and  C_5
REMARK    3  A    between atoms: C_5  and  C_6
REMARK    4  A    between atoms: C_5  and  C_7
REMARK    5  A    between atoms: C_8  and  C_9
REMARK    6  A    between atoms: C_10  and  C_11
REMARK    7  A    between atoms: C_11  and  N_12
REMARK    8  A    between atoms: N_12  and  C_13
REMARK    9  A    between atoms: C_13  and  C_14
REMARK   10  A    between atoms: C_16  and  C_17
REMARK   11  A    between atoms: C_17  and  O_18
REMARK   12  A    between atoms: N_19  and  C_20
REMARK   13  A    between atoms: C_21  and  C_22
REMARK                            x       y       z     vdW  Elec       q    Type
REMARK                         _______ _______ _______ _____ _____    ______ ____
ROOT
ATOM      1  C   UNL     1       3.525   7.329  17.926  0.00  0.00    +0.000 C 
ATOM      2  C   UNL     1       4.289   6.805  16.694  0.00  0.00    +0.000 C 
ATOM      3  C   UNL     1       5.169   5.647  17.202  0.00  0.00    +0.000 C 
ATOM      4  N   UNL     1       4.980   5.721  18.653  0.00  0.00    +0.000 NA
ATOM      5  C   UNL     1       5.570   4.694  19.479  0.00  0.00    +0.000 C 
ATOM      6  C   UNL     1       3.618   6.182  18.966  0.00  0.00    +0.000 C 
ENDROOT
BRANCH   6   7
ATOM      7  C   UNL     1       2.557   5.092  18.988  0.00  0.00    +0.000 A 
ATOM      8  C   UNL     1       2.109   4.402  17.849  0.00  0.00    +0.000 A 
ATOM      9  C   UNL     1       1.183   3.357  17.934  0.00  0.00    +0.000 A 
ATOM     10  C   UNL     1       0.673   2.980  19.167  0.00  0.00    +0.000 A 
ATOM     11  C   UNL     1       1.079   3.659  20.314  0.00  0.00    +0.000 A 
ATOM     12  C   UNL     1       2.001   4.701  20.216  0.00  0.00    +0.000 A 
ATOM     13  F   UNL     1       2.369   5.324  21.345  0.00  0.00    +0.000 F 
ENDBRANCH   6   7
BRANCH   1  14
ATOM     14  C   UNL     1       2.127   7.910  17.667  0.00  0.00    +0.000 C 
BRANCH  14  15
ATOM     15  N   UNL     1       1.937   9.235  18.273  0.00  0.00    +0.000 NA
ATOM     16  H   UNL     1       2.207   9.206  19.256  0.00  0.00    +0.000 HD
BRANCH  15  17
ATOM     17  C   UNL     1       0.525   9.628  18.180  0.00  0.00    +0.000 C 
BRANCH  17  24
ATOM     18  C   UNL     1       0.917   8.314  21.132  0.00  0.00    +0.000 C 
ATOM     19  C   UNL     1       0.248   9.593  20.783  0.00  0.00    +0.000 A 
ATOM     20  N   UNL     1      -0.247  10.372  21.748  0.00  0.00    +0.000 NA
ATOM     21  N   UNL     1      -0.759  11.439  21.102  0.00  0.00    +0.000 N 
ATOM     22  C   UNL     1      -0.552  11.385  19.743  0.00  0.00    +0.000 A 
ATOM     23  C   UNL     1      -0.906  12.446  18.764  0.00  0.00    +0.000 C 
ATOM     24  C   UNL     1       0.070  10.166  19.496  0.00  0.00    +0.000 A 
BRANCH  21  25
ATOM     25  C   UNL     1      -1.437  12.465  21.894  0.00  0.00    +0.000 C 
ATOM     26  C   UNL     1      -2.138  11.857  23.113  0.00  0.00    +0.000 C 
ATOM     27  C   UNL     1      -0.489  13.588  22.320  0.00  0.00    +0.000 C 
ENDBRANCH  21  25
ENDBRANCH  17  24
ENDBRANCH  15  17
ENDBRANCH  14  15
ENDBRANCH   1  14
BRANCH   3  28
ATOM     28  C   UNL     1       4.859   4.320  16.463  0.00  0.00    +0.000 C 
BRANCH  28  29
ATOM     29  O   UNL     1       6.013   3.533  16.199  0.00  0.00    +0.000 OA
ATOM     30  H   UNL     1       5.853   3.036  15.386  0.00  0.00    +0.000 HD
ENDBRANCH  28  29
ENDBRANCH   3  28
TORSDOF 8
ENDMDL
MODEL 2
REMARK VINA RESULT:      -7.6      2.387      3.889
REMARK  Name = 
REMARK  13 active torsions:
REMARK  status: ('A' for Active; 'I' for Inactive)
REMARK    1  A    between atoms: C_1  and  C_2
REMARK    2  A    between atoms: N_4  and  C_5
REMARK    3  A    between atoms: C_5  and  C_6
REMARK    4  A    between atoms: C_5  and  C_7
REMARK    5  A    between atoms: C_8  and  C_9
REMARK    6  A    between atoms: C_10  and  C_11
REMARK    7  A    between atoms: C_11  and  N_12
REMARK    8  A    between atoms: N_12  and  C_13
REMARK    9  A    between atoms: C_13  and  C_14
REMARK   10  A    between atoms: C_16  and  C_17
REMARK   11  A    between atoms: C_17  and  O_18
REMARK   12  A    between atoms: N_19  and  C_20
REMARK   13  A    between atoms: C_21  and  C_22
REMARK                            x       y       z     vdW  Elec       q    Type
REMARK                         _______ _______ _______ _____ _____    ______ ____
ROOT
ATOM      1  C   UNL     1       1.989   5.624  19.004  0.00  0.00    +0.000 C 
ATOM      2  C   UNL     1       1.824   4.744  20.260  0.00  0.00    +0.000 C 
ATOM      3  C   UNL     1       2.169   3.308  19.818  0.00  0.00    +0.000 C 
ATOM      4  N   UNL     1       2.318   3.451  18.368  0.00  0.00    +0.000 NA
ATOM      5  C   UNL     1       2.767   2.311  17.605  0.00  0.00    +0.000 C 
ATOM      6  C   UNL     1       2.863   4.778  18.041  0.00  0.00    +0.000 C 
ENDROOT
BRANCH   6   7
ATOM      7  C   UNL     1       4.380   4.886  18.104  0.00  0.00    +0.000 A 
ATOM      8  C   UNL     1       5.101   5.224  19.261  0.00  0.00    +0.000 A 
ATOM      9  C   UNL     1       6.499   5.238  19.283  0.00  0.00    +0.000 A 
ATOM     10  C   UNL     1       7.215   4.920  18.138  0.00  0.00    +0.000 A 
ATOM     11  C   UNL     1       6.531   4.601  16.967  0.00  0.00    +0.000 A 
ATOM     12  C   UNL     1       5.135   4.594  16.957  0.00  0.00    +0.000 A 
ATOM     13  F   UNL     1       4.515   4.276  15.812  0.00  0.00    +0.000 F 
ENDBRANCH   6   7
BRANCH   1  14
ATOM     14  C   UNL     1       2.433   7.075  19.240  0.00  0.00    +0.000 C 
BRANCH  14  15
ATOM     15  N   UNL     1       2.064   7.577  20.571  0.00  0.00    +0.000 NA
ATOM     16  H   UNL     1       2.185   6.837  21.263  0.00  0.00    +0.000 HD
BRANCH  15  17
ATOM     17  C   UNL     1       0.659   8.002  20.572  0.00  0.00    +0.000 C 
BRANCH  17  24
ATOM     18  C   UNL     1      -0.028   9.549  23.352  0.00  0.00    +0.000 C 
ATOM     19  C   UNL     1       0.289  10.144  22.029  0.00  0.00    +0.000 A 
ATOM     20  N   UNL     1       0.353  11.471  21.893  0.00  0.00    +0.000 NA
ATOM     21  N   UNL     1       0.671  11.671  20.598  0.00  0.00    +0.000 N 
ATOM     22  C   UNL     1       0.866  10.494  19.913  0.00  0.00    +0.000 A 
ATOM     23  C   UNL     1       1.318  10.370  18.503  0.00  0.00    +0.000 C 
ATOM     24  C   UNL     1       0.582   9.472  20.813  0.00  0.00    +0.000 A 
BRANCH  21  25
ATOM     25  C   UNL     1       0.759  13.048  20.114  0.00  0.00    +0.000 C 
ATOM     26  C   UNL     1      -0.616  13.591  19.716  0.00  0.00    +0.000 C 
ATOM     27  C   UNL     1       1.434  13.975  21.128  0.00  0.00    +0.000 C 
ENDBRANCH  21  25
ENDBRANCH  17  24
ENDBRANCH  15  17
ENDBRANCH  14  15
ENDBRANCH   1  14
BRANCH   3  28
ATOM     28  C   UNL     1       3.336   2.715  20.647  0.00  0.00    +0.000 C 
BRANCH  28  29
ATOM     29  O   UNL     1       2.969   2.357  21.973  0.00  0.00    +0.000 OA
ATOM     30  H   UNL     1       2.240   1.726  21.918  0.00  0.00    +0.000 HD
ENDBRANCH  28  29
ENDBRANCH   3  28
TORSDOF 8
ENDMDL
MODEL 3
REMARK VINA RESULT:      -7.6      2.307      4.042
REMARK  Name = 
REMARK  13 active torsions:
REMARK  status: ('A' for Active; 'I' for Inactive)
REMARK    1  A    between atoms: C_1  and  C_2
REMARK    2  A    between atoms: N_4  and  C_5
REMARK    3  A    between atoms: C_5  and  C_6
REMARK    4  A    between atoms: C_5  and  C_7
REMARK    5  A    between atoms: C_8  and  C_9
REMARK    6  A    between atoms: C_10  and  C_11
REMARK    7  A    between atoms: C_11  and  N_12
REMARK    8  A    between atoms: N_12  and  C_13
REMARK    9  A    between atoms: C_13  and  C_14
REMARK   10  A    between atoms: C_16  and  C_17
REMARK   11  A    between atoms: C_17  and  O_18
REMARK   12  A    between atoms: N_19  and  C_20
REMARK   13  A    between atoms: C_21  and  C_22
REMARK                            x       y       z     vdW  Elec       q    Type
REMARK                         _______ _______ _______ _____ _____    ______ ____
ROOT
ATOM      1  C   UNL     1       2.208   4.917  19.448  0.00  0.00    +0.000 C 
ATOM      2  C   UNL     1       2.394   4.005  20.678  0.00  0.00    +0.000 C 
ATOM      3  C   UNL     1       2.942   2.671  20.136  0.00  0.00    +0.000 C 
ATOM      4  N   UNL     1       2.856   2.860  18.686  0.00  0.00    +0.000 NA
ATOM      5  C   UNL     1       3.404   1.840  17.824  0.00  0.00    +0.000 C 
ATOM      6  C   UNL     1       3.084   4.272  18.342  0.00  0.00    +0.000 C 
ENDROOT
BRANCH   6   7
ATOM      7  C   UNL     1       4.545   4.674  18.203  0.00  0.00    +0.000 A 
ATOM      8  C   UNL     1       5.345   5.127  19.266  0.00  0.00    +0.000 A 
ATOM      9  C   UNL     1       6.704   5.414  19.098  0.00  0.00    +0.000 A 
ATOM     10  C   UNL     1       7.297   5.263  17.854  0.00  0.00    +0.000 A 
ATOM     11  C   UNL     1       6.527   4.837  16.774  0.00  0.00    +0.000 A 
ATOM     12  C   UNL     1       5.172   4.556  16.953  0.00  0.00    +0.000 A 
ATOM     13  F   UNL     1       4.469   4.144  15.889  0.00  0.00    +0.000 F 
ENDBRANCH   6   7
BRANCH   1  14
ATOM     14  C   UNL     1       2.394   6.423  19.681  0.00  0.00    +0.000 C 
BRANCH  14  15
ATOM     15  N   UNL     1       1.585   6.934  20.796  0.00  0.00    +0.000 NA
ATOM     16  H   UNL     1       0.596   6.893  20.550  0.00  0.00    +0.000 HD
BRANCH  15  17
ATOM     17  C   UNL     1       1.946   8.330  21.076  0.00  0.00    +0.000 C 
BRANCH  17  24
ATOM     18  C   UNL     1      -0.263   9.674  23.053  0.00  0.00    +0.000 C 
ATOM     19  C   UNL     1      -0.151   9.813  21.579  0.00  0.00    +0.000 A 
ATOM     20  N   UNL     1      -1.004  10.598  20.917  0.00  0.00    +0.000 NA
ATOM     21  N   UNL     1      -0.621  10.514  19.627  0.00  0.00    +0.000 N 
ATOM     22  C   UNL     1       0.498   9.733  19.456  0.00  0.00    +0.000 A 
ATOM     23  C   UNL     1       1.225   9.517  18.178  0.00  0.00    +0.000 C 
ATOM     24  C   UNL     1       0.807   9.223  20.713  0.00  0.00    +0.000 A 
BRANCH  21  25
ATOM     25  C   UNL     1      -1.411  11.230  18.625  0.00  0.00    +0.000 C 
ATOM     26  C   UNL     1      -2.321  10.278  17.845  0.00  0.00    +0.000 C 
ATOM     27  C   UNL     1      -2.222  12.374  19.237  0.00  0.00    +0.000 C 
ENDBRANCH  21  25
ENDBRANCH  17  24
ENDBRANCH  15  17
ENDBRANCH  14  15
ENDBRANCH   1  14
BRANCH   3  28
ATOM     28  C   UNL     1       4.307   2.307  20.774  0.00  0.00    +0.000 C 
BRANCH  28  29
ATOM     29  O   UNL     1       5.136   1.515  19.934  0.00  0.00    +0.000 OA
ATOM     30  H   UNL     1       6.041   1.582  20.263  0.00  0.00    +0.000 HD
ENDBRANCH  28  29
ENDBRANCH   3  28
TORSDOF 8
ENDMDL
MODEL 4
REMARK VINA RESULT:      -7.6      1.473      1.735
REMARK  Name = 
REMARK  13 active torsions:
REMARK  status: ('A' for Active; 'I' for Inactive)
REMARK    1  A    between atoms: C_1  and  C_2
REMARK    2  A    between atoms: N_4  and  C_5
REMARK    3  A    between atoms: C_5  and  C_6
REMARK    4  A    between atoms: C_5  and  C_7
REMARK    5  A    between atoms: C_8  and  C_9
REMARK    6  A    between atoms: C_10  and  C_11
REMARK    7  A    between atoms: C_11  and  N_12
REMARK    8  A    between atoms: N_12  and  C_13
REMARK    9  A    between atoms: C_13  and  C_14
REMARK   10  A    between atoms: C_16  and  C_17
REMARK   11  A    between atoms: C_17  and  O_18
REMARK   12  A    between atoms: N_19  and  C_20
REMARK   13  A    between atoms: C_21  and  C_22
REMARK                            x       y       z     vdW  Elec       q    Type
REMARK                         _______ _______ _______ _____ _____    ______ ____
ROOT
ATOM      1  C   UNL     1       3.525   7.190  18.233  0.00  0.00    +0.000 C 
ATOM      2  C   UNL     1       4.209   6.756  16.921  0.00  0.00    +0.000 C 
ATOM      3  C   UNL     1       5.098   5.551  17.286  0.00  0.00    +0.000 C 
ATOM      4  N   UNL     1       4.993   5.513  18.747  0.00  0.00    +0.000 NA
ATOM      5  C   UNL     1       5.612   4.418  19.454  0.00  0.00    +0.000 C 
ATOM      6  C   UNL     1       3.659   5.964  19.173  0.00  0.00    +0.000 C 
ENDROOT
BRANCH   6   7
ATOM      7  C   UNL     1       2.583   4.887  19.171  0.00  0.00    +0.000 A 
ATOM      8  C   UNL     1       2.100   4.256  18.013  0.00  0.00    +0.000 A 
ATOM      9  C   UNL     1       1.161   3.220  18.073  0.00  0.00    +0.000 A 
ATOM     10  C   UNL     1       0.675   2.794  19.299  0.00  0.00    +0.000 A 
ATOM     11  C   UNL     1       1.117   3.414  20.466  0.00  0.00    +0.000 A 
ATOM     12  C   UNL     1       2.051   4.448  20.393  0.00  0.00    +0.000 A 
ATOM     13  F   UNL     1       2.455   5.014  21.540  0.00  0.00    +0.000 F 
ENDBRANCH   6   7
BRANCH   1  14
ATOM     14  C   UNL     1       2.124   7.805  18.101  0.00  0.00    +0.000 C 
BRANCH  14  15
ATOM     15  N   UNL     1       2.155   9.215  17.686  0.00  0.00    +0.000 NA
ATOM     16  H   UNL     1       2.897   9.704  18.186  0.00  0.00    +0.000 HD
BRANCH  15  17
ATOM     17  C   UNL     1       0.871   9.855  17.998  0.00  0.00    +0.000 C 
BRANCH  17  24
ATOM     18  C   UNL     1       0.263   9.447  21.170  0.00  0.00    +0.000 C 
ATOM     19  C   UNL     1       0.799  10.653  20.490  0.00  0.00    +0.000 A 
ATOM     20  N   UNL     1       1.129  11.731  21.206  0.00  0.00    +0.000 NA
ATOM     21  N   UNL     1       1.588  12.620  20.302  0.00  0.00    +0.000 N 
ATOM     22  C   UNL     1       1.610  12.111  19.024  0.00  0.00    +0.000 A 
ATOM     23  C   UNL     1       2.147  12.799  17.821  0.00  0.00    +0.000 C 
ATOM     24  C   UNL     1       1.059  10.837  19.106  0.00  0.00    +0.000 A 
BRANCH  21  25
ATOM     25  C   UNL     1       1.981  13.946  20.777  0.00  0.00    +0.000 C 
ATOM     26  C   UNL     1       1.025  14.459  21.857  0.00  0.00    +0.000 C 
ATOM     27  C   UNL     1       3.427  13.977  21.275  0.00  0.00    +0.000 C 
ENDBRANCH  21  25
ENDBRANCH  17  24
ENDBRANCH  15  17
ENDBRANCH  14  15
ENDBRANCH   1  14
BRANCH   3  28
ATOM     28  C   UNL     1       4.726   4.291  16.464  0.00  0.00    +0.000 C 
BRANCH  28  29
ATOM     29  O   UNL     1       5.845   3.482  16.124  0.00  0.00    +0.000 OA
ATOM     30  H   UNL     1       6.372   3.355  16.923  0.00  0.00    +0.000 HD
ENDBRANCH  28  29
ENDBRANCH   3  28
TORSDOF 8
ENDMDL
MODEL 5
REMARK VINA RESULT:      -7.6      2.209      3.975
REMARK  Name = 
REMARK  13 active torsions:
REMARK  status: ('A' for Active; 'I' for Inactive)
REMARK    1  A    between atoms: C_1  and  C_2
REMARK    2  A    between atoms: N_4  and  C_5
REMARK    3  A    between atoms: C_5  and  C_6
REMARK    4  A    between atoms: C_5  and  C_7
REMARK    5  A    between atoms: C_8  and  C_9
REMARK    6  A    between atoms: C_10  and  C_11
REMARK    7  A    between atoms: C_11  and  N_12
REMARK    8  A    between atoms: N_12  and  C_13
REMARK    9  A    between atoms: C_13  and  C_14
REMARK   10  A    between atoms: C_16  and  C_17
REMARK   11  A    between atoms: C_17  and  O_18
REMARK   12  A    between atoms: N_19  and  C_20
REMARK   13  A    between atoms: C_21  and  C_22
REMARK                            x       y       z     vdW  Elec       q    Type
REMARK                         _______ _______ _______ _____ _____    ______ ____
ROOT
ATOM      1  C   UNL     1       2.465   5.557  19.121  0.00  0.00    +0.000 C 
ATOM      2  C   UNL     1       2.545   4.387  20.121  0.00  0.00    +0.000 C 
ATOM      3  C   UNL     1       3.221   3.228  19.363  0.00  0.00    +0.000 C 
ATOM      4  N   UNL     1       3.303   3.750  17.997  0.00  0.00    +0.000 NA
ATOM      5  C   UNL     1       4.002   2.972  17.003  0.00  0.00    +0.000 C 
ATOM      6  C   UNL     1       3.500   5.207  18.020  0.00  0.00    +0.000 C 
ENDROOT
BRANCH   6   7
ATOM      7  C   UNL     1       4.946   5.660  18.170  0.00  0.00    +0.000 A 
ATOM      8  C   UNL     1       5.785   5.287  19.233  0.00  0.00    +0.000 A 
ATOM      9  C   UNL     1       7.129   5.672  19.284  0.00  0.00    +0.000 A 
ATOM     10  C   UNL     1       7.667   6.451  18.271  0.00  0.00    +0.000 A 
ATOM     11  C   UNL     1       6.856   6.857  17.213  0.00  0.00    +0.000 A 
ATOM     12  C   UNL     1       5.517   6.468  17.174  0.00  0.00    +0.000 A 
ATOM     13  F   UNL     1       4.773   6.875  16.136  0.00  0.00    +0.000 F 
ENDBRANCH   6   7
BRANCH   1  14
ATOM     14  C   UNL     1       2.546   6.971  19.716  0.00  0.00    +0.000 C 
BRANCH  14  15
ATOM     15  N   UNL     1       1.480   7.243  20.690  0.00  0.00    +0.000 NA
ATOM     16  H   UNL     1       0.577   7.254  20.217  0.00  0.00    +0.000 HD
BRANCH  15  17
ATOM     17  C   UNL     1       1.701   8.551  21.319  0.00  0.00    +0.000 C 
BRANCH  17  24
ATOM     18  C   UNL     1      -0.645  10.007  23.044  0.00  0.00    +0.000 C 
ATOM     19  C   UNL     1      -0.348  10.155  21.596  0.00  0.00    +0.000 A 
ATOM     20  N   UNL     1      -1.067  10.999  20.852  0.00  0.00    +0.000 NA
ATOM     21  N   UNL     1      -0.538  10.907  19.615  0.00  0.00    +0.000 N 
ATOM     22  C   UNL     1       0.545  10.059  19.565  0.00  0.00    +0.000 A 
ATOM     23  C   UNL     1       1.406   9.814  18.378  0.00  0.00    +0.000 C 
ATOM     24  C   UNL     1       0.670   9.517  20.839  0.00  0.00    +0.000 A 
BRANCH  21  25
ATOM     25  C   UNL     1      -1.157  11.681  18.540  0.00  0.00    +0.000 C 
ATOM     26  C   UNL     1      -2.676  11.764  18.714  0.00  0.00    +0.000 C 
ATOM     27  C   UNL     1      -0.550  13.080  18.411  0.00  0.00    +0.000 C 
ENDBRANCH  21  25
ENDBRANCH  17  24
ENDBRANCH  15  17
ENDBRANCH  14  15
ENDBRANCH   1  14
BRANCH   3  28
ATOM     28  C   UNL     1       4.514   2.751  20.073  0.00  0.00    +0.000 C 
BRANCH  28  29
ATOM     29  O   UNL     1       4.935   1.453  19.677  0.00  0.00    +0.000 OA
ATOM     30  H   UNL     1       5.891   1.480  19.542  0.00  0.00    +0.000 HD
ENDBRANCH  28  29
ENDBRANCH   3  28
TORSDOF 8
ENDMDL
MODEL 6
REMARK VINA RESULT:      -7.5      0.712      1.685
REMARK  Name = 
REMARK  13 active torsions:
REMARK  status: ('A' for Active; 'I' for Inactive)
REMARK    1  A    between atoms: C_1  and  C_2
REMARK    2  A    between atoms: N_4  and  C_5
REMARK    3  A    between atoms: C_5  and  C_6
REMARK    4  A    between atoms: C_5  and  C_7
REMARK    5  A    between atoms: C_8  and  C_9
REMARK    6  A    between atoms: C_10  and  C_11
REMARK    7  A    between atoms: C_11  and  N_12
REMARK    8  A    between atoms: N_12  and  C_13
REMARK    9  A    between atoms: C_13  and  C_14
REMARK   10  A    between atoms: C_16  and  C_17
REMARK   11  A    between atoms: C_17  and  O_18
REMARK   12  A    between atoms: N_19  and  C_20
REMARK   13  A    between atoms: C_21  and  C_22
REMARK                            x       y       z     vdW  Elec       q    Type
REMARK                         _______ _______ _______ _____ _____    ______ ____
ROOT
ATOM      1  C   UNL     1       3.537   7.291  18.056  0.00  0.00    +0.000 C 
ATOM      2  C   UNL     1       4.238   6.811  16.769  0.00  0.00    +0.000 C 
ATOM      3  C   UNL     1       5.137   5.633  17.192  0.00  0.00    +0.000 C 
ATOM      4  N   UNL     1       5.019   5.654  18.651  0.00  0.00    +0.000 NA
ATOM      5  C   UNL     1       5.645   4.596  19.409  0.00  0.00    +0.000 C 
ATOM      6  C   UNL     1       3.677   6.106  19.048  0.00  0.00    +0.000 C 
ENDROOT
BRANCH   6   7
ATOM      7  C   UNL     1       2.613   5.018  19.080  0.00  0.00    +0.000 A 
ATOM      8  C   UNL     1       2.226   4.257  17.965  0.00  0.00    +0.000 A 
ATOM      9  C   UNL     1       1.295   3.218  18.066  0.00  0.00    +0.000 A 
ATOM     10  C   UNL     1       0.718   2.920  19.291  0.00  0.00    +0.000 A 
ATOM     11  C   UNL     1       1.062   3.670  20.413  0.00  0.00    +0.000 A 
ATOM     12  C   UNL     1       1.991   4.706  20.299  0.00  0.00    +0.000 A 
ATOM     13  F   UNL     1       2.299   5.399  21.405  0.00  0.00    +0.000 F 
ENDBRANCH   6   7
BRANCH   1  14
ATOM     14  C   UNL     1       2.131   7.884  17.887  0.00  0.00    +0.000 C 
BRANCH  14  15
ATOM     15  N   UNL     1       1.864   8.996  18.810  0.00  0.00    +0.000 NA
ATOM     16  H   UNL     1       2.741   9.327  19.212  0.00  0.00    +0.000 HD
BRANCH  15  17
ATOM     17  C   UNL     1       0.986   8.542  19.897  0.00  0.00    +0.000 C 
BRANCH  17  24
ATOM     18  C   UNL     1      -0.922  10.611  18.261  0.00  0.00    +0.000 C 
ATOM     19  C   UNL     1      -0.624  10.598  19.715  0.00  0.00    +0.000 A 
ATOM     20  N   UNL     1      -1.200  11.493  20.522  0.00  0.00    +0.000 NA
ATOM     21  N   UNL     1      -0.736  11.198  21.753  0.00  0.00    +0.000 N 
ATOM     22  C   UNL     1       0.085  10.094  21.759  0.00  0.00    +0.000 A 
ATOM     23  C   UNL     1       0.678   9.455  22.963  0.00  0.00    +0.000 C 
ATOM     24  C   UNL     1       0.213   9.701  20.432  0.00  0.00    +0.000 A 
BRANCH  21  25
ATOM     25  C   UNL     1      -1.147  12.052  22.868  0.00  0.00    +0.000 C 
ATOM     26  C   UNL     1      -0.752  13.511  22.628  0.00  0.00    +0.000 C 
ATOM     27  C   UNL     1      -2.643  11.937  23.163  0.00  0.00    +0.000 C 
ENDBRANCH  21  25
ENDBRANCH  17  24
ENDBRANCH  15  17
ENDBRANCH  14  15
ENDBRANCH   1  14
BRANCH   3  28
ATOM     28  C   UNL     1       4.787   4.335  16.420  0.00  0.00    +0.000 C 
BRANCH  28  29
ATOM     29  O   UNL     1       5.919   3.533  16.110  0.00  0.00    +0.000 OA
ATOM     30  H   UNL     1       6.621   4.120  15.801  0.00  0.00    +0.000 HD
ENDBRANCH  28  29
ENDBRANCH   3  28
TORSDOF 8
ENDMDL
MODEL 7
REMARK VINA RESULT:      -7.5      2.248      3.953
REMARK  Name = 
REMARK  13 active torsions:
REMARK  status: ('A' for Active; 'I' for Inactive)
REMARK    1  A    between atoms: C_1  and  C_2
REMARK    2  A    between atoms: N_4  and  C_5
REMARK    3  A    between atoms: C_5  and  C_6
REMARK    4  A    between atoms: C_5  and  C_7
REMARK    5  A    between atoms: C_8  and  C_9
REMARK    6  A    between atoms: C_10  and  C_11
REMARK    7  A    between atoms: C_11  and  N_12
REMARK    8  A    between atoms: N_12  and  C_13
REMARK    9  A    between atoms: C_13  and  C_14
REMARK   10  A    between atoms: C_16  and  C_17
REMARK   11  A    between atoms: C_17  and  O_18
REMARK   12  A    between atoms: N_19  and  C_20
REMARK   13  A    between atoms: C_21  and  C_22
REMARK                            x       y       z     vdW  Elec       q    Type
REMARK                         _______ _______ _______ _____ _____    ______ ____
ROOT
ATOM      1  C   UNL     1       1.972   5.653  19.056  0.00  0.00    +0.000 C 
ATOM      2  C   UNL     1       1.822   4.761  20.306  0.00  0.00    +0.000 C 
ATOM      3  C   UNL     1       2.148   3.327  19.843  0.00  0.00    +0.000 C 
ATOM      4  N   UNL     1       2.274   3.485  18.393  0.00  0.00    +0.000 NA
ATOM      5  C   UNL     1       2.702   2.350  17.611  0.00  0.00    +0.000 C 
ATOM      6  C   UNL     1       2.823   4.811  18.070  0.00  0.00    +0.000 C 
ENDROOT
BRANCH   6   7
ATOM      7  C   UNL     1       4.342   4.907  18.109  0.00  0.00    +0.000 A 
ATOM      8  C   UNL     1       5.083   5.256  19.250  0.00  0.00    +0.000 A 
ATOM      9  C   UNL     1       6.482   5.259  19.251  0.00  0.00    +0.000 A 
ATOM     10  C   UNL     1       7.177   4.918  18.101  0.00  0.00    +0.000 A 
ATOM     11  C   UNL     1       6.473   4.589  16.945  0.00  0.00    +0.000 A 
ATOM     12  C   UNL     1       5.077   4.592  16.956  0.00  0.00    +0.000 A 
ATOM     13  F   UNL     1       4.438   4.263  15.824  0.00  0.00    +0.000 F 
ENDBRANCH   6   7
BRANCH   1  14
ATOM     14  C   UNL     1       2.431   7.098  19.300  0.00  0.00    +0.000 C 
BRANCH  14  15
ATOM     15  N   UNL     1       2.151   7.564  20.665  0.00  0.00    +0.000 NA
ATOM     16  H   UNL     1       2.479   6.872  21.339  0.00  0.00    +0.000 HD
BRANCH  15  17
ATOM     17  C   UNL     1       0.705   7.749  20.843  0.00  0.00    +0.000 C 
BRANCH  17  24
ATOM     18  C   UNL     1       0.503   9.819  18.339  0.00  0.00    +0.000 C 
ATOM     19  C   UNL     1       0.295  10.106  19.781  0.00  0.00    +0.000 A 
ATOM     20  N   UNL     1      -0.056  11.334  20.173  0.00  0.00    +0.000 NA
ATOM     21  N   UNL     1      -0.177  11.248  21.513  0.00  0.00    +0.000 N 
ATOM     22  C   UNL     1       0.035   9.972  21.983  0.00  0.00    +0.000 A 
ATOM     23  C   UNL     1      -0.117   9.525  23.392  0.00  0.00    +0.000 C 
ATOM     24  C   UNL     1       0.389   9.207  20.877  0.00  0.00    +0.000 A 
BRANCH  21  25
ATOM     25  C   UNL     1      -0.501  12.465  22.256  0.00  0.00    +0.000 C 
ATOM     26  C   UNL     1      -0.225  13.719  21.422  0.00  0.00    +0.000 C 
ATOM     27  C   UNL     1      -1.943  12.464  22.768  0.00  0.00    +0.000 C 
ENDBRANCH  21  25
ENDBRANCH  17  24
ENDBRANCH  15  17
ENDBRANCH  14  15
ENDBRANCH   1  14
BRANCH   3  28
ATOM     28  C   UNL     1       3.325   2.717  20.647  0.00  0.00    +0.000 C 
BRANCH  28  29
ATOM     29  O   UNL     1       2.968   2.316  21.963  0.00  0.00    +0.000 OA
ATOM     30  H   UNL     1       2.868   3.113  22.498  0.00  0.00    +0.000 HD
ENDBRANCH  28  29
ENDBRANCH   3  28
TORSDOF 8
ENDMDL
MODEL 8
REMARK VINA RESULT:      -7.5      0.758      1.039
REMARK  Name = 
REMARK  13 active torsions:
REMARK  status: ('A' for Active; 'I' for Inactive)
REMARK    1  A    between atoms: C_1  and  C_2
REMARK    2  A    between atoms: N_4  and  C_5
REMARK    3  A    between atoms: C_5  and  C_6
REMARK    4  A    between atoms: C_5  and  C_7
REMARK    5  A    between atoms: C_8  and  C_9
REMARK    6  A    between atoms: C_10  and  C_11
REMARK    7  A    between atoms: C_11  and  N_12
REMARK    8  A    between atoms: N_12  and  C_13
REMARK    9  A    between atoms: C_13  and  C_14
REMARK   10  A    between atoms: C_16  and  C_17
REMARK   11  A    between atoms: C_17  and  O_18
REMARK   12  A    between atoms: N_19  and  C_20
REMARK   13  A    between atoms: C_21  and  C_22
REMARK                            x       y       z     vdW  Elec       q    Type
REMARK                         _______ _______ _______ _____ _____    ______ ____
ROOT
ATOM      1  C   UNL     1       3.591   7.250  17.958  0.00  0.00    +0.000 C 
ATOM      2  C   UNL     1       4.341   6.714  16.722  0.00  0.00    +0.000 C 
ATOM      3  C   UNL     1       5.214   5.549  17.230  0.00  0.00    +0.000 C 
ATOM      4  N   UNL     1       5.036   5.632  18.682  0.00  0.00    +0.000 NA
ATOM      5  C   UNL     1       5.622   4.604  19.508  0.00  0.00    +0.000 C 
ATOM      6  C   UNL     1       3.681   6.107  19.002  0.00  0.00    +0.000 C 
ENDROOT
BRANCH   6   7
ATOM      7  C   UNL     1       2.610   5.027  19.036  0.00  0.00    +0.000 A 
ATOM      8  C   UNL     1       2.181   4.304  17.911  0.00  0.00    +0.000 A 
ATOM      9  C   UNL     1       1.244   3.270  18.010  0.00  0.00    +0.000 A 
ATOM     10  C   UNL     1       0.704   2.938  19.243  0.00  0.00    +0.000 A 
ATOM     11  C   UNL     1       1.091   3.650  20.376  0.00  0.00    +0.000 A 
ATOM     12  C   UNL     1       2.024   4.681  20.264  0.00  0.00    +0.000 A 
ATOM     13  F   UNL     1       2.374   5.338  21.380  0.00  0.00    +0.000 F 
ENDBRANCH   6   7
BRANCH   1  14
ATOM     14  C   UNL     1       2.197   7.843  17.706  0.00  0.00    +0.000 C 
BRANCH  14  15
ATOM     15  N   UNL     1       2.133   9.287  17.969  0.00  0.00    +0.000 NA
ATOM     16  H   UNL     1       2.666   9.507  18.811  0.00  0.00    +0.000 HD
BRANCH  15  17
ATOM     17  C   UNL     1       0.738   9.696  18.172  0.00  0.00    +0.000 C 
BRANCH  17  24
ATOM     18  C   UNL     1       1.126   8.533  21.187  0.00  0.00    +0.000 C 
ATOM     19  C   UNL     1       0.792   9.921  20.779  0.00  0.00    +0.000 A 
ATOM     20  N   UNL     1       0.654  10.874  21.705  0.00  0.00    +0.000 NA
ATOM     21  N   UNL     1       0.374  11.994  21.010  0.00  0.00    +0.000 N 
ATOM     22  C   UNL     1       0.386  11.790  19.649  0.00  0.00    +0.000 A 
ATOM     23  C   UNL     1       0.213  12.837  18.609  0.00  0.00    +0.000 C 
ATOM     24  C   UNL     1       0.615  10.431  19.465  0.00  0.00    +0.000 A 
BRANCH  21  25
ATOM     25  C   UNL     1       0.106  13.222  21.758  0.00  0.00    +0.000 C 
ATOM     26  C   UNL     1       1.168  14.289  21.481  0.00  0.00    +0.000 C 
ATOM     27  C   UNL     1      -1.296  13.770  21.487  0.00  0.00    +0.000 C 
ENDBRANCH  21  25
ENDBRANCH  17  24
ENDBRANCH  15  17
ENDBRANCH  14  15
ENDBRANCH   1  14
BRANCH   3  28
ATOM     28  C   UNL     1       4.887   4.222  16.499  0.00  0.00    +0.000 C 
BRANCH  28  29
ATOM     29  O   UNL     1       6.040   3.505  16.078  0.00  0.00    +0.000 OA
ATOM     30  H   UNL     1       6.717   3.606  16.760  0.00  0.00    +0.000 HD
ENDBRANCH  28  29
ENDBRANCH   3  28
TORSDOF 8
ENDMDL
MODEL 9
REMARK VINA RESULT:      -7.5      1.133      1.625
REMARK  Name = 
REMARK  13 active torsions:
REMARK  status: ('A' for Active; 'I' for Inactive)
REMARK    1  A    between atoms: C_1  and  C_2
REMARK    2  A    between atoms: N_4  and  C_5
REMARK    3  A    between atoms: C_5  and  C_6
REMARK    4  A    between atoms: C_5  and  C_7
REMARK    5  A    between atoms: C_8  and  C_9
REMARK    6  A    between atoms: C_10  and  C_11
REMARK    7  A    between atoms: C_11  and  N_12
REMARK    8  A    between atoms: N_12  and  C_13
REMARK    9  A    between atoms: C_13  and  C_14
REMARK   10  A    between atoms: C_16  and  C_17
REMARK   11  A    between atoms: C_17  and  O_18
REMARK   12  A    between atoms: N_19  and  C_20
REMARK   13  A    between atoms: C_21  and  C_22
REMARK                            x       y       z     vdW  Elec       q    Type
REMARK                         _______ _______ _______ _____ _____    ______ ____
ROOT
ATOM      1  C   UNL     1       3.446   7.282  18.127  0.00  0.00    +0.000 C 
ATOM      2  C   UNL     1       4.195   6.833  16.856  0.00  0.00    +0.000 C 
ATOM      3  C   UNL     1       5.110   5.672  17.292  0.00  0.00    +0.000 C 
ATOM      4  N   UNL     1       4.951   5.675  18.748  0.00  0.00    +0.000 NA
ATOM      5  C   UNL     1       5.580   4.625  19.512  0.00  0.00    +0.000 C 
ATOM      6  C   UNL     1       3.587   6.091  19.110  0.00  0.00    +0.000 C 
ENDROOT
BRANCH   6   7
ATOM      7  C   UNL     1       2.550   4.977  19.102  0.00  0.00    +0.000 A 
ATOM      8  C   UNL     1       2.034   4.385  17.938  0.00  0.00    +0.000 A 
ATOM      9  C   UNL     1       1.136   3.314  17.988  0.00  0.00    +0.000 A 
ATOM     10  C   UNL     1       0.723   2.812  19.213  0.00  0.00    +0.000 A 
ATOM     11  C   UNL     1       1.197   3.391  20.387  0.00  0.00    +0.000 A 
ATOM     12  C   UNL     1       2.091   4.461  20.324  0.00  0.00    +0.000 A 
ATOM     13  F   UNL     1       2.528   4.985  21.478  0.00  0.00    +0.000 F 
ENDBRANCH   6   7
BRANCH   1  14
ATOM     14  C   UNL     1       2.032   7.843  17.924  0.00  0.00    +0.000 C 
BRANCH  14  15
ATOM     15  N   UNL     1       1.695   8.908  18.879  0.00  0.00    +0.000 NA
ATOM     16  H   UNL     1       0.886   8.629  19.433  0.00  0.00    +0.000 HD
BRANCH  15  17
ATOM     17  C   UNL     1       1.371  10.144  18.155  0.00  0.00    +0.000 C 
BRANCH  17  24
ATOM     18  C   UNL     1      -1.729   9.870  17.200  0.00  0.00    +0.000 C 
ATOM     19  C   UNL     1      -1.191  10.647  18.345  0.00  0.00    +0.000 A 
ATOM     20  N   UNL     1      -2.024  11.313  19.149  0.00  0.00    +0.000 NA
ATOM     21  N   UNL     1      -1.227  11.884  20.075  0.00  0.00    +0.000 N 
ATOM     22  C   UNL     1       0.098  11.551  19.912  0.00  0.00    +0.000 A 
ATOM     23  C   UNL     1       1.212  11.936  20.818  0.00  0.00    +0.000 C 
ATOM     24  C   UNL     1       0.161  10.774  18.761  0.00  0.00    +0.000 A 
BRANCH  21  25
ATOM     25  C   UNL     1      -1.847  12.744  21.083  0.00  0.00    +0.000 C 
ATOM     26  C   UNL     1      -3.190  13.296  20.597  0.00  0.00    +0.000 C 
ATOM     27  C   UNL     1      -2.009  12.035  22.429  0.00  0.00    +0.000 C 
ENDBRANCH  21  25
ENDBRANCH  17  24
ENDBRANCH  15  17
ENDBRANCH  14  15
ENDBRANCH   1  14
BRANCH   3  28
ATOM     28  C   UNL     1       4.813   4.374  16.498  0.00  0.00    +0.000 C 
BRANCH  28  29
ATOM     29  O   UNL     1       5.968   3.584  16.247  0.00  0.00    +0.000 OA
ATOM     30  H   UNL     1       5.688   2.661  16.190  0.00  0.00    +0.000 HD
ENDBRANCH  28  29
ENDBRANCH   3  28
TORSDOF 8
ENDMDL
