MODEL 1
REMARK VINA RESULT:      -7.7      0.000      0.000
REMARK  Name = 
REMARK  5 active torsions:
REMARK  status: ('A' for Active; 'I' for Inactive)
REMARK    1  A    between atoms: C_2  and  C_3
REMARK    2  A    between atoms: C_2  and  C_4
REMARK    3  A    between atoms: C_4  and  N_5
REMARK    4  A    between atoms: N_5  and  C_6
REMARK    5  A    between atoms: N_15  and  C_16
REMARK                            x       y       z     vdW  Elec       q    Type
REMARK                         _______ _______ _______ _____ _____    ______ ____
ROOT
ATOM      1  C   UNL     1      -0.473  11.153  19.475  0.00  0.00    +0.000 A 
ATOM      2  N   UNL     1      -1.154  11.836  20.427  0.00  0.00    +0.000 NA
ATOM      3  C   UNL     1      -1.083  11.434  21.703  0.00  0.00    +0.000 A 
ATOM      4  N   UNL     1      -0.406  10.391  22.182  0.00  0.00    +0.000 NA
ATOM      5  C   UNL     1       0.270   9.737  21.224  0.00  0.00    +0.000 A 
ATOM      6  S   UNL     1       1.176   8.348  21.628  0.00  0.00    +0.000 S 
ATOM      7  C   UNL     1       1.680   8.159  20.025  0.00  0.00    +0.000 A 
ATOM      8  C   UNL     1       2.540   7.098  19.581  0.00  0.00    +0.000 A 
ATOM      9  O   UNL     1       2.969   6.221  20.332  0.00  0.00    +0.000 OA
ATOM     10  N   UNL     1       2.786   7.146  18.201  0.00  0.00    +0.000 N 
ATOM     11  C   UNL     1       2.215   8.150  17.423  0.00  0.00    +0.000 A 
ATOM     12  N   UNL     1       1.445   9.119  17.818  0.00  0.00    +0.000 NA
ATOM     13  C   UNL     1       1.157   9.111  19.193  0.00  0.00    +0.000 A 
ATOM     14  C   UNL     1       0.317  10.054  19.870  0.00  0.00    +0.000 A 
ENDROOT
BRANCH  10  15
ATOM     15  C   UNL     1       3.595   6.144  17.597  0.00  0.00    +0.000 A 
ATOM     16  C   UNL     1       4.801   6.488  16.965  0.00  0.00    +0.000 A 
ATOM     17  C   UNL     1       5.559   5.508  16.317  0.00  0.00    +0.000 A 
ATOM     18  C   UNL     1       5.138   4.183  16.335  0.00  0.00    +0.000 A 
ATOM     19  F   UNL     1       5.871   3.250  15.716  0.00  0.00    +0.000 F 
ATOM     20  C   UNL     1       3.963   3.819  16.978  0.00  0.00    +0.000 A 
ATOM     21  C   UNL     1       3.184   4.800  17.596  0.00  0.00    +0.000 A 
ENDBRANCH  10  15
BRANCH   1  22
ATOM     22  N   UNL     1      -0.620  11.518  18.137  0.00  0.00    +0.000 N 
ATOM     23  H   UNL     1       0.094  12.193  17.876  0.00  0.00    +0.000 HD
BRANCH  22  24
ATOM     24  C   UNL     1      -1.960  11.919  17.756  0.00  0.00    +0.000 C 
BRANCH  24  26
ATOM     25  C   UNL     1      -3.013   9.650  17.725  0.00  0.00    +0.000 C 
ATOM     26  C   UNL     1      -2.611  10.747  17.062  0.00  0.00    +0.000 C 
ATOM     27  C   UNL     1      -2.731  10.843  15.563  0.00  0.00    +0.000 C 
ENDBRANCH  24  26
ENDBRANCH  22  24
ENDBRANCH   1  22
TORSDOF 4
ENDMDL
MODEL 2
REMARK VINA RESULT:      -7.6      3.437      7.942
REMARK  Name = 
REMARK  5 active torsions:
REMARK  status: ('A' for Active; 'I' for Inactive)
REMARK    1  A    between atoms: C_2  and  C_3
REMARK    2  A    between atoms: C_2  and  C_4
REMARK    3  A    between atoms: C_4  and  N_5
REMARK    4  A    between atoms: N_5  and  C_6
REMARK    5  A    between atoms: N_15  and  C_16
REMARK                            x       y       z     vdW  Elec       q    Type
REMARK                         _______ _______ _______ _____ _____    ______ ____
ROOT
ATOM      1  C   UNL     1       4.512   5.215  17.871  0.00  0.00    +0.000 A 
ATOM      2  N   UNL     1       4.945   3.953  18.102  0.00  0.00    +0.000 NA
ATOM      3  C   UNL     1       4.434   3.259  19.129  0.00  0.00    +0.000 A 
ATOM      4  N   UNL     1       3.519   3.674  20.004  0.00  0.00    +0.000 NA
ATOM      5  C   UNL     1       3.097   4.922  19.750  0.00  0.00    +0.000 A 
ATOM      6  S   UNL     1       1.946   5.651  20.778  0.00  0.00    +0.000 S 
ATOM      7  C   UNL     1       1.943   7.061  19.845  0.00  0.00    +0.000 A 
ATOM      8  C   UNL     1       1.138   8.211  20.145  0.00  0.00    +0.000 A 
ATOM      9  O   UNL     1       0.393   8.276  21.124  0.00  0.00    +0.000 OA
ATOM     10  N   UNL     1       1.338   9.261  19.235  0.00  0.00    +0.000 N 
ATOM     11  C   UNL     1       2.240   9.113  18.185  0.00  0.00    +0.000 A 
ATOM     12  N   UNL     1       2.964   8.073  17.901  0.00  0.00    +0.000 NA
ATOM     13  C   UNL     1       2.810   6.995  18.789  0.00  0.00    +0.000 A 
ATOM     14  C   UNL     1       3.509   5.748  18.708  0.00  0.00    +0.000 A 
ENDROOT
BRANCH  10  15
ATOM     15  C   UNL     1       0.637  10.486  19.412  0.00  0.00    +0.000 A 
ATOM     16  C   UNL     1      -0.609  10.689  18.800  0.00  0.00    +0.000 A 
ATOM     17  C   UNL     1      -1.263  11.919  18.924  0.00  0.00    +0.000 A 
ATOM     18  C   UNL     1      -0.693  12.929  19.691  0.00  0.00    +0.000 A 
ATOM     19  F   UNL     1      -1.325  14.103  19.809  0.00  0.00    +0.000 F 
ATOM     20  C   UNL     1       0.526  12.740  20.326  0.00  0.00    +0.000 A 
ATOM     21  C   UNL     1       1.198  11.525  20.176  0.00  0.00    +0.000 A 
ENDBRANCH  10  15
BRANCH   1  22
ATOM     22  N   UNL     1       5.108   5.967  16.859  0.00  0.00    +0.000 N 
ATOM     23  H   UNL     1       4.565   5.898  16.002  0.00  0.00    +0.000 HD
BRANCH  22  24
ATOM     24  C   UNL     1       6.524   5.718  16.666  0.00  0.00    +0.000 C 
BRANCH  24  26
ATOM     25  C   UNL     1       7.501   7.897  17.415  0.00  0.00    +0.000 C 
ATOM     26  C   UNL     1       7.281   6.590  17.639  0.00  0.00    +0.000 C 
ATOM     27  C   UNL     1       7.839   5.900  18.856  0.00  0.00    +0.000 C 
ENDBRANCH  24  26
ENDBRANCH  22  24
ENDBRANCH   1  22
TORSDOF 4
ENDMDL
MODEL 3
REMARK VINA RESULT:      -7.6      0.528      1.150
REMARK  Name = 
REMARK  5 active torsions:
REMARK  status: ('A' for Active; 'I' for Inactive)
REMARK    1  A    between atoms: C_2  and  C_3
REMARK    2  A    between atoms: C_2  and  C_4
REMARK    3  A    between atoms: C_4  and  N_5
REMARK    4  A    between atoms: N_5  and  C_6
REMARK    5  A    between atoms: N_15  and  C_16
REMARK                            x       y       z     vdW  Elec       q    Type
REMARK                         _______ _______ _______ _____ _____    ______ ____
ROOT
ATOM      1  C   UNL     1      -0.461  11.386  19.731  0.00  0.00    +0.000 A 
ATOM      2  N   UNL     1      -1.131  12.059  20.697  0.00  0.00    +0.000 NA
ATOM      3  C   UNL     1      -1.118  11.594  21.953  0.00  0.00    +0.000 A 
ATOM      4  N   UNL     1      -0.511  10.495  22.398  0.00  0.00    +0.000 NA
ATOM      5  C   UNL     1       0.156   9.851  21.428  0.00  0.00    +0.000 A 
ATOM      6  S   UNL     1       0.976   8.397  21.787  0.00  0.00    +0.000 S 
ATOM      7  C   UNL     1       1.514   8.257  20.189  0.00  0.00    +0.000 A 
ATOM      8  C   UNL     1       2.329   7.173  19.718  0.00  0.00    +0.000 A 
ATOM      9  O   UNL     1       2.689   6.239  20.435  0.00  0.00    +0.000 OA
ATOM     10  N   UNL     1       2.616   7.273  18.348  0.00  0.00    +0.000 N 
ATOM     11  C   UNL     1       2.121   8.341  17.605  0.00  0.00    +0.000 A 
ATOM     12  N   UNL     1       1.392   9.331  18.027  0.00  0.00    +0.000 NA
ATOM     13  C   UNL     1       1.066   9.274  19.392  0.00  0.00    +0.000 A 
ATOM     14  C   UNL     1       0.259  10.228  20.092  0.00  0.00    +0.000 A 
ENDROOT
BRANCH  10  15
ATOM     15  C   UNL     1       3.388   6.258  17.717  0.00  0.00    +0.000 A 
ATOM     16  C   UNL     1       2.953   4.924  17.724  0.00  0.00    +0.000 A 
ATOM     17  C   UNL     1       3.748   3.922  17.159  0.00  0.00    +0.000 A 
ATOM     18  C   UNL     1       4.953   4.256  16.551  0.00  0.00    +0.000 A 
ATOM     19  F   UNL     1       5.707   3.293  16.008  0.00  0.00    +0.000 F 
ATOM     20  C   UNL     1       5.387   5.573  16.508  0.00  0.00    +0.000 A 
ATOM     21  C   UNL     1       4.613   6.572  17.103  0.00  0.00    +0.000 A 
ENDBRANCH  10  15
BRANCH   1  22
ATOM     22  N   UNL     1      -0.550  11.821  18.409  0.00  0.00    +0.000 N 
ATOM     23  H   UNL     1       0.101  12.584  18.244  0.00  0.00    +0.000 HD
BRANCH  22  24
ATOM     24  C   UNL     1      -1.896  12.101  17.947  0.00  0.00    +0.000 C 
BRANCH  24  26
ATOM     25  C   UNL     1      -1.813   9.858  16.842  0.00  0.00    +0.000 C 
ATOM     26  C   UNL     1      -2.511  10.796  17.503  0.00  0.00    +0.000 C 
ATOM     27  C   UNL     1      -3.981  10.624  17.785  0.00  0.00    +0.000 C 
ENDBRANCH  24  26
ENDBRANCH  22  24
ENDBRANCH   1  22
TORSDOF 4
ENDMDL
MODEL 4
REMARK VINA RESULT:      -7.5      3.428      7.876
REMARK  Name = 
REMARK  5 active torsions:
REMARK  status: ('A' for Active; 'I' for Inactive)
REMARK    1  A    between atoms: C_2  and  C_3
REMARK    2  A    between atoms: C_2  and  C_4
REMARK    3  A    between atoms: C_4  and  N_5
REMARK    4  A    between atoms: N_5  and  C_6
REMARK    5  A    between atoms: N_15  and  C_16
REMARK                            x       y       z     vdW  Elec       q    Type
REMARK                         _______ _______ _______ _____ _____    ______ ____
ROOT
ATOM      1  C   UNL     1       4.536   5.092  17.927  0.00  0.00    +0.000 A 
ATOM      2  N   UNL     1       4.937   3.829  18.208  0.00  0.00    +0.000 NA
ATOM      3  C   UNL     1       4.390   3.182  19.246  0.00  0.00    +0.000 A 
ATOM      4  N   UNL     1       3.467   3.644  20.088  0.00  0.00    +0.000 NA
ATOM      5  C   UNL     1       3.076   4.891  19.783  0.00  0.00    +0.000 A 
ATOM      6  S   UNL     1       1.920   5.678  20.762  0.00  0.00    +0.000 S 
ATOM      7  C   UNL     1       1.966   7.056  19.782  0.00  0.00    +0.000 A 
ATOM      8  C   UNL     1       1.180   8.232  20.027  0.00  0.00    +0.000 A 
ATOM      9  O   UNL     1       0.417   8.344  20.987  0.00  0.00    +0.000 OA
ATOM     10  N   UNL     1       1.421   9.246  19.087  0.00  0.00    +0.000 N 
ATOM     11  C   UNL     1       2.341   9.045  18.063  0.00  0.00    +0.000 A 
ATOM     12  N   UNL     1       3.049   7.981  17.828  0.00  0.00    +0.000 NA
ATOM     13  C   UNL     1       2.853   6.937  18.748  0.00  0.00    +0.000 A 
ATOM     14  C   UNL     1       3.528   5.673  18.723  0.00  0.00    +0.000 A 
ENDROOT
BRANCH  10  15
ATOM     15  C   UNL     1       0.743  10.491  19.208  0.00  0.00    +0.000 A 
ATOM     16  C   UNL     1       1.247  11.498  20.046  0.00  0.00    +0.000 A 
ATOM     17  C   UNL     1       0.541  12.694  20.210  0.00  0.00    +0.000 A 
ATOM     18  C   UNL     1      -0.640  12.901  19.508  0.00  0.00    +0.000 A 
ATOM     19  F   UNL     1      -1.309  14.050  19.667  0.00  0.00    +0.000 F 
ATOM     20  C   UNL     1      -1.141  11.929  18.653  0.00  0.00    +0.000 A 
ATOM     21  C   UNL     1      -0.458  10.719  18.513  0.00  0.00    +0.000 A 
ENDBRANCH  10  15
BRANCH   1  22
ATOM     22  N   UNL     1       5.169   5.797  16.903  0.00  0.00    +0.000 N 
ATOM     23  H   UNL     1       4.649   5.701  16.035  0.00  0.00    +0.000 HD
BRANCH  22  24
ATOM     24  C   UNL     1       6.587   5.525  16.759  0.00  0.00    +0.000 C 
BRANCH  24  26
ATOM     25  C   UNL     1       7.814   5.923  18.903  0.00  0.00    +0.000 C 
ATOM     26  C   UNL     1       7.325   6.398  17.745  0.00  0.00    +0.000 C 
ATOM     27  C   UNL     1       7.431   7.859  17.391  0.00  0.00    +0.000 C 
ENDBRANCH  24  26
ENDBRANCH  22  24
ENDBRANCH   1  22
TORSDOF 4
ENDMDL
MODEL 5
REMARK VINA RESULT:      -7.4      1.195      1.724
REMARK  Name = 
REMARK  5 active torsions:
REMARK  status: ('A' for Active; 'I' for Inactive)
REMARK    1  A    between atoms: C_2  and  C_3
REMARK    2  A    between atoms: C_2  and  C_4
REMARK    3  A    between atoms: C_4  and  N_5
REMARK    4  A    between atoms: N_5  and  C_6
REMARK    5  A    between atoms: N_15  and  C_16
REMARK                            x       y       z     vdW  Elec       q    Type
REMARK                         _______ _______ _______ _____ _____    ______ ____
ROOT
ATOM      1  C   UNL     1      -1.664  12.063  19.768  0.00  0.00    +0.000 A 
ATOM      2  N   UNL     1      -2.328  12.803  20.689  0.00  0.00    +0.000 NA
ATOM      3  C   UNL     1      -2.149  12.547  21.992  0.00  0.00    +0.000 A 
ATOM      4  N   UNL     1      -1.375  11.605  22.529  0.00  0.00    +0.000 NA
ATOM      5  C   UNL     1      -0.718  10.893  21.599  0.00  0.00    +0.000 A 
ATOM      6  S   UNL     1       0.304   9.614  22.081  0.00  0.00    +0.000 S 
ATOM      7  C   UNL     1       0.716   9.282  20.475  0.00  0.00    +0.000 A 
ATOM      8  C   UNL     1       1.617   8.233  20.086  0.00  0.00    +0.000 A 
ATOM      9  O   UNL     1       2.151   7.470  20.891  0.00  0.00    +0.000 OA
ATOM     10  N   UNL     1       1.770   8.146  18.694  0.00  0.00    +0.000 N 
ATOM     11  C   UNL     1       1.085   9.022  17.858  0.00  0.00    +0.000 A 
ATOM     12  N   UNL     1       0.277   9.980  18.202  0.00  0.00    +0.000 NA
ATOM     13  C   UNL     1       0.079  10.105  19.587  0.00  0.00    +0.000 A 
ATOM     14  C   UNL     1      -0.778  11.063  20.219  0.00  0.00    +0.000 A 
ENDROOT
BRANCH  10  15
ATOM     15  C   UNL     1       2.606   7.135  18.142  0.00  0.00    +0.000 A 
ATOM     16  C   UNL     1       2.224   5.786  18.197  0.00  0.00    +0.000 A 
ATOM     17  C   UNL     1       3.079   4.792  17.712  0.00  0.00    +0.000 A 
ATOM     18  C   UNL     1       4.293   5.146  17.135  0.00  0.00    +0.000 A 
ATOM     19  F   UNL     1       5.105   4.190  16.668  0.00  0.00    +0.000 F 
ATOM     20  C   UNL     1       4.677   6.477  17.045  0.00  0.00    +0.000 A 
ATOM     21  C   UNL     1       3.842   7.470  17.561  0.00  0.00    +0.000 A 
ENDBRANCH  10  15
BRANCH   1  22
ATOM     22  N   UNL     1      -1.920  12.271  18.413  0.00  0.00    +0.000 N 
ATOM     23  H   UNL     1      -1.662  13.217  18.147  0.00  0.00    +0.000 HD
BRANCH  22  24
ATOM     24  C   UNL     1      -3.250  11.891  17.976  0.00  0.00    +0.000 C 
BRANCH  24  26
ATOM     25  C   UNL     1      -3.284   9.412  17.637  0.00  0.00    +0.000 C 
ATOM     26  C   UNL     1      -3.119  10.646  17.132  0.00  0.00    +0.000 C 
ATOM     27  C   UNL     1      -2.726  10.857  15.693  0.00  0.00    +0.000 C 
ENDBRANCH  24  26
ENDBRANCH  22  24
ENDBRANCH   1  22
TORSDOF 4
ENDMDL
MODEL 6
REMARK VINA RESULT:      -7.4      4.069      8.285
REMARK  Name = 
REMARK  5 active torsions:
REMARK  status: ('A' for Active; 'I' for Inactive)
REMARK    1  A    between atoms: C_2  and  C_3
REMARK    2  A    between atoms: C_2  and  C_4
REMARK    3  A    between atoms: C_4  and  N_5
REMARK    4  A    between atoms: N_5  and  C_6
REMARK    5  A    between atoms: N_15  and  C_16
REMARK                            x       y       z     vdW  Elec       q    Type
REMARK                         _______ _______ _______ _____ _____    ______ ____
ROOT
ATOM      1  C   UNL     1       2.705   6.114  19.721  0.00  0.00    +0.000 A 
ATOM      2  N   UNL     1       3.561   5.479  18.885  0.00  0.00    +0.000 NA
ATOM      3  C   UNL     1       3.964   6.094  17.765  0.00  0.00    +0.000 A 
ATOM      4  N   UNL     1       3.607   7.304  17.338  0.00  0.00    +0.000 NA
ATOM      5  C   UNL     1       2.768   7.920  18.187  0.00  0.00    +0.000 A 
ATOM      6  S   UNL     1       2.166   9.470  17.805  0.00  0.00    +0.000 S 
ATOM      7  C   UNL     1       1.289   9.531  19.250  0.00  0.00    +0.000 A 
ATOM      8  C   UNL     1       0.467  10.644  19.634  0.00  0.00    +0.000 A 
ATOM      9  O   UNL     1       0.315  11.644  18.931  0.00  0.00    +0.000 OA
ATOM     10  N   UNL     1      -0.178  10.437  20.863  0.00  0.00    +0.000 N 
ATOM     11  C   UNL     1       0.016   9.250  21.564  0.00  0.00    +0.000 A 
ATOM     12  N   UNL     1       0.766   8.243  21.228  0.00  0.00    +0.000 NA
ATOM     13  C   UNL     1       1.427   8.394  19.998  0.00  0.00    +0.000 A 
ATOM     14  C   UNL     1       2.290   7.422  19.396  0.00  0.00    +0.000 A 
ENDROOT
BRANCH  10  15
ATOM     15  C   UNL     1      -1.057  11.434  21.371  0.00  0.00    +0.000 A 
ATOM     16  C   UNL     1      -0.954  11.862  22.703  0.00  0.00    +0.000 A 
ATOM     17  C   UNL     1      -1.861  12.795  23.215  0.00  0.00    +0.000 A 
ATOM     18  C   UNL     1      -2.842  13.329  22.388  0.00  0.00    +0.000 A 
ATOM     19  F   UNL     1      -3.706  14.224  22.883  0.00  0.00    +0.000 F 
ATOM     20  C   UNL     1      -2.944  12.940  21.060  0.00  0.00    +0.000 A 
ATOM     21  C   UNL     1      -2.062  11.982  20.555  0.00  0.00    +0.000 A 
ENDBRANCH  10  15
BRANCH   1  22
ATOM     22  N   UNL     1       2.216   5.438  20.839  0.00  0.00    +0.000 N 
ATOM     23  H   UNL     1       2.965   4.925  21.296  0.00  0.00    +0.000 HD
BRANCH  22  24
ATOM     24  C   UNL     1       1.030   4.639  20.601  0.00  0.00    +0.000 C 
BRANCH  24  26
ATOM     25  C   UNL     1       2.038   2.610  21.663  0.00  0.00    +0.000 C 
ATOM     26  C   UNL     1       1.445   3.187  20.604  0.00  0.00    +0.000 C 
ATOM     27  C   UNL     1       1.218   2.427  19.323  0.00  0.00    +0.000 C 
ENDBRANCH  24  26
ENDBRANCH  22  24
ENDBRANCH   1  22
TORSDOF 4
ENDMDL
MODEL 7
REMARK VINA RESULT:      -7.4      1.232      1.317
REMARK  Name = 
REMARK  5 active torsions:
REMARK  status: ('A' for Active; 'I' for Inactive)
REMARK    1  A    between atoms: C_2  and  C_3
REMARK    2  A    between atoms: C_2  and  C_4
REMARK    3  A    between atoms: C_4  and  N_5
REMARK    4  A    between atoms: N_5  and  C_6
REMARK    5  A    between atoms: N_15  and  C_16
REMARK                            x       y       z     vdW  Elec       q    Type
REMARK                         _______ _______ _______ _____ _____    ______ ____
ROOT
ATOM      1  C   UNL     1       0.083  11.791  19.717  0.00  0.00    +0.000 A 
ATOM      2  N   UNL     1      -0.423  12.710  20.573  0.00  0.00    +0.000 NA
ATOM      3  C   UNL     1      -0.497  12.422  21.880  0.00  0.00    +0.000 A 
ATOM      4  N   UNL     1      -0.130  11.288  22.476  0.00  0.00    +0.000 NA
ATOM      5  C   UNL     1       0.379  10.397  21.611  0.00  0.00    +0.000 A 
ATOM      6  S   UNL     1       0.879   8.865  22.172  0.00  0.00    +0.000 S 
ATOM      7  C   UNL     1       1.361   8.406  20.617  0.00  0.00    +0.000 A 
ATOM      8  C   UNL     1       1.927   7.123  20.307  0.00  0.00    +0.000 A 
ATOM      9  O   UNL     1       2.090   6.238  21.147  0.00  0.00    +0.000 OA
ATOM     10  N   UNL     1       2.216   6.980  18.941  0.00  0.00    +0.000 N 
ATOM     11  C   UNL     1       1.951   8.021  18.057  0.00  0.00    +0.000 A 
ATOM     12  N   UNL     1       1.449   9.188  18.331  0.00  0.00    +0.000 NA
ATOM     13  C   UNL     1       1.130   9.380  19.686  0.00  0.00    +0.000 A 
ATOM     14  C   UNL     1       0.547  10.566  20.239  0.00  0.00    +0.000 A 
ENDROOT
BRANCH  10  15
ATOM     15  C   UNL     1       2.753   5.752  18.463  0.00  0.00    +0.000 A 
ATOM     16  C   UNL     1       4.134   5.509  18.518  0.00  0.00    +0.000 A 
ATOM     17  C   UNL     1       4.662   4.328  17.987  0.00  0.00    +0.000 A 
ATOM     18  C   UNL     1       3.811   3.374  17.441  0.00  0.00    +0.000 A 
ATOM     19  F   UNL     1       4.322   2.244  16.938  0.00  0.00    +0.000 F 
ATOM     20  C   UNL     1       2.439   3.583  17.402  0.00  0.00    +0.000 A 
ATOM     21  C   UNL     1       1.911   4.777  17.899  0.00  0.00    +0.000 A 
ENDBRANCH  10  15
BRANCH   1  22
ATOM     22  N   UNL     1       0.075  12.057  18.348  0.00  0.00    +0.000 N 
ATOM     23  H   UNL     1       0.885  12.616  18.093  0.00  0.00    +0.000 HD
BRANCH  22  24
ATOM     24  C   UNL     1      -1.174  12.583  17.834  0.00  0.00    +0.000 C 
BRANCH  24  26
ATOM     25  C   UNL     1      -3.357  11.519  18.437  0.00  0.00    +0.000 C 
ATOM     26  C   UNL     1      -2.174  11.452  17.805  0.00  0.00    +0.000 C 
ATOM     27  C   UNL     1      -1.745  10.204  17.077  0.00  0.00    +0.000 C 
ENDBRANCH  24  26
ENDBRANCH  22  24
ENDBRANCH   1  22
TORSDOF 4
ENDMDL
MODEL 8
REMARK VINA RESULT:      -7.4      3.438      7.880
REMARK  Name = 
REMARK  5 active torsions:
REMARK  status: ('A' for Active; 'I' for Inactive)
REMARK    1  A    between atoms: C_2  and  C_3
REMARK    2  A    between atoms: C_2  and  C_4
REMARK    3  A    between atoms: C_4  and  N_5
REMARK    4  A    between atoms: N_5  and  C_6
REMARK    5  A    between atoms: N_15  and  C_16
REMARK                            x       y       z     vdW  Elec       q    Type
REMARK                         _______ _______ _______ _____ _____    ______ ____
ROOT
ATOM      1  C   UNL     1       3.934   4.973  18.016  0.00  0.00    +0.000 A 
ATOM      2  N   UNL     1       4.209   3.724  18.462  0.00  0.00    +0.000 NA
ATOM      3  C   UNL     1       3.701   3.316  19.632  0.00  0.00    +0.000 A 
ATOM      4  N   UNL     1       2.931   4.017  20.464  0.00  0.00    +0.000 NA
ATOM      5  C   UNL     1       2.662   5.246  19.998  0.00  0.00    +0.000 A 
ATOM      6  S   UNL     1       1.716   6.317  20.932  0.00  0.00    +0.000 S 
ATOM      7  C   UNL     1       1.823   7.515  19.744  0.00  0.00    +0.000 A 
ATOM      8  C   UNL     1       1.211   8.809  19.862  0.00  0.00    +0.000 A 
ATOM      9  O   UNL     1       0.571   9.163  20.853  0.00  0.00    +0.000 OA
ATOM     10  N   UNL     1       1.472   9.631  18.755  0.00  0.00    +0.000 N 
ATOM     11  C   UNL     1       2.250   9.159  17.702  0.00  0.00    +0.000 A 
ATOM     12  N   UNL     1       2.798   7.987  17.582  0.00  0.00    +0.000 NA
ATOM     13  C   UNL     1       2.577   7.127  18.671  0.00  0.00    +0.000 A 
ATOM     14  C   UNL     1       3.090   5.795  18.792  0.00  0.00    +0.000 A 
ENDROOT
BRANCH  10  15
ATOM     15  C   UNL     1       0.963  10.959  18.732  0.00  0.00    +0.000 A 
ATOM     16  C   UNL     1      -0.404  11.195  18.520  0.00  0.00    +0.000 A 
ATOM     17  C   UNL     1      -0.887  12.504  18.433  0.00  0.00    +0.000 A 
ATOM     18  C   UNL     1      -0.016  13.574  18.599  0.00  0.00    +0.000 A 
ATOM     19  F   UNL     1      -0.486  14.825  18.519  0.00  0.00    +0.000 F 
ATOM     20  C   UNL     1       1.334  13.363  18.838  0.00  0.00    +0.000 A 
ATOM     21  C   UNL     1       1.827  12.057  18.890  0.00  0.00    +0.000 A 
ENDBRANCH  10  15
BRANCH   1  22
ATOM     22  N   UNL     1       4.536   5.427  16.843  0.00  0.00    +0.000 N 
ATOM     23  H   UNL     1       3.932   6.096  16.373  0.00  0.00    +0.000 HD
BRANCH  22  24
ATOM     24  C   UNL     1       5.033   4.384  15.967  0.00  0.00    +0.000 C 
BRANCH  24  26
ATOM     25  C   UNL     1       6.981   4.870  14.475  0.00  0.00    +0.000 C 
ATOM     26  C   UNL     1       6.495   4.658  15.709  0.00  0.00    +0.000 C 
ATOM     27  C   UNL     1       7.402   4.617  16.911  0.00  0.00    +0.000 C 
ENDBRANCH  24  26
ENDBRANCH  22  24
ENDBRANCH   1  22
TORSDOF 4
ENDMDL
MODEL 9
REMARK VINA RESULT:      -7.4      3.480      7.843
REMARK  Name = 
REMARK  5 active torsions:
REMARK  status: ('A' for Active; 'I' for Inactive)
REMARK    1  A    between atoms: C_2  and  C_3
REMARK    2  A    between atoms: C_2  and  C_4
REMARK    3  A    between atoms: C_4  and  N_5
REMARK    4  A    between atoms: N_5  and  C_6
REMARK    5  A    between atoms: N_15  and  C_16
REMARK                            x       y       z     vdW  Elec       q    Type
REMARK                         _______ _______ _______ _____ _____    ______ ____
ROOT
ATOM      1  C   UNL     1       3.908   5.246  17.922  0.00  0.00    +0.000 A 
ATOM      2  N   UNL     1       4.205   3.989  18.331  0.00  0.00    +0.000 NA
ATOM      3  C   UNL     1       3.716   3.543  19.496  0.00  0.00    +0.000 A 
ATOM      4  N   UNL     1       2.947   4.211  20.355  0.00  0.00    +0.000 NA
ATOM      5  C   UNL     1       2.656   5.449  19.924  0.00  0.00    +0.000 A 
ATOM      6  S   UNL     1       1.706   6.481  20.897  0.00  0.00    +0.000 S 
ATOM      7  C   UNL     1       1.784   7.712  19.740  0.00  0.00    +0.000 A 
ATOM      8  C   UNL     1       1.156   8.994  19.900  0.00  0.00    +0.000 A 
ATOM      9  O   UNL     1       0.523   9.313  20.906  0.00  0.00    +0.000 OA
ATOM     10  N   UNL     1       1.394   9.848  18.812  0.00  0.00    +0.000 N 
ATOM     11  C   UNL     1       2.166   9.415  17.738  0.00  0.00    +0.000 A 
ATOM     12  N   UNL     1       2.728   8.254  17.581  0.00  0.00    +0.000 NA
ATOM     13  C   UNL     1       2.530   7.363  18.649  0.00  0.00    +0.000 A 
ATOM     14  C   UNL     1       3.063   6.035  18.729  0.00  0.00    +0.000 A 
ENDROOT
BRANCH  10  15
ATOM     15  C   UNL     1       0.867  11.170  18.829  0.00  0.00    +0.000 A 
ATOM     16  C   UNL     1       1.676  12.255  19.198  0.00  0.00    +0.000 A 
ATOM     17  C   UNL     1       1.135  13.542  19.276  0.00  0.00    +0.000 A 
ATOM     18  C   UNL     1      -0.198  13.752  18.946  0.00  0.00    +0.000 A 
ATOM     19  F   UNL     1      -0.709  14.987  19.019  0.00  0.00    +0.000 F 
ATOM     20  C   UNL     1      -1.009  12.697  18.552  0.00  0.00    +0.000 A 
ATOM     21  C   UNL     1      -0.482  11.404  18.507  0.00  0.00    +0.000 A 
ENDBRANCH  10  15
BRANCH   1  22
ATOM     22  N   UNL     1       4.491   5.739  16.755  0.00  0.00    +0.000 N 
ATOM     23  H   UNL     1       4.450   5.039  16.018  0.00  0.00    +0.000 HD
BRANCH  22  24
ATOM     24  C   UNL     1       5.808   6.320  16.927  0.00  0.00    +0.000 C 
BRANCH  24  26
ATOM     25  C   UNL     1       6.980   4.898  15.234  0.00  0.00    +0.000 C 
ATOM     26  C   UNL     1       6.826   5.285  16.511  0.00  0.00    +0.000 C 
ATOM     27  C   UNL     1       7.624   4.654  17.622  0.00  0.00    +0.000 C 
ENDBRANCH  24  26
ENDBRANCH  22  24
ENDBRANCH   1  22
TORSDOF 4
ENDMDL
