MODEL 1
REMARK VINA RESULT:      -8.0      0.000      0.000
REMARK  Name = 
REMARK  7 active torsions:
REMARK  status: ('A' for Active; 'I' for Inactive)
REMARK    1  A    between atoms: C_1  and  O_2
REMARK    2  A    between atoms: O_2  and  C_3
REMARK    3  A    between atoms: C_8  and  N_9
REMARK    4  A    between atoms: N_12  and  C_13
REMARK    5  A    between atoms: C_13  and  C_14
REMARK    6  A    between atoms: C_14  and  N_15
REMARK    7  A    between atoms: C_16  and  C_18
REMARK                            x       y       z     vdW  Elec       q    Type
REMARK                         _______ _______ _______ _____ _____    ______ ____
ROOT
ATOM      1  C   UNL     1       7.519   7.612  17.050  0.00  0.00    +0.000 C 
ENDROOT
BRANCH   1   5
ATOM      2  N   UNL     1       4.791   5.224  17.833  0.00  0.00    +0.000 N 
ATOM      3  C   UNL     1       5.619   5.902  18.836  0.00  0.00    +0.000 C 
ATOM      4  C   UNL     1       7.107   5.657  18.498  0.00  0.00    +0.000 C 
ATOM      5  N   UNL     1       7.522   6.140  17.150  0.00  0.00    +0.000 NA
ATOM      6  C   UNL     1       6.602   5.529  16.153  0.00  0.00    +0.000 C 
ATOM      7  C   UNL     1       5.078   5.632  16.448  0.00  0.00    +0.000 C 
BRANCH   2  13
ATOM      8  C   UNL     1       2.789   4.687  19.195  0.00  0.00    +0.000 A 
ATOM      9  C   UNL     1       1.760   3.780  19.507  0.00  0.00    +0.000 A 
ATOM     10  C   UNL     1       1.628   2.583  18.813  0.00  0.00    +0.000 A 
ATOM     11  C   UNL     1       2.529   2.277  17.805  0.00  0.00    +0.000 A 
ATOM     12  C   UNL     1       3.559   3.171  17.495  0.00  0.00    +0.000 A 
ATOM     13  C   UNL     1       3.733   4.395  18.173  0.00  0.00    +0.000 A 
BRANCH   8  15
ATOM     14  C   UNL     1       2.031   6.866  19.749  0.00  0.00    +0.000 C 
ATOM     15  O   UNL     1       2.975   5.820  19.962  0.00  0.00    +0.000 OA
ENDBRANCH   8  15
ENDBRANCH   2  13
ENDBRANCH   1   5
BRANCH   1  16
ATOM     16  C   UNL     1       8.232   8.300  18.233  0.00  0.00    +0.000 C 
BRANCH  16  17
ATOM     17  N   UNL     1       8.607   9.662  17.941  0.00  0.00    +0.000 N 
ATOM     18  C   UNL     1       9.190  10.471  18.893  0.00  0.00    +0.000 C 
ATOM     19  O   UNL     1       9.387  10.117  20.052  0.00  0.00    +0.000 OA
ATOM     20  H   UNL     1       8.498  10.061  17.013  0.00  0.00    +0.000 HD
BRANCH  18  21
ATOM     21  C   UNL     1       9.552  11.806  18.403  0.00  0.00    +0.000 A 
ATOM     22  C   UNL     1      10.757  12.149  17.743  0.00  0.00    +0.000 A 
ATOM     23  C   UNL     1      10.674  13.498  17.523  0.00  0.00    +0.000 A 
ATOM     24  C   UNL     1      11.538  14.471  16.949  0.00  0.00    +0.000 A 
ATOM     25  C   UNL     1      11.163  15.765  16.937  0.00  0.00    +0.000 A 
ATOM     26  C   UNL     1       9.885  16.190  17.490  0.00  0.00    +0.000 A 
ATOM     27  C   UNL     1       9.064  15.263  18.009  0.00  0.00    +0.000 A 
ATOM     28  N   UNL     1       9.447  13.921  18.034  0.00  0.00    +0.000 N 
ATOM     29  N   UNL     1       8.743  12.875  18.546  0.00  0.00    +0.000 NA
ENDBRANCH  18  21
ENDBRANCH  16  17
ENDBRANCH   1  16
TORSDOF 6
ENDMDL
MODEL 2
REMARK VINA RESULT:      -8.0      0.890      1.293
REMARK  Name = 
REMARK  7 active torsions:
REMARK  status: ('A' for Active; 'I' for Inactive)
REMARK    1  A    between atoms: C_1  and  O_2
REMARK    2  A    between atoms: O_2  and  C_3
REMARK    3  A    between atoms: C_8  and  N_9
REMARK    4  A    between atoms: N_12  and  C_13
REMARK    5  A    between atoms: C_13  and  C_14
REMARK    6  A    between atoms: C_14  and  N_15
REMARK    7  A    between atoms: C_16  and  C_18
REMARK                            x       y       z     vdW  Elec       q    Type
REMARK                         _______ _______ _______ _____ _____    ______ ____
ROOT
ATOM      1  C   UNL     1       7.039   8.186  17.610  0.00  0.00    +0.000 C 
ENDROOT
BRANCH   1   5
ATOM      2  N   UNL     1       4.755   5.299  18.059  0.00  0.00    +0.000 N 
ATOM      3  C   UNL     1       5.915   5.583  18.908  0.00  0.00    +0.000 C 
ATOM      4  C   UNL     1       7.159   5.753  18.008  0.00  0.00    +0.000 C 
ATOM      5  N   UNL     1       7.045   6.843  16.997  0.00  0.00    +0.000 NA
ATOM      6  C   UNL     1       5.804   6.601  16.215  0.00  0.00    +0.000 C 
ATOM      7  C   UNL     1       4.507   6.318  17.026  0.00  0.00    +0.000 C 
BRANCH   2  13
ATOM      8  C   UNL     1       2.740   4.345  19.146  0.00  0.00    +0.000 A 
ATOM      9  C   UNL     1       1.920   3.225  19.379  0.00  0.00    +0.000 A 
ATOM     10  C   UNL     1       2.198   2.000  18.783  0.00  0.00    +0.000 A 
ATOM     11  C   UNL     1       3.302   1.881  17.954  0.00  0.00    +0.000 A 
ATOM     12  C   UNL     1       4.125   2.988  17.724  0.00  0.00    +0.000 A 
ATOM     13  C   UNL     1       3.884   4.249  18.308  0.00  0.00    +0.000 A 
BRANCH   8  15
ATOM     14  C   UNL     1       1.491   5.478  20.814  0.00  0.00    +0.000 C 
ATOM     15  O   UNL     1       2.517   5.524  19.827  0.00  0.00    +0.000 OA
ENDBRANCH   8  15
ENDBRANCH   2  13
ENDBRANCH   1   5
BRANCH   1  16
ATOM     16  C   UNL     1       8.403   8.583  18.211  0.00  0.00    +0.000 C 
BRANCH  16  17
ATOM     17  N   UNL     1       8.726   9.972  17.991  0.00  0.00    +0.000 N 
ATOM     18  C   UNL     1       9.230  10.766  18.999  0.00  0.00    +0.000 C 
ATOM     19  O   UNL     1       9.394  10.372  20.151  0.00  0.00    +0.000 OA
ATOM     20  H   UNL     1       8.637  10.405  17.076  0.00  0.00    +0.000 HD
BRANCH  18  21
ATOM     21  C   UNL     1       9.548  12.136  18.579  0.00  0.00    +0.000 A 
ATOM     22  C   UNL     1       8.713  13.268  18.740  0.00  0.00    +0.000 A 
ATOM     23  C   UNL     1       9.396  14.302  18.158  0.00  0.00    +0.000 A 
ATOM     24  C   UNL     1       9.122  15.681  17.940  0.00  0.00    +0.000 A 
ATOM     25  C   UNL     1      10.013  16.433  17.265  0.00  0.00    +0.000 A 
ATOM     26  C   UNL     1      11.257  15.869  16.763  0.00  0.00    +0.000 A 
ATOM     27  C   UNL     1      11.520  14.572  16.993  0.00  0.00    +0.000 A 
ATOM     28  N   UNL     1      10.600  13.782  17.684  0.00  0.00    +0.000 N 
ATOM     29  N   UNL     1      10.708  12.456  17.971  0.00  0.00    +0.000 NA
ENDBRANCH  18  21
ENDBRANCH  16  17
ENDBRANCH   1  16
TORSDOF 6
ENDMDL
MODEL 3
REMARK VINA RESULT:      -7.9      1.790      2.681
REMARK  Name = 
REMARK  7 active torsions:
REMARK  status: ('A' for Active; 'I' for Inactive)
REMARK    1  A    between atoms: C_1  and  O_2
REMARK    2  A    between atoms: O_2  and  C_3
REMARK    3  A    between atoms: C_8  and  N_9
REMARK    4  A    between atoms: N_12  and  C_13
REMARK    5  A    between atoms: C_13  and  C_14
REMARK    6  A    between atoms: C_14  and  N_15
REMARK    7  A    between atoms: C_16  and  C_18
REMARK                            x       y       z     vdW  Elec       q    Type
REMARK                         _______ _______ _______ _____ _____    ______ ____
ROOT
ATOM      1  C   UNL     1       7.398   6.541  17.146  0.00  0.00    +0.000 C 
ENDROOT
BRANCH   1   5
ATOM      2  N   UNL     1       4.248   5.101  18.473  0.00  0.00    +0.000 N 
ATOM      3  C   UNL     1       5.555   4.991  19.127  0.00  0.00    +0.000 C 
ATOM      4  C   UNL     1       6.573   4.425  18.111  0.00  0.00    +0.000 C 
ATOM      5  N   UNL     1       6.738   5.249  16.879  0.00  0.00    +0.000 NA
ATOM      6  C   UNL     1       5.387   5.444  16.287  0.00  0.00    +0.000 C 
ATOM      7  C   UNL     1       4.261   5.919  17.248  0.00  0.00    +0.000 C 
BRANCH   2  13
ATOM      8  C   UNL     1       2.491   3.365  18.697  0.00  0.00    +0.000 A 
ATOM      9  C   UNL     1       1.287   2.948  19.293  0.00  0.00    +0.000 A 
ATOM     10  C   UNL     1       0.652   3.736  20.247  0.00  0.00    +0.000 A 
ATOM     11  C   UNL     1       1.212   4.951  20.609  0.00  0.00    +0.000 A 
ATOM     12  C   UNL     1       2.405   5.374  20.014  0.00  0.00    +0.000 A 
ATOM     13  C   UNL     1       3.083   4.611  19.042  0.00  0.00    +0.000 A 
BRANCH   8  15
ATOM     14  C   UNL     1       3.810   1.491  18.083  0.00  0.00    +0.000 C 
ATOM     15  O   UNL     1       3.054   2.628  17.675  0.00  0.00    +0.000 OA
ENDBRANCH   8  15
ENDBRANCH   2  13
ENDBRANCH   1   5
BRANCH   1  16
ATOM     16  C   UNL     1       7.949   6.653  18.583  0.00  0.00    +0.000 C 
BRANCH  16  17
ATOM     17  N   UNL     1       8.677   7.878  18.807  0.00  0.00    +0.000 N 
ATOM     18  C   UNL     1       8.276   9.071  18.243  0.00  0.00    +0.000 C 
ATOM     19  O   UNL     1       7.315   9.170  17.484  0.00  0.00    +0.000 OA
ATOM     20  H   UNL     1       9.484   7.918  19.423  0.00  0.00    +0.000 HD
BRANCH  18  21
ATOM     21  C   UNL     1       9.105  10.221  18.623  0.00  0.00    +0.000 A 
ATOM     22  C   UNL     1       9.290  10.712  19.938  0.00  0.00    +0.000 A 
ATOM     23  C   UNL     1      10.092  11.813  19.799  0.00  0.00    +0.000 A 
ATOM     24  C   UNL     1      10.624  12.779  20.698  0.00  0.00    +0.000 A 
ATOM     25  C   UNL     1      11.355  13.802  20.212  0.00  0.00    +0.000 A 
ATOM     26  C   UNL     1      11.621  13.936  18.788  0.00  0.00    +0.000 A 
ATOM     27  C   UNL     1      11.135  13.008  17.948  0.00  0.00    +0.000 A 
ATOM     28  N   UNL     1      10.371  11.948  18.439  0.00  0.00    +0.000 N 
ATOM     29  N   UNL     1       9.791  10.950  17.719  0.00  0.00    +0.000 NA
ENDBRANCH  18  21
ENDBRANCH  16  17
ENDBRANCH   1  16
TORSDOF 6
ENDMDL
MODEL 4
REMARK VINA RESULT:      -7.8      1.046      1.812
REMARK  Name = 
REMARK  7 active torsions:
REMARK  status: ('A' for Active; 'I' for Inactive)
REMARK    1  A    between atoms: C_1  and  O_2
REMARK    2  A    between atoms: O_2  and  C_3
REMARK    3  A    between atoms: C_8  and  N_9
REMARK    4  A    between atoms: N_12  and  C_13
REMARK    5  A    between atoms: C_13  and  C_14
REMARK    6  A    between atoms: C_14  and  N_15
REMARK    7  A    between atoms: C_16  and  C_18
REMARK                            x       y       z     vdW  Elec       q    Type
REMARK                         _______ _______ _______ _____ _____    ______ ____
ROOT
ATOM      1  C   UNL     1       7.342   7.161  16.978  0.00  0.00    +0.000 C 
ENDROOT
BRANCH   1   5
ATOM      2  N   UNL     1       4.411   5.379  18.388  0.00  0.00    +0.000 N 
ATOM      3  C   UNL     1       5.510   5.934  19.183  0.00  0.00    +0.000 C 
ATOM      4  C   UNL     1       6.847   5.394  18.628  0.00  0.00    +0.000 C 
ATOM      5  N   UNL     1       7.098   5.722  17.195  0.00  0.00    +0.000 NA
ATOM      6  C   UNL     1       5.923   5.250  16.415  0.00  0.00    +0.000 C 
ATOM      7  C   UNL     1       4.518   5.656  16.946  0.00  0.00    +0.000 C 
BRANCH   2  13
ATOM      8  C   UNL     1       2.879   3.453  18.695  0.00  0.00    +0.000 A 
ATOM      9  C   UNL     1       1.717   2.929  19.290  0.00  0.00    +0.000 A 
ATOM     10  C   UNL     1       0.956   3.694  20.167  0.00  0.00    +0.000 A 
ATOM     11  C   UNL     1       1.346   4.993  20.452  0.00  0.00    +0.000 A 
ATOM     12  C   UNL     1       2.497   5.522  19.858  0.00  0.00    +0.000 A 
ATOM     13  C   UNL     1       3.297   4.785  18.962  0.00  0.00    +0.000 A 
BRANCH   8  15
ATOM     14  C   UNL     1       3.852   1.373  18.098  0.00  0.00    +0.000 C 
ATOM     15  O   UNL     1       3.564   2.724  17.744  0.00  0.00    +0.000 OA
ENDBRANCH   8  15
ENDBRANCH   2  13
ENDBRANCH   1   5
BRANCH   1  16
ATOM     16  C   UNL     1       8.073   7.836  18.158  0.00  0.00    +0.000 C 
BRANCH  16  17
ATOM     17  N   UNL     1       8.478   9.188  17.863  0.00  0.00    +0.000 N 
ATOM     18  C   UNL     1       8.994  10.017  18.836  0.00  0.00    +0.000 C 
ATOM     19  O   UNL     1       9.100   9.690  20.015  0.00  0.00    +0.000 OA
ATOM     20  H   UNL     1       8.441   9.565  16.920  0.00  0.00    +0.000 HD
BRANCH  18  21
ATOM     21  C   UNL     1       9.400  11.338  18.343  0.00  0.00    +0.000 A 
ATOM     22  C   UNL     1      10.592  11.629  17.636  0.00  0.00    +0.000 A 
ATOM     23  C   UNL     1      10.566  12.982  17.431  0.00  0.00    +0.000 A 
ATOM     24  C   UNL     1      11.453  13.918  16.829  0.00  0.00    +0.000 A 
ATOM     25  C   UNL     1      11.142  15.229  16.844  0.00  0.00    +0.000 A 
ATOM     26  C   UNL     1       9.911  15.710  17.454  0.00  0.00    +0.000 A 
ATOM     27  C   UNL     1       9.068  14.819  18.000  0.00  0.00    +0.000 A 
ATOM     28  N   UNL     1       9.384  13.459  17.997  0.00  0.00    +0.000 N 
ATOM     29  N   UNL     1       8.651  12.443  18.529  0.00  0.00    +0.000 NA
ENDBRANCH  18  21
ENDBRANCH  16  17
ENDBRANCH   1  16
TORSDOF 6
ENDMDL
MODEL 5
REMARK VINA RESULT:      -7.8      5.794      8.256
REMARK  Name = 
REMARK  7 active torsions:
REMARK  status: ('A' for Active; 'I' for Inactive)
REMARK    1  A    between atoms: C_1  and  O_2
REMARK    2  A    between atoms: O_2  and  C_3
REMARK    3  A    between atoms: C_8  and  N_9
REMARK    4  A    between atoms: N_12  and  C_13
REMARK    5  A    between atoms: C_13  and  C_14
REMARK    6  A    between atoms: C_14  and  N_15
REMARK    7  A    between atoms: C_16  and  C_18
REMARK                            x       y       z     vdW  Elec       q    Type
REMARK                         _______ _______ _______ _____ _____    ______ ____
ROOT
ATOM      1  C   UNL     1       1.124   4.098  20.375  0.00  0.00    +0.000 C 
ENDROOT
BRANCH   1   5
ATOM      2  N   UNL     1       3.983   4.205  18.015  0.00  0.00    +0.000 N 
ATOM      3  C   UNL     1       2.591   4.488  17.652  0.00  0.00    +0.000 C 
ATOM      4  C   UNL     1       1.707   3.307  18.111  0.00  0.00    +0.000 C 
ATOM      5  N   UNL     1       1.758   3.032  19.576  0.00  0.00    +0.000 NA
ATOM      6  C   UNL     1       3.187   2.855  19.949  0.00  0.00    +0.000 C 
ATOM      7  C   UNL     1       4.183   3.941  19.450  0.00  0.00    +0.000 C 
BRANCH   2  13
ATOM      8  C   UNL     1       6.383   4.551  17.496  0.00  0.00    +0.000 A 
ATOM      9  C   UNL     1       7.390   4.701  16.525  0.00  0.00    +0.000 A 
ATOM     10  C   UNL     1       7.092   4.619  15.169  0.00  0.00    +0.000 A 
ATOM     11  C   UNL     1       5.784   4.394  14.772  0.00  0.00    +0.000 A 
ATOM     12  C   UNL     1       4.777   4.251  15.732  0.00  0.00    +0.000 A 
ATOM     13  C   UNL     1       5.031   4.329  17.117  0.00  0.00    +0.000 A 
BRANCH   8  15
ATOM     14  C   UNL     1       7.651   5.738  19.112  0.00  0.00    +0.000 C 
ATOM     15  O   UNL     1       6.671   4.743  18.832  0.00  0.00    +0.000 OA
ENDBRANCH   8  15
ENDBRANCH   2  13
ENDBRANCH   1   5
BRANCH   1  16
ATOM     16  C   UNL     1       2.125   5.165  20.863  0.00  0.00    +0.000 C 
BRANCH  16  17
ATOM     17  N   UNL     1       1.489   6.417  21.195  0.00  0.00    +0.000 N 
ATOM     18  C   UNL     1       1.671   7.547  20.425  0.00  0.00    +0.000 C 
ATOM     19  O   UNL     1       2.411   7.585  19.447  0.00  0.00    +0.000 OA
ATOM     20  H   UNL     1       0.849   6.501  21.979  0.00  0.00    +0.000 HD
BRANCH  18  21
ATOM     21  C   UNL     1       0.904   8.711  20.884  0.00  0.00    +0.000 A 
ATOM     22  C   UNL     1       0.389   8.904  22.188  0.00  0.00    +0.000 A 
ATOM     23  C   UNL     1      -0.290  10.092  22.133  0.00  0.00    +0.000 A 
ATOM     24  C   UNL     1      -1.060  10.845  23.063  0.00  0.00    +0.000 A 
ATOM     25  C   UNL     1      -1.658  11.983  22.657  0.00  0.00    +0.000 A 
ATOM     26  C   UNL     1      -1.525  12.465  21.291  0.00  0.00    +0.000 A 
ATOM     27  C   UNL     1      -0.777  11.762  20.425  0.00  0.00    +0.000 A 
ATOM     28  N   UNL     1      -0.160  10.577  20.832  0.00  0.00    +0.000 N 
ATOM     29  N   UNL     1       0.602   9.744  20.072  0.00  0.00    +0.000 NA
ENDBRANCH  18  21
ENDBRANCH  16  17
ENDBRANCH   1  16
TORSDOF 6
ENDMDL
MODEL 6
REMARK VINA RESULT:      -7.7      1.187      1.559
REMARK  Name = 
REMARK  7 active torsions:
REMARK  status: ('A' for Active; 'I' for Inactive)
REMARK    1  A    between atoms: C_1  and  O_2
REMARK    2  A    between atoms: O_2  and  C_3
REMARK    3  A    between atoms: C_8  and  N_9
REMARK    4  A    between atoms: N_12  and  C_13
REMARK    5  A    between atoms: C_13  and  C_14
REMARK    6  A    between atoms: C_14  and  N_15
REMARK    7  A    between atoms: C_16  and  C_18
REMARK                            x       y       z     vdW  Elec       q    Type
REMARK                         _______ _______ _______ _____ _____    ______ ____
ROOT
ATOM      1  C   UNL     1       6.857   8.050  17.710  0.00  0.00    +0.000 C 
ENDROOT
BRANCH   1   5
ATOM      2  N   UNL     1       4.324   5.377  18.148  0.00  0.00    +0.000 N 
ATOM      3  C   UNL     1       5.551   5.501  18.941  0.00  0.00    +0.000 C 
ATOM      4  C   UNL     1       6.756   5.599  17.979  0.00  0.00    +0.000 C 
ATOM      5  N   UNL     1       6.697   6.749  17.032  0.00  0.00    +0.000 NA
ATOM      6  C   UNL     1       5.398   6.671  16.313  0.00  0.00    +0.000 C 
ATOM      7  C   UNL     1       4.124   6.472  17.184  0.00  0.00    +0.000 C 
BRANCH   2  13
ATOM      8  C   UNL     1       3.602   3.237  19.173  0.00  0.00    +0.000 A 
ATOM      9  C   UNL     1       2.591   2.275  19.353  0.00  0.00    +0.000 A 
ATOM     10  C   UNL     1       1.332   2.449  18.789  0.00  0.00    +0.000 A 
ATOM     11  C   UNL     1       1.073   3.582  18.034  0.00  0.00    +0.000 A 
ATOM     12  C   UNL     1       2.076   4.538  17.846  0.00  0.00    +0.000 A 
ATOM     13  C   UNL     1       3.368   4.404  18.396  0.00  0.00    +0.000 A 
BRANCH   8  15
ATOM     14  C   UNL     1       5.007   1.902  20.540  0.00  0.00    +0.000 C 
ATOM     15  O   UNL     1       4.877   3.003  19.645  0.00  0.00    +0.000 OA
ENDBRANCH   8  15
ENDBRANCH   2  13
ENDBRANCH   1   5
BRANCH   1  16
ATOM     16  C   UNL     1       8.321   8.359  18.089  0.00  0.00    +0.000 C 
BRANCH  16  17
ATOM     17  N   UNL     1       8.693   9.724  17.811  0.00  0.00    +0.000 N 
ATOM     18  C   UNL     1       9.178  10.557  18.797  0.00  0.00    +0.000 C 
ATOM     19  O   UNL     1       9.283  10.221  19.973  0.00  0.00    +0.000 OA
ATOM     20  H   UNL     1       8.654  10.110  16.871  0.00  0.00    +0.000 HD
BRANCH  18  21
ATOM     21  C   UNL     1       9.553  11.893  18.320  0.00  0.00    +0.000 A 
ATOM     22  C   UNL     1      10.765  12.233  17.672  0.00  0.00    +0.000 A 
ATOM     23  C   UNL     1      10.693  13.584  17.463  0.00  0.00    +0.000 A 
ATOM     24  C   UNL     1      11.570  14.555  16.903  0.00  0.00    +0.000 A 
ATOM     25  C   UNL     1      11.203  15.852  16.899  0.00  0.00    +0.000 A 
ATOM     26  C   UNL     1       9.925  16.281  17.446  0.00  0.00    +0.000 A 
ATOM     27  C   UNL     1       9.093  15.357  17.952  0.00  0.00    +0.000 A 
ATOM     28  N   UNL     1       9.466  14.011  17.968  0.00  0.00    +0.000 N 
ATOM     29  N   UNL     1       8.750  12.966  18.466  0.00  0.00    +0.000 NA
ENDBRANCH  18  21
ENDBRANCH  16  17
ENDBRANCH   1  16
TORSDOF 6
ENDMDL
MODEL 7
REMARK VINA RESULT:      -7.6      2.058      2.559
REMARK  Name = 
REMARK  7 active torsions:
REMARK  status: ('A' for Active; 'I' for Inactive)
REMARK    1  A    between atoms: C_1  and  O_2
REMARK    2  A    between atoms: O_2  and  C_3
REMARK    3  A    between atoms: C_8  and  N_9
REMARK    4  A    between atoms: N_12  and  C_13
REMARK    5  A    between atoms: C_13  and  C_14
REMARK    6  A    between atoms: C_14  and  N_15
REMARK    7  A    between atoms: C_16  and  C_18
REMARK                            x       y       z     vdW  Elec       q    Type
REMARK                         _______ _______ _______ _____ _____    ______ ____
ROOT
ATOM      1  C   UNL     1       8.005   7.321  18.267  0.00  0.00    +0.000 C 
ENDROOT
BRANCH   1   5
ATOM      2  N   UNL     1       4.876   5.332  18.223  0.00  0.00    +0.000 N 
ATOM      3  C   UNL     1       6.110   4.929  18.905  0.00  0.00    +0.000 C 
ATOM      4  C   UNL     1       7.278   4.992  17.896  0.00  0.00    +0.000 C 
ATOM      5  N   UNL     1       7.499   6.337  17.291  0.00  0.00    +0.000 NA
ATOM      6  C   UNL     1       6.208   6.779  16.699  0.00  0.00    +0.000 C 
ATOM      7  C   UNL     1       4.945   6.664  17.600  0.00  0.00    +0.000 C 
BRANCH   2  13
ATOM      8  C   UNL     1       2.647   4.862  19.205  0.00  0.00    +0.000 A 
ATOM      9  C   UNL     1       1.502   4.045  19.243  0.00  0.00    +0.000 A 
ATOM     10  C   UNL     1       1.368   2.963  18.381  0.00  0.00    +0.000 A 
ATOM     11  C   UNL     1       2.381   2.682  17.477  0.00  0.00    +0.000 A 
ATOM     12  C   UNL     1       3.525   3.486  17.440  0.00  0.00    +0.000 A 
ATOM     13  C   UNL     1       3.705   4.592  18.295  0.00  0.00    +0.000 A 
BRANCH   8  15
ATOM     14  C   UNL     1       2.121   7.079  19.865  0.00  0.00    +0.000 C 
ATOM     15  O   UNL     1       2.818   5.866  20.137  0.00  0.00    +0.000 OA
ENDBRANCH   8  15
ENDBRANCH   2  13
ENDBRANCH   1   5
BRANCH   1  16
ATOM     16  C   UNL     1       8.229   8.720  17.655  0.00  0.00    +0.000 C 
BRANCH  16  17
ATOM     17  N   UNL     1       8.397   9.745  18.656  0.00  0.00    +0.000 N 
ATOM     18  C   UNL     1       9.350  10.733  18.527  0.00  0.00    +0.000 C 
ATOM     19  O   UNL     1      10.145  10.786  17.592  0.00  0.00    +0.000 OA
ATOM     20  H   UNL     1       7.790   9.805  19.469  0.00  0.00    +0.000 HD
BRANCH  18  21
ATOM     21  C   UNL     1       9.341  11.719  19.613  0.00  0.00    +0.000 A 
ATOM     22  C   UNL     1       9.091  11.445  20.980  0.00  0.00    +0.000 A 
ATOM     23  C   UNL     1       9.133  12.664  21.603  0.00  0.00    +0.000 A 
ATOM     24  C   UNL     1       8.936  13.108  22.940  0.00  0.00    +0.000 A 
ATOM     25  C   UNL     1       8.998  14.426  23.214  0.00  0.00    +0.000 A 
ATOM     26  C   UNL     1       9.272  15.406  22.175  0.00  0.00    +0.000 A 
ATOM     27  C   UNL     1       9.480  14.978  20.919  0.00  0.00    +0.000 A 
ATOM     28  N   UNL     1       9.411  13.615  20.622  0.00  0.00    +0.000 N 
ATOM     29  N   UNL     1       9.571  13.031  19.403  0.00  0.00    +0.000 NA
ENDBRANCH  18  21
ENDBRANCH  16  17
ENDBRANCH   1  16
TORSDOF 6
ENDMDL
MODEL 8
REMARK VINA RESULT:      -7.6      1.535      2.009
REMARK  Name = 
REMARK  7 active torsions:
REMARK  status: ('A' for Active; 'I' for Inactive)
REMARK    1  A    between atoms: C_1  and  O_2
REMARK    2  A    between atoms: O_2  and  C_3
REMARK    3  A    between atoms: C_8  and  N_9
REMARK    4  A    between atoms: N_12  and  C_13
REMARK    5  A    between atoms: C_13  and  C_14
REMARK    6  A    between atoms: C_14  and  N_15
REMARK    7  A    between atoms: C_16  and  C_18
REMARK                            x       y       z     vdW  Elec       q    Type
REMARK                         _______ _______ _______ _____ _____    ______ ____
ROOT
ATOM      1  C   UNL     1       7.298   6.596  17.217  0.00  0.00    +0.000 C 
ENDROOT
BRANCH   1   5
ATOM      2  N   UNL     1       4.206   4.878  18.332  0.00  0.00    +0.000 N 
ATOM      3  C   UNL     1       5.479   4.858  19.058  0.00  0.00    +0.000 C 
ATOM      4  C   UNL     1       6.594   4.399  18.093  0.00  0.00    +0.000 C 
ATOM      5  N   UNL     1       6.761   5.261  16.889  0.00  0.00    +0.000 NA
ATOM      6  C   UNL     1       5.435   5.361  16.222  0.00  0.00    +0.000 C 
ATOM      7  C   UNL     1       4.221   5.721  17.125  0.00  0.00    +0.000 C 
BRANCH   2  13
ATOM      8  C   UNL     1       2.159   4.909  19.733  0.00  0.00    +0.000 A 
ATOM      9  C   UNL     1       1.026   4.229  20.215  0.00  0.00    +0.000 A 
ATOM     10  C   UNL     1       0.742   2.932  19.801  0.00  0.00    +0.000 A 
ATOM     11  C   UNL     1       1.592   2.301  18.907  0.00  0.00    +0.000 A 
ATOM     12  C   UNL     1       2.724   2.969  18.430  0.00  0.00    +0.000 A 
ATOM     13  C   UNL     1       3.054   4.283  18.823  0.00  0.00    +0.000 A 
BRANCH   8  15
ATOM     14  C   UNL     1       1.408   6.900  20.782  0.00  0.00    +0.000 C 
ATOM     15  O   UNL     1       2.490   6.153  20.232  0.00  0.00    +0.000 OA
ENDBRANCH   8  15
ENDBRANCH   2  13
ENDBRANCH   1   5
BRANCH   1  16
ATOM     16  C   UNL     1       7.993   6.647  18.594  0.00  0.00    +0.000 C 
BRANCH  16  17
ATOM     17  N   UNL     1       8.582   7.933  18.873  0.00  0.00    +0.000 N 
ATOM     18  C   UNL     1       8.271   9.049  18.125  0.00  0.00    +0.000 C 
ATOM     19  O   UNL     1       7.521   9.023  17.153  0.00  0.00    +0.000 OA
ATOM     20  H   UNL     1       9.211   8.075  19.658  0.00  0.00    +0.000 HD
BRANCH  18  21
ATOM     21  C   UNL     1       8.925  10.279  18.587  0.00  0.00    +0.000 A 
ATOM     22  C   UNL     1       9.601  10.447  19.819  0.00  0.00    +0.000 A 
ATOM     23  C   UNL     1       9.996  11.758  19.836  0.00  0.00    +0.000 A 
ATOM     24  C   UNL     1      10.676  12.584  20.774  0.00  0.00    +0.000 A 
ATOM     25  C   UNL     1      10.863  13.888  20.492  0.00  0.00    +0.000 A 
ATOM     26  C   UNL     1      10.394  14.471  19.244  0.00  0.00    +0.000 A 
ATOM     27  C   UNL     1       9.774  13.681  18.353  0.00  0.00    +0.000 A 
ATOM     28  N   UNL     1       9.567  12.329  18.638  0.00  0.00    +0.000 N 
ATOM     29  N   UNL     1       8.937  11.412  17.855  0.00  0.00    +0.000 NA
ENDBRANCH  18  21
ENDBRANCH  16  17
ENDBRANCH   1  16
TORSDOF 6
ENDMDL
MODEL 9
REMARK VINA RESULT:      -7.6      6.233     10.337
REMARK  Name = 
REMARK  7 active torsions:
REMARK  status: ('A' for Active; 'I' for Inactive)
REMARK    1  A    between atoms: C_1  and  O_2
REMARK    2  A    between atoms: O_2  and  C_3
REMARK    3  A    between atoms: C_8  and  N_9
REMARK    4  A    between atoms: N_12  and  C_13
REMARK    5  A    between atoms: C_13  and  C_14
REMARK    6  A    between atoms: C_14  and  N_15
REMARK    7  A    between atoms: C_16  and  C_18
REMARK                            x       y       z     vdW  Elec       q    Type
REMARK                         _______ _______ _______ _____ _____    ______ ____
ROOT
ATOM      1  C   UNL     1       0.497   9.104  20.692  0.00  0.00    +0.000 C 
ENDROOT
BRANCH   1   5
ATOM      2  N   UNL     1      -1.367  11.725  22.539  0.00  0.00    +0.000 N 
ATOM      3  C   UNL     1      -0.917  11.845  21.149  0.00  0.00    +0.000 C 
ATOM      4  C   UNL     1       0.596  11.538  21.089  0.00  0.00    +0.000 C 
ATOM      5  N   UNL     1       0.970  10.182  21.582  0.00  0.00    +0.000 NA
ATOM      6  C   UNL     1       0.412  10.034  22.953  0.00  0.00    +0.000 C 
ATOM      7  C   UNL     1      -1.084  10.414  23.147  0.00  0.00    +0.000 C 
BRANCH   2  13
ATOM      8  C   UNL     1      -1.629  13.977  23.544  0.00  0.00    +0.000 A 
ATOM      9  C   UNL     1      -2.451  14.905  24.210  0.00  0.00    +0.000 A 
ATOM     10  C   UNL     1      -3.776  14.603  24.503  0.00  0.00    +0.000 A 
ATOM     11  C   UNL     1      -4.290  13.368  24.138  0.00  0.00    +0.000 A 
ATOM     12  C   UNL     1      -3.476  12.439  23.483  0.00  0.00    +0.000 A 
ATOM     13  C   UNL     1      -2.127  12.700  23.167  0.00  0.00    +0.000 A 
BRANCH   8  15
ATOM     14  C   UNL     1       0.010  15.204  22.345  0.00  0.00    +0.000 C 
ATOM     15  O   UNL     1      -0.288  14.244  23.356  0.00  0.00    +0.000 OA
ENDBRANCH   8  15
ENDBRANCH   2  13
ENDBRANCH   1   5
BRANCH   1  16
ATOM     16  C   UNL     1       1.096   7.725  21.041  0.00  0.00    +0.000 C 
BRANCH  16  17
ATOM     17  N   UNL     1       2.158   7.336  20.146  0.00  0.00    +0.000 N 
ATOM     18  C   UNL     1       2.584   6.028  20.055  0.00  0.00    +0.000 C 
ATOM     19  O   UNL     1       2.133   5.121  20.749  0.00  0.00    +0.000 OA
ATOM     20  H   UNL     1       2.600   8.002  19.518  0.00  0.00    +0.000 HD
BRANCH  18  21
ATOM     21  C   UNL     1       3.636   5.811  19.055  0.00  0.00    +0.000 A 
ATOM     22  C   UNL     1       3.537   6.093  17.671  0.00  0.00    +0.000 A 
ATOM     23  C   UNL     1       4.728   5.683  17.136  0.00  0.00    +0.000 A 
ATOM     24  C   UNL     1       5.271   5.645  15.821  0.00  0.00    +0.000 A 
ATOM     25  C   UNL     1       6.493   5.111  15.625  0.00  0.00    +0.000 A 
ATOM     26  C   UNL     1       7.277   4.583  16.731  0.00  0.00    +0.000 A 
ATOM     27  C   UNL     1       6.768   4.644  17.973  0.00  0.00    +0.000 A 
ATOM     28  N   UNL     1       5.500   5.187  18.186  0.00  0.00    +0.000 N 
ATOM     29  N   UNL     1       4.841   5.295  19.372  0.00  0.00    +0.000 NA
ENDBRANCH  18  21
ENDBRANCH  16  17
ENDBRANCH   1  16
TORSDOF 6
ENDMDL
