MODEL 1
REMARK VINA RESULT:      -6.4      0.000      0.000
REMARK  Name = 
REMARK  8 active torsions:
REMARK  status: ('A' for Active; 'I' for Inactive)
REMARK    1  A    between atoms: C_1  and  O_2
REMARK    2  A    between atoms: O_2  and  C_3
REMARK    3  A    between atoms: C_7  and  O_8
REMARK    4  A    between atoms: O_8  and  C_9
REMARK    5  A    between atoms: C_9  and  C_10
REMARK    6  A    between atoms: C_9  and  C_11
REMARK    7  A    between atoms: C_11  and  N_12
REMARK    8  A    between atoms: C_13  and  C_15
REMARK                            x       y       z     vdW  Elec       q    Type
REMARK                         _______ _______ _______ _____ _____    ______ ____
ROOT
ATOM      1  C   UNL     1       6.843   5.273  18.485  0.00  0.00    +0.000 C 
ATOM      2  C   UNL     1       7.735   5.713  19.649  0.00  0.00    +0.000 C 
ENDROOT
BRANCH   1   3
ATOM      3  O   UNL     1       5.831   4.362  18.954  0.00  0.00    +0.000 OA
BRANCH   3   8
ATOM      4  C   UNL     1       2.192   4.089  18.232  0.00  0.00    +0.000 A 
ATOM      5  C   UNL     1       1.920   5.437  17.990  0.00  0.00    +0.000 A 
ATOM      6  C   UNL     1       2.935   6.388  18.106  0.00  0.00    +0.000 A 
ATOM      7  C   UNL     1       4.231   5.986  18.443  0.00  0.00    +0.000 A 
ATOM      8  C   UNL     1       4.518   4.638  18.677  0.00  0.00    +0.000 A 
ATOM      9  C   UNL     1       3.485   3.701  18.591  0.00  0.00    +0.000 A 
BRANCH   4  11
ATOM     10  C   UNL     1       1.171   2.010  18.776  0.00  0.00    +0.000 C 
ATOM     11  O   UNL     1       1.127   3.243  18.066  0.00  0.00    +0.000 OA
ENDBRANCH   4  11
ENDBRANCH   3   8
ENDBRANCH   1   3
BRANCH   1  12
ATOM     12  C   UNL     1       7.707   4.534  17.446  0.00  0.00    +0.000 C 
BRANCH  12  13
ATOM     13  N   UNL     1       6.924   3.920  16.389  0.00  0.00    +0.000 N 
ATOM     14  C   UNL     1       6.850   4.459  15.130  0.00  0.00    +0.000 C 
ATOM     15  O   UNL     1       7.455   5.460  14.772  0.00  0.00    +0.000 OA
ATOM     16  H   UNL     1       6.318   3.149  16.637  0.00  0.00    +0.000 HD
BRANCH  14  17
ATOM     17  C   UNL     1       5.980   3.689  14.196  0.00  0.00    +0.000 C 
ATOM     18  C   UNL     1       5.250   4.372  13.064  0.00  0.00    +0.000 C 
ATOM     19  C   UNL     1       6.432   3.495  12.766  0.00  0.00    +0.000 C 
ENDBRANCH  14  17
ENDBRANCH  12  13
ENDBRANCH   1  12
TORSDOF 6
ENDMDL
MODEL 2
REMARK VINA RESULT:      -6.4      1.619      2.323
REMARK  Name = 
REMARK  8 active torsions:
REMARK  status: ('A' for Active; 'I' for Inactive)
REMARK    1  A    between atoms: C_1  and  O_2
REMARK    2  A    between atoms: O_2  and  C_3
REMARK    3  A    between atoms: C_7  and  O_8
REMARK    4  A    between atoms: O_8  and  C_9
REMARK    5  A    between atoms: C_9  and  C_10
REMARK    6  A    between atoms: C_9  and  C_11
REMARK    7  A    between atoms: C_11  and  N_12
REMARK    8  A    between atoms: C_13  and  C_15
REMARK                            x       y       z     vdW  Elec       q    Type
REMARK                         _______ _______ _______ _____ _____    ______ ____
ROOT
ATOM      1  C   UNL     1       6.022   5.423  17.816  0.00  0.00    +0.000 C 
ATOM      2  C   UNL     1       7.524   5.163  17.970  0.00  0.00    +0.000 C 
ENDROOT
BRANCH   1   3
ATOM      3  O   UNL     1       5.287   4.198  17.999  0.00  0.00    +0.000 OA
BRANCH   3   8
ATOM      4  C   UNL     1       2.195   5.139  19.841  0.00  0.00    +0.000 A 
ATOM      5  C   UNL     1       1.348   4.138  19.364  0.00  0.00    +0.000 A 
ATOM      6  C   UNL     1       1.815   3.211  18.430  0.00  0.00    +0.000 A 
ATOM      7  C   UNL     1       3.141   3.275  17.990  0.00  0.00    +0.000 A 
ATOM      8  C   UNL     1       4.002   4.267  18.468  0.00  0.00    +0.000 A 
ATOM      9  C   UNL     1       3.510   5.208  19.377  0.00  0.00    +0.000 A 
BRANCH   4  11
ATOM     10  C   UNL     1       1.725   7.374  20.510  0.00  0.00    +0.000 C 
ATOM     11  O   UNL     1       1.637   5.978  20.771  0.00  0.00    +0.000 OA
ENDBRANCH   4  11
ENDBRANCH   3   8
ENDBRANCH   1   3
BRANCH   1  12
ATOM     12  C   UNL     1       5.748   5.937  16.390  0.00  0.00    +0.000 C 
BRANCH  12  13
ATOM     13  N   UNL     1       5.659   4.870  15.410  0.00  0.00    +0.000 N 
ATOM     14  C   UNL     1       6.606   4.698  14.432  0.00  0.00    +0.000 C 
ATOM     15  O   UNL     1       7.612   5.384  14.318  0.00  0.00    +0.000 OA
ATOM     16  H   UNL     1       4.807   4.326  15.379  0.00  0.00    +0.000 HD
BRANCH  14  17
ATOM     17  C   UNL     1       6.323   3.558  13.515  0.00  0.00    +0.000 C 
ATOM     18  C   UNL     1       5.215   3.632  12.492  0.00  0.00    +0.000 C 
ATOM     19  C   UNL     1       6.646   3.702  12.045  0.00  0.00    +0.000 C 
ENDBRANCH  14  17
ENDBRANCH  12  13
ENDBRANCH   1  12
TORSDOF 6
ENDMDL
MODEL 3
REMARK VINA RESULT:      -6.3      2.491      6.329
REMARK  Name = 
REMARK  8 active torsions:
REMARK  status: ('A' for Active; 'I' for Inactive)
REMARK    1  A    between atoms: C_1  and  O_2
REMARK    2  A    between atoms: O_2  and  C_3
REMARK    3  A    between atoms: C_7  and  O_8
REMARK    4  A    between atoms: O_8  and  C_9
REMARK    5  A    between atoms: C_9  and  C_10
REMARK    6  A    between atoms: C_9  and  C_11
REMARK    7  A    between atoms: C_11  and  N_12
REMARK    8  A    between atoms: C_13  and  C_15
REMARK                            x       y       z     vdW  Elec       q    Type
REMARK                         _______ _______ _______ _____ _____    ______ ____
ROOT
ATOM      1  C   UNL     1       3.136   7.276  18.624  0.00  0.00    +0.000 C 
ATOM      2  C   UNL     1       2.466   8.175  17.580  0.00  0.00    +0.000 C 
ENDROOT
BRANCH   1   3
ATOM      3  O   UNL     1       3.448   5.995  18.045  0.00  0.00    +0.000 OA
BRANCH   3   8
ATOM      4  C   UNL     1       6.731   5.135  16.521  0.00  0.00    +0.000 A 
ATOM      5  C   UNL     1       7.447   4.870  17.689  0.00  0.00    +0.000 A 
ATOM      6  C   UNL     1       6.834   5.017  18.935  0.00  0.00    +0.000 A 
ATOM      7  C   UNL     1       5.494   5.408  19.009  0.00  0.00    +0.000 A 
ATOM      8  C   UNL     1       4.763   5.665  17.846  0.00  0.00    +0.000 A 
ATOM      9  C   UNL     1       5.399   5.548  16.607  0.00  0.00    +0.000 A 
BRANCH   4  11
ATOM     10  C   UNL     1       6.664   4.580  14.208  0.00  0.00    +0.000 C 
ATOM     11  O   UNL     1       7.426   4.936  15.356  0.00  0.00    +0.000 OA
ENDBRANCH   4  11
ENDBRANCH   3   8
ENDBRANCH   1   3
BRANCH   1  12
ATOM     12  C   UNL     1       2.156   7.048  19.789  0.00  0.00    +0.000 C 
BRANCH  12  13
ATOM     13  N   UNL     1       2.523   5.921  20.627  0.00  0.00    +0.000 N 
ATOM     14  C   UNL     1       1.737   4.800  20.727  0.00  0.00    +0.000 C 
ATOM     15  O   UNL     1       0.699   4.628  20.105  0.00  0.00    +0.000 OA
ATOM     16  H   UNL     1       3.314   6.031  21.247  0.00  0.00    +0.000 HD
BRANCH  14  17
ATOM     17  C   UNL     1       2.281   3.766  21.652  0.00  0.00    +0.000 C 
ATOM     18  C   UNL     1       1.647   2.399  21.758  0.00  0.00    +0.000 C 
ATOM     19  C   UNL     1       2.972   2.553  21.071  0.00  0.00    +0.000 C 
ENDBRANCH  14  17
ENDBRANCH  12  13
ENDBRANCH   1  12
TORSDOF 6
ENDMDL
MODEL 4
REMARK VINA RESULT:      -6.3      1.922      2.891
REMARK  Name = 
REMARK  8 active torsions:
REMARK  status: ('A' for Active; 'I' for Inactive)
REMARK    1  A    between atoms: C_1  and  O_2
REMARK    2  A    between atoms: O_2  and  C_3
REMARK    3  A    between atoms: C_7  and  O_8
REMARK    4  A    between atoms: O_8  and  C_9
REMARK    5  A    between atoms: C_9  and  C_10
REMARK    6  A    between atoms: C_9  and  C_11
REMARK    7  A    between atoms: C_11  and  N_12
REMARK    8  A    between atoms: C_13  and  C_15
REMARK                            x       y       z     vdW  Elec       q    Type
REMARK                         _______ _______ _______ _____ _____    ______ ____
ROOT
ATOM      1  C   UNL     1       3.462   6.871  17.803  0.00  0.00    +0.000 C 
ATOM      2  C   UNL     1       2.756   8.231  17.786  0.00  0.00    +0.000 C 
ENDROOT
BRANCH   1   3
ATOM      3  O   UNL     1       3.547   6.375  19.152  0.00  0.00    +0.000 OA
BRANCH   3   8
ATOM      4  C   UNL     1       2.366   2.852  19.332  0.00  0.00    +0.000 A 
ATOM      5  C   UNL     1       1.282   3.032  20.192  0.00  0.00    +0.000 A 
ATOM      6  C   UNL     1       1.000   4.299  20.707  0.00  0.00    +0.000 A 
ATOM      7  C   UNL     1       1.792   5.391  20.341  0.00  0.00    +0.000 A 
ATOM      8  C   UNL     1       2.874   5.225  19.473  0.00  0.00    +0.000 A 
ATOM      9  C   UNL     1       3.166   3.945  18.992  0.00  0.00    +0.000 A 
BRANCH   4  11
ATOM     10  C   UNL     1       3.780   1.272  18.252  0.00  0.00    +0.000 C 
ATOM     11  O   UNL     1       2.535   1.572  18.871  0.00  0.00    +0.000 OA
ENDBRANCH   4  11
ENDBRANCH   3   8
ENDBRANCH   1   3
BRANCH   1  12
ATOM     12  C   UNL     1       4.896   7.047  17.268  0.00  0.00    +0.000 C 
BRANCH  12  13
ATOM     13  N   UNL     1       5.310   5.968  16.390  0.00  0.00    +0.000 N 
ATOM     14  C   UNL     1       6.622   5.584  16.277  0.00  0.00    +0.000 C 
ATOM     15  O   UNL     1       7.542   6.071  16.919  0.00  0.00    +0.000 OA
ATOM     16  H   UNL     1       4.623   5.586  15.754  0.00  0.00    +0.000 HD
BRANCH  14  17
ATOM     17  C   UNL     1       6.842   4.471  15.310  0.00  0.00    +0.000 C 
ATOM     18  C   UNL     1       5.803   4.119  14.272  0.00  0.00    +0.000 C 
ATOM     19  C   UNL     1       7.073   4.801  13.852  0.00  0.00    +0.000 C 
ENDBRANCH  14  17
ENDBRANCH  12  13
ENDBRANCH   1  12
TORSDOF 6
ENDMDL
MODEL 5
REMARK VINA RESULT:      -6.3      2.261      5.937
REMARK  Name = 
REMARK  8 active torsions:
REMARK  status: ('A' for Active; 'I' for Inactive)
REMARK    1  A    between atoms: C_1  and  O_2
REMARK    2  A    between atoms: O_2  and  C_3
REMARK    3  A    between atoms: C_7  and  O_8
REMARK    4  A    between atoms: O_8  and  C_9
REMARK    5  A    between atoms: C_9  and  C_10
REMARK    6  A    between atoms: C_9  and  C_11
REMARK    7  A    between atoms: C_11  and  N_12
REMARK    8  A    between atoms: C_13  and  C_15
REMARK                            x       y       z     vdW  Elec       q    Type
REMARK                         _______ _______ _______ _____ _____    ______ ____
ROOT
ATOM      1  C   UNL     1       3.306   6.857  18.839  0.00  0.00    +0.000 C 
ATOM      2  C   UNL     1       2.788   8.024  17.993  0.00  0.00    +0.000 C 
ENDROOT
BRANCH   1   3
ATOM      3  O   UNL     1       3.505   5.696  18.010  0.00  0.00    +0.000 OA
BRANCH   3   8
ATOM      4  C   UNL     1       6.503   4.660  16.068  0.00  0.00    +0.000 A 
ATOM      5  C   UNL     1       7.435   4.638  17.107  0.00  0.00    +0.000 A 
ATOM      6  C   UNL     1       7.051   4.997  18.400  0.00  0.00    +0.000 A 
ATOM      7  C   UNL     1       5.725   5.357  18.657  0.00  0.00    +0.000 A 
ATOM      8  C   UNL     1       4.780   5.373  17.627  0.00  0.00    +0.000 A 
ATOM      9  C   UNL     1       5.187   5.044  16.331  0.00  0.00    +0.000 A 
BRANCH   4  11
ATOM     10  C   UNL     1       6.023   3.940  13.851  0.00  0.00    +0.000 C 
ATOM     11  O   UNL     1       6.986   4.267  14.846  0.00  0.00    +0.000 OA
ENDBRANCH   4  11
ENDBRANCH   3   8
ENDBRANCH   1   3
BRANCH   1  12
ATOM     12  C   UNL     1       2.251   6.508  19.906  0.00  0.00    +0.000 C 
BRANCH  12  13
ATOM     13  N   UNL     1       1.653   5.201  19.705  0.00  0.00    +0.000 N 
ATOM     14  C   UNL     1       1.811   4.180  20.608  0.00  0.00    +0.000 C 
ATOM     15  O   UNL     1       2.420   4.281  21.663  0.00  0.00    +0.000 OA
ATOM     16  H   UNL     1       1.220   5.012  18.810  0.00  0.00    +0.000 HD
BRANCH  14  17
ATOM     17  C   UNL     1       1.133   2.914  20.210  0.00  0.00    +0.000 C 
ATOM     18  C   UNL     1       0.690   2.678  18.785  0.00  0.00    +0.000 C 
ATOM     19  C   UNL     1       1.873   1.932  19.330  0.00  0.00    +0.000 C 
ENDBRANCH  14  17
ENDBRANCH  12  13
ENDBRANCH   1  12
TORSDOF 6
ENDMDL
MODEL 6
REMARK VINA RESULT:      -6.3      1.299      1.407
REMARK  Name = 
REMARK  8 active torsions:
REMARK  status: ('A' for Active; 'I' for Inactive)
REMARK    1  A    between atoms: C_1  and  O_2
REMARK    2  A    between atoms: O_2  and  C_3
REMARK    3  A    between atoms: C_7  and  O_8
REMARK    4  A    between atoms: O_8  and  C_9
REMARK    5  A    between atoms: C_9  and  C_10
REMARK    6  A    between atoms: C_9  and  C_11
REMARK    7  A    between atoms: C_11  and  N_12
REMARK    8  A    between atoms: C_13  and  C_15
REMARK                            x       y       z     vdW  Elec       q    Type
REMARK                         _______ _______ _______ _____ _____    ______ ____
ROOT
ATOM      1  C   UNL     1       6.660   6.196  17.116  0.00  0.00    +0.000 C 
ATOM      2  C   UNL     1       7.567   7.285  17.697  0.00  0.00    +0.000 C 
ENDROOT
BRANCH   1   3
ATOM      3  O   UNL     1       6.018   5.469  18.180  0.00  0.00    +0.000 OA
BRANCH   3   8
ATOM      4  C   UNL     1       2.633   3.962  17.841  0.00  0.00    +0.000 A 
ATOM      5  C   UNL     1       1.871   5.129  17.906  0.00  0.00    +0.000 A 
ATOM      6  C   UNL     1       2.495   6.364  18.093  0.00  0.00    +0.000 A 
ATOM      7  C   UNL     1       3.888   6.431  18.192  0.00  0.00    +0.000 A 
ATOM      8  C   UNL     1       4.663   5.271  18.117  0.00  0.00    +0.000 A 
ATOM      9  C   UNL     1       4.022   4.038  17.964  0.00  0.00    +0.000 A 
BRANCH   4  11
ATOM     10  C   UNL     1       1.564   2.058  18.787  0.00  0.00    +0.000 C 
ATOM     11  O   UNL     1       1.917   2.811  17.632  0.00  0.00    +0.000 OA
ENDBRANCH   4  11
ENDBRANCH   3   8
ENDBRANCH   1   3
BRANCH   1  12
ATOM     12  C   UNL     1       7.522   5.205  16.312  0.00  0.00    +0.000 C 
BRANCH  12  13
ATOM     13  N   UNL     1       7.106   5.085  14.927  0.00  0.00    +0.000 N 
ATOM     14  C   UNL     1       6.290   4.070  14.496  0.00  0.00    +0.000 C 
ATOM     15  O   UNL     1       5.811   3.213  15.225  0.00  0.00    +0.000 OA
ATOM     16  H   UNL     1       7.542   5.696  14.249  0.00  0.00    +0.000 HD
BRANCH  14  17
ATOM     17  C   UNL     1       5.995   4.114  13.036  0.00  0.00    +0.000 C 
ATOM     18  C   UNL     1       7.106   4.133  12.013  0.00  0.00    +0.000 C 
ATOM     19  C   UNL     1       6.281   2.892  12.192  0.00  0.00    +0.000 C 
ENDBRANCH  14  17
ENDBRANCH  12  13
ENDBRANCH   1  12
TORSDOF 6
ENDMDL
MODEL 7
REMARK VINA RESULT:      -6.3      1.603      2.406
REMARK  Name = 
REMARK  8 active torsions:
REMARK  status: ('A' for Active; 'I' for Inactive)
REMARK    1  A    between atoms: C_1  and  O_2
REMARK    2  A    between atoms: O_2  and  C_3
REMARK    3  A    between atoms: C_7  and  O_8
REMARK    4  A    between atoms: O_8  and  C_9
REMARK    5  A    between atoms: C_9  and  C_10
REMARK    6  A    between atoms: C_9  and  C_11
REMARK    7  A    between atoms: C_11  and  N_12
REMARK    8  A    between atoms: C_13  and  C_15
REMARK                            x       y       z     vdW  Elec       q    Type
REMARK                         _______ _______ _______ _____ _____    ______ ____
ROOT
ATOM      1  C   UNL     1       6.969   5.313  18.493  0.00  0.00    +0.000 C 
ATOM      2  C   UNL     1       7.998   5.996  19.400  0.00  0.00    +0.000 C 
ENDROOT
BRANCH   1   3
ATOM      3  O   UNL     1       6.133   4.434  19.268  0.00  0.00    +0.000 OA
BRANCH   3   8
ATOM      4  C   UNL     1       2.778   6.038  19.357  0.00  0.00    +0.000 A 
ATOM      5  C   UNL     1       1.994   4.890  19.474  0.00  0.00    +0.000 A 
ATOM      6  C   UNL     1       2.595   3.629  19.485  0.00  0.00    +0.000 A 
ATOM      7  C   UNL     1       3.986   3.521  19.402  0.00  0.00    +0.000 A 
ATOM      8  C   UNL     1       4.783   4.664  19.295  0.00  0.00    +0.000 A 
ATOM      9  C   UNL     1       4.165   5.917  19.251  0.00  0.00    +0.000 A 
BRANCH   4  11
ATOM     10  C   UNL     1       2.250   8.083  18.261  0.00  0.00    +0.000 C 
ATOM     11  O   UNL     1       2.084   7.220  19.380  0.00  0.00    +0.000 OA
ENDBRANCH   4  11
ENDBRANCH   3   8
ENDBRANCH   1   3
BRANCH   1  12
ATOM     12  C   UNL     1       7.713   4.464  17.445  0.00  0.00    +0.000 C 
BRANCH  12  13
ATOM     13  N   UNL     1       7.308   4.761  16.083  0.00  0.00    +0.000 N 
ATOM     14  C   UNL     1       6.224   4.156  15.497  0.00  0.00    +0.000 C 
ATOM     15  O   UNL     1       5.489   3.360  16.063  0.00  0.00    +0.000 OA
ATOM     16  H   UNL     1       7.925   5.331  15.520  0.00  0.00    +0.000 HD
BRANCH  14  17
ATOM     17  C   UNL     1       5.987   4.583  14.089  0.00  0.00    +0.000 C 
ATOM     18  C   UNL     1       7.132   4.772  13.124  0.00  0.00    +0.000 C 
ATOM     19  C   UNL     1       6.220   3.590  12.972  0.00  0.00    +0.000 C 
ENDBRANCH  14  17
ENDBRANCH  12  13
ENDBRANCH   1  12
TORSDOF 6
ENDMDL
MODEL 8
REMARK VINA RESULT:      -6.2      2.500      6.250
REMARK  Name = 
REMARK  8 active torsions:
REMARK  status: ('A' for Active; 'I' for Inactive)
REMARK    1  A    between atoms: C_1  and  O_2
REMARK    2  A    between atoms: O_2  and  C_3
REMARK    3  A    between atoms: C_7  and  O_8
REMARK    4  A    between atoms: O_8  and  C_9
REMARK    5  A    between atoms: C_9  and  C_10
REMARK    6  A    between atoms: C_9  and  C_11
REMARK    7  A    between atoms: C_11  and  N_12
REMARK    8  A    between atoms: C_13  and  C_15
REMARK                            x       y       z     vdW  Elec       q    Type
REMARK                         _______ _______ _______ _____ _____    ______ ____
ROOT
ATOM      1  C   UNL     1       4.203   4.090  16.555  0.00  0.00    +0.000 C 
ATOM      2  C   UNL     1       5.537   4.074  15.803  0.00  0.00    +0.000 C 
ENDROOT
BRANCH   1   3
ATOM      3  O   UNL     1       4.209   5.130  17.551  0.00  0.00    +0.000 OA
BRANCH   3   8
ATOM      4  C   UNL     1       7.288   7.213  17.695  0.00  0.00    +0.000 A 
ATOM      5  C   UNL     1       7.922   6.584  18.768  0.00  0.00    +0.000 A 
ATOM      6  C   UNL     1       7.299   5.522  19.425  0.00  0.00    +0.000 A 
ATOM      7  C   UNL     1       6.048   5.073  18.992  0.00  0.00    +0.000 A 
ATOM      8  C   UNL     1       5.408   5.687  17.912  0.00  0.00    +0.000 A 
ATOM      9  C   UNL     1       6.028   6.772  17.286  0.00  0.00    +0.000 A 
BRANCH   4  11
ATOM     10  C   UNL     1       8.288   9.360  17.926  0.00  0.00    +0.000 C 
ATOM     11  O   UNL     1       8.002   8.228  17.112  0.00  0.00    +0.000 OA
ENDBRANCH   4  11
ENDBRANCH   3   8
ENDBRANCH   1   3
BRANCH   1  12
ATOM     12  C   UNL     1       4.019   2.741  17.275  0.00  0.00    +0.000 C 
BRANCH  12  13
ATOM     13  N   UNL     1       2.861   2.717  18.150  0.00  0.00    +0.000 N 
ATOM     14  C   UNL     1       2.968   2.461  19.494  0.00  0.00    +0.000 C 
ATOM     15  O   UNL     1       4.026   2.272  20.077  0.00  0.00    +0.000 OA
ATOM     16  H   UNL     1       1.945   2.764  17.723  0.00  0.00    +0.000 HD
BRANCH  14  17
ATOM     17  C   UNL     1       1.662   2.464  20.212  0.00  0.00    +0.000 C 
ATOM     18  C   UNL     1       1.587   2.720  21.698  0.00  0.00    +0.000 C 
ATOM     19  C   UNL     1       1.118   3.773  20.738  0.00  0.00    +0.000 C 
ENDBRANCH  14  17
ENDBRANCH  12  13
ENDBRANCH   1  12
TORSDOF 6
ENDMDL
MODEL 9
REMARK VINA RESULT:      -6.2      1.924      2.558
REMARK  Name = 
REMARK  8 active torsions:
REMARK  status: ('A' for Active; 'I' for Inactive)
REMARK    1  A    between atoms: C_1  and  O_2
REMARK    2  A    between atoms: O_2  and  C_3
REMARK    3  A    between atoms: C_7  and  O_8
REMARK    4  A    between atoms: O_8  and  C_9
REMARK    5  A    between atoms: C_9  and  C_10
REMARK    6  A    between atoms: C_9  and  C_11
REMARK    7  A    between atoms: C_11  and  N_12
REMARK    8  A    between atoms: C_13  and  C_15
REMARK                            x       y       z     vdW  Elec       q    Type
REMARK                         _______ _______ _______ _____ _____    ______ ____
ROOT
ATOM      1  C   UNL     1       4.815   5.702  16.770  0.00  0.00    +0.000 C 
ATOM      2  C   UNL     1       4.389   7.110  17.198  0.00  0.00    +0.000 C 
ENDROOT
BRANCH   1   3
ATOM      3  O   UNL     1       4.881   4.836  17.919  0.00  0.00    +0.000 OA
BRANCH   3   8
ATOM      4  C   UNL     1       1.948   3.391  19.693  0.00  0.00    +0.000 A 
ATOM      5  C   UNL     1       1.601   2.406  18.768  0.00  0.00    +0.000 A 
ATOM      6  C   UNL     1       2.323   2.276  17.580  0.00  0.00    +0.000 A 
ATOM      7  C   UNL     1       3.408   3.119  17.329  0.00  0.00    +0.000 A 
ATOM      8  C   UNL     1       3.773   4.102  18.253  0.00  0.00    +0.000 A 
ATOM      9  C   UNL     1       3.020   4.244  19.422  0.00  0.00    +0.000 A 
BRANCH   4  11
ATOM     10  C   UNL     1       1.574   2.532  21.881  0.00  0.00    +0.000 C 
ATOM     11  O   UNL     1       1.185   3.412  20.833  0.00  0.00    +0.000 OA
ENDBRANCH   4  11
ENDBRANCH   3   8
ENDBRANCH   1   3
BRANCH   1  12
ATOM     12  C   UNL     1       6.221   5.774  16.146  0.00  0.00    +0.000 C 
BRANCH  12  13
ATOM     13  N   UNL     1       6.233   5.441  14.733  0.00  0.00    +0.000 N 
ATOM     14  C   UNL     1       6.157   4.145  14.290  0.00  0.00    +0.000 C 
ATOM     15  O   UNL     1       6.034   3.172  15.020  0.00  0.00    +0.000 OA
ATOM     16  H   UNL     1       6.433   6.182  14.075  0.00  0.00    +0.000 HD
BRANCH  14  17
ATOM     17  C   UNL     1       6.203   4.014  12.806  0.00  0.00    +0.000 C 
ATOM     18  C   UNL     1       6.178   2.659  12.138  0.00  0.00    +0.000 C 
ATOM     19  C   UNL     1       4.966   3.543  12.073  0.00  0.00    +0.000 C 
ENDBRANCH  14  17
ENDBRANCH  12  13
ENDBRANCH   1  12
TORSDOF 6
ENDMDL
