MODEL 1
REMARK VINA RESULT:      -7.4      0.000      0.000
REMARK  Name = 
REMARK  8 active torsions:
REMARK  status: ('A' for Active; 'I' for Inactive)
REMARK    1  A    between atoms: C_1  and  C_2
REMARK    2  A    between atoms: C_2  and  C_3
REMARK    3  A    between atoms: C_6  and  C_7
REMARK    4  A    between atoms: C_7  and  N_8
REMARK    5  A    between atoms: C_11  and  O_12
REMARK    6  A    between atoms: C_11  and  C_13
REMARK    7  A    between atoms: C_13  and  C_14
REMARK    8  A    between atoms: C_16  and  C_17
REMARK                            x       y       z     vdW  Elec       q    Type
REMARK                         _______ _______ _______ _____ _____    ______ ____
ROOT
ATOM      1  N   UNL     1       1.791   7.224  20.674  0.00  0.00    +0.000 NA
ATOM      2  C   UNL     1       2.289   7.351  19.300  0.00  0.00    +0.000 C 
ATOM      3  C   UNL     1       3.409   6.352  19.006  0.00  0.00    +0.000 C 
ATOM      4  C   UNL     1       2.951   4.912  19.261  0.00  0.00    +0.000 C 
ATOM      5  C   UNL     1       2.371   4.807  20.679  0.00  0.00    +0.000 C 
ATOM      6  C   UNL     1       1.293   5.861  20.928  0.00  0.00    +0.000 C 
ENDROOT
BRANCH   4   7
ATOM      7  O   UNL     1       1.904   4.617  18.315  0.00  0.00    +0.000 OA
ATOM      8  H   UNL     1       1.246   5.333  18.359  0.00  0.00    +0.000 HD
ENDBRANCH   4   7
BRANCH   1   9
ATOM      9  C   UNL     1       0.718   8.204  20.957  0.00  0.00    +0.000 C 
BRANCH   9  13
ATOM     10  C   UNL     1      -0.395  11.464  20.602  0.00  0.00    +0.000 C 
ATOM     11  N   UNL     1       0.357  11.600  21.641  0.00  0.00    +0.000 NA
ATOM     12  O   UNL     1       1.214  10.480  21.697  0.00  0.00    +0.000 OA
ATOM     13  C   UNL     1       1.012   9.660  20.536  0.00  0.00    +0.000 C 
ATOM     14  C   UNL     1      -0.144  10.266  19.770  0.00  0.00    +0.000 C 
BRANCH  10  16
ATOM     15  C   UNL     1      -1.068  13.843  20.752  0.00  0.00    +0.000 C 
ATOM     16  C   UNL     1      -1.440  12.467  20.228  0.00  0.00    +0.000 C 
ENDBRANCH  10  16
ENDBRANCH   9  13
ENDBRANCH   1   9
BRANCH   4  17
ATOM     17  C   UNL     1       4.130   3.929  19.049  0.00  0.00    +0.000 C 
BRANCH  17  18
ATOM     18  C   UNL     1       4.942   4.305  17.861  0.00  0.00    +0.000 A 
ATOM     19  C   UNL     1       4.736   4.205  16.511  0.00  0.00    +0.000 A 
ATOM     20  C   UNL     1       5.989   4.521  15.930  0.00  0.00    +0.000 A 
ATOM     21  N   UNL     1       6.865   4.878  16.883  0.00  0.00    +0.000 NA
ATOM     22  O   UNL     1       6.205   4.743  18.090  0.00  0.00    +0.000 OA
BRANCH  20  23
ATOM     23  C   UNL     1       6.354   4.437  14.519  0.00  0.00    +0.000 A 
ATOM     24  C   UNL     1       5.672   3.570  13.653  0.00  0.00    +0.000 A 
ATOM     25  C   UNL     1       6.046   3.468  12.312  0.00  0.00    +0.000 A 
ATOM     26  C   UNL     1       7.109   4.227  11.826  0.00  0.00    +0.000 A 
ATOM     27  C   UNL     1       7.796   5.087  12.675  0.00  0.00    +0.000 A 
ATOM     28  C   UNL     1       7.424   5.194  14.017  0.00  0.00    +0.000 A 
ENDBRANCH  20  23
ENDBRANCH  17  18
ENDBRANCH   4  17
TORSDOF 7
ENDMDL
MODEL 2
REMARK VINA RESULT:      -7.4      1.080      1.449
REMARK  Name = 
REMARK  8 active torsions:
REMARK  status: ('A' for Active; 'I' for Inactive)
REMARK    1  A    between atoms: C_1  and  C_2
REMARK    2  A    between atoms: C_2  and  C_3
REMARK    3  A    between atoms: C_6  and  C_7
REMARK    4  A    between atoms: C_7  and  N_8
REMARK    5  A    between atoms: C_11  and  O_12
REMARK    6  A    between atoms: C_11  and  C_13
REMARK    7  A    between atoms: C_13  and  C_14
REMARK    8  A    between atoms: C_16  and  C_17
REMARK                            x       y       z     vdW  Elec       q    Type
REMARK                         _______ _______ _______ _____ _____    ______ ____
ROOT
ATOM      1  N   UNL     1       2.140   7.672  20.016  0.00  0.00    +0.000 NA
ATOM      2  C   UNL     1       2.388   7.490  18.581  0.00  0.00    +0.000 C 
ATOM      3  C   UNL     1       3.352   6.333  18.313  0.00  0.00    +0.000 C 
ATOM      4  C   UNL     1       2.834   5.025  18.919  0.00  0.00    +0.000 C 
ATOM      5  C   UNL     1       2.516   5.246  20.406  0.00  0.00    +0.000 C 
ATOM      6  C   UNL     1       1.589   6.443  20.613  0.00  0.00    +0.000 C 
ENDROOT
BRANCH   4   7
ATOM      7  O   UNL     1       1.612   4.685  18.235  0.00  0.00    +0.000 OA
ATOM      8  H   UNL     1       1.247   3.883  18.648  0.00  0.00    +0.000 HD
ENDBRANCH   4   7
BRANCH   1   9
ATOM      9  C   UNL     1       1.219   8.802  20.270  0.00  0.00    +0.000 C 
BRANCH   9  13
ATOM     10  C   UNL     1      -0.350  11.600  18.963  0.00  0.00    +0.000 C 
ATOM     11  N   UNL     1       0.883  11.949  18.816  0.00  0.00    +0.000 NA
ATOM     12  O   UNL     1       1.672  10.783  18.912  0.00  0.00    +0.000 OA
ATOM     13  C   UNL     1       0.820   9.634  19.032  0.00  0.00    +0.000 C 
ATOM     14  C   UNL     1      -0.598  10.151  19.137  0.00  0.00    +0.000 C 
BRANCH  10  16
ATOM     15  C   UNL     1      -2.469  12.296  20.040  0.00  0.00    +0.000 C 
ATOM     16  C   UNL     1      -1.475  12.584  18.928  0.00  0.00    +0.000 C 
ENDBRANCH  10  16
ENDBRANCH   9  13
ENDBRANCH   1   9
BRANCH   4  17
ATOM     17  C   UNL     1       3.871   3.892  18.717  0.00  0.00    +0.000 C 
BRANCH  17  18
ATOM     18  C   UNL     1       4.824   4.218  17.623  0.00  0.00    +0.000 A 
ATOM     19  C   UNL     1       4.711   4.258  16.258  0.00  0.00    +0.000 A 
ATOM     20  C   UNL     1       6.040   4.406  15.790  0.00  0.00    +0.000 A 
ATOM     21  N   UNL     1       6.884   4.539  16.826  0.00  0.00    +0.000 NA
ATOM     22  O   UNL     1       6.119   4.423  17.971  0.00  0.00    +0.000 OA
BRANCH  20  23
ATOM     23  C   UNL     1       6.496   4.371  14.404  0.00  0.00    +0.000 A 
ATOM     24  C   UNL     1       7.493   5.250  13.955  0.00  0.00    +0.000 A 
ATOM     25  C   UNL     1       7.904   5.237  12.621  0.00  0.00    +0.000 A 
ATOM     26  C   UNL     1       7.318   4.348  11.722  0.00  0.00    +0.000 A 
ATOM     27  C   UNL     1       6.326   3.475  12.152  0.00  0.00    +0.000 A 
ATOM     28  C   UNL     1       5.913   3.484  13.487  0.00  0.00    +0.000 A 
ENDBRANCH  20  23
ENDBRANCH  17  18
ENDBRANCH   4  17
TORSDOF 7
ENDMDL
MODEL 3
REMARK VINA RESULT:      -7.2      1.478      2.078
REMARK  Name = 
REMARK  8 active torsions:
REMARK  status: ('A' for Active; 'I' for Inactive)
REMARK    1  A    between atoms: C_1  and  C_2
REMARK    2  A    between atoms: C_2  and  C_3
REMARK    3  A    between atoms: C_6  and  C_7
REMARK    4  A    between atoms: C_7  and  N_8
REMARK    5  A    between atoms: C_11  and  O_12
REMARK    6  A    between atoms: C_11  and  C_13
REMARK    7  A    between atoms: C_13  and  C_14
REMARK    8  A    between atoms: C_16  and  C_17
REMARK                            x       y       z     vdW  Elec       q    Type
REMARK                         _______ _______ _______ _____ _____    ______ ____
ROOT
ATOM      1  N   UNL     1       1.403   9.254  18.863  0.00  0.00    +0.000 NA
ATOM      2  C   UNL     1       1.951   8.725  17.609  0.00  0.00    +0.000 C 
ATOM      3  C   UNL     1       3.192   7.864  17.848  0.00  0.00    +0.000 C 
ATOM      4  C   UNL     1       2.892   6.710  18.810  0.00  0.00    +0.000 C 
ATOM      5  C   UNL     1       2.258   7.269  20.092  0.00  0.00    +0.000 C 
ATOM      6  C   UNL     1       1.054   8.159  19.786  0.00  0.00    +0.000 C 
ENDROOT
BRANCH   4   7
ATOM      7  O   UNL     1       1.934   5.847  18.165  0.00  0.00    +0.000 OA
ATOM      8  H   UNL     1       1.329   6.403  17.643  0.00  0.00    +0.000 HD
ENDBRANCH   4   7
BRANCH   1   9
ATOM      9  C   UNL     1       0.211  10.099  18.623  0.00  0.00    +0.000 C 
BRANCH   9  13
ATOM     10  C   UNL     1      -0.358  11.681  21.651  0.00  0.00    +0.000 C 
ATOM     11  N   UNL     1       0.927  11.764  21.597  0.00  0.00    +0.000 NA
ATOM     12  O   UNL     1       1.314  11.542  20.258  0.00  0.00    +0.000 OA
ATOM     13  C   UNL     1       0.146  11.410  19.435  0.00  0.00    +0.000 C 
ATOM     14  C   UNL     1      -1.048  11.435  20.365  0.00  0.00    +0.000 C 
BRANCH  10  16
ATOM     15  C   UNL     1      -2.578  12.179  22.631  0.00  0.00    +0.000 C 
ATOM     16  C   UNL     1      -1.123  11.853  22.925  0.00  0.00    +0.000 C 
ENDBRANCH  10  16
ENDBRANCH   9  13
ENDBRANCH   1   9
BRANCH   4  17
ATOM     17  C   UNL     1       4.185   5.911  19.110  0.00  0.00    +0.000 C 
BRANCH  17  18
ATOM     18  C   UNL     1       4.656   5.171  17.910  0.00  0.00    +0.000 A 
ATOM     19  C   UNL     1       5.556   5.463  16.919  0.00  0.00    +0.000 A 
ATOM     20  C   UNL     1       5.368   4.446  15.950  0.00  0.00    +0.000 A 
ATOM     21  N   UNL     1       4.469   3.549  16.388  0.00  0.00    +0.000 NA
ATOM     22  O   UNL     1       4.028   4.006  17.615  0.00  0.00    +0.000 OA
BRANCH  20  23
ATOM     23  C   UNL     1       5.987   4.359  14.631  0.00  0.00    +0.000 A 
ATOM     24  C   UNL     1       7.154   5.079  14.337  0.00  0.00    +0.000 A 
ATOM     25  C   UNL     1       7.724   5.019  13.065  0.00  0.00    +0.000 A 
ATOM     26  C   UNL     1       7.129   4.244  12.071  0.00  0.00    +0.000 A 
ATOM     27  C   UNL     1       5.969   3.530  12.347  0.00  0.00    +0.000 A 
ATOM     28  C   UNL     1       5.396   3.585  13.620  0.00  0.00    +0.000 A 
ENDBRANCH  20  23
ENDBRANCH  17  18
ENDBRANCH   4  17
TORSDOF 7
ENDMDL
MODEL 4
REMARK VINA RESULT:      -7.1      0.935      1.695
REMARK  Name = 
REMARK  8 active torsions:
REMARK  status: ('A' for Active; 'I' for Inactive)
REMARK    1  A    between atoms: C_1  and  C_2
REMARK    2  A    between atoms: C_2  and  C_3
REMARK    3  A    between atoms: C_6  and  C_7
REMARK    4  A    between atoms: C_7  and  N_8
REMARK    5  A    between atoms: C_11  and  O_12
REMARK    6  A    between atoms: C_11  and  C_13
REMARK    7  A    between atoms: C_13  and  C_14
REMARK    8  A    between atoms: C_16  and  C_17
REMARK                            x       y       z     vdW  Elec       q    Type
REMARK                         _______ _______ _______ _____ _____    ______ ____
ROOT
ATOM      1  N   UNL     1       1.163   7.542  20.258  0.00  0.00    +0.000 NA
ATOM      2  C   UNL     1       1.573   6.421  21.111  0.00  0.00    +0.000 C 
ATOM      3  C   UNL     1       1.867   5.162  20.295  0.00  0.00    +0.000 C 
ATOM      4  C   UNL     1       2.939   5.425  19.234  0.00  0.00    +0.000 C 
ATOM      5  C   UNL     1       2.532   6.641  18.388  0.00  0.00    +0.000 C 
ATOM      6  C   UNL     1       2.204   7.851  19.261  0.00  0.00    +0.000 C 
ENDROOT
BRANCH   4   7
ATOM      7  O   UNL     1       4.165   5.738  19.925  0.00  0.00    +0.000 OA
ATOM      8  H   UNL     1       4.863   5.152  19.585  0.00  0.00    +0.000 HD
ENDBRANCH   4   7
BRANCH   1   9
ATOM      9  C   UNL     1       0.866   8.754  21.055  0.00  0.00    +0.000 C 
BRANCH   9  13
ATOM     10  C   UNL     1      -0.440  11.784  20.003  0.00  0.00    +0.000 C 
ATOM     11  N   UNL     1       0.285  12.187  20.990  0.00  0.00    +0.000 NA
ATOM     12  O   UNL     1       1.209  11.162  21.289  0.00  0.00    +0.000 OA
ATOM     13  C   UNL     1       1.076  10.101  20.331  0.00  0.00    +0.000 C 
ATOM     14  C   UNL     1      -0.102  10.454  19.450  0.00  0.00    +0.000 C 
BRANCH  10  16
ATOM     15  C   UNL     1      -2.642  11.727  18.870  0.00  0.00    +0.000 C 
ATOM     16  C   UNL     1      -1.539  12.614  19.420  0.00  0.00    +0.000 C 
ENDBRANCH  10  16
ENDBRANCH   9  13
ENDBRANCH   1   9
BRANCH   4  17
ATOM     17  C   UNL     1       3.149   4.163  18.359  0.00  0.00    +0.000 C 
BRANCH  17  18
ATOM     18  C   UNL     1       4.277   4.345  17.407  0.00  0.00    +0.000 A 
ATOM     19  C   UNL     1       4.342   4.541  16.053  0.00  0.00    +0.000 A 
ATOM     20  C   UNL     1       5.715   4.398  15.733  0.00  0.00    +0.000 A 
ATOM     21  N   UNL     1       6.436   4.218  16.852  0.00  0.00    +0.000 NA
ATOM     22  O   UNL     1       5.532   4.188  17.897  0.00  0.00    +0.000 OA
BRANCH  20  23
ATOM     23  C   UNL     1       6.314   4.383  14.402  0.00  0.00    +0.000 A 
ATOM     24  C   UNL     1       7.366   5.254  14.079  0.00  0.00    +0.000 A 
ATOM     25  C   UNL     1       7.914   5.259  12.796  0.00  0.00    +0.000 A 
ATOM     26  C   UNL     1       7.413   4.399  11.821  0.00  0.00    +0.000 A 
ATOM     27  C   UNL     1       6.369   3.534  12.126  0.00  0.00    +0.000 A 
ATOM     28  C   UNL     1       5.818   3.523  13.410  0.00  0.00    +0.000 A 
ENDBRANCH  20  23
ENDBRANCH  17  18
ENDBRANCH   4  17
TORSDOF 7
ENDMDL
MODEL 5
REMARK VINA RESULT:      -7.1      2.146      2.580
REMARK  Name = 
REMARK  8 active torsions:
REMARK  status: ('A' for Active; 'I' for Inactive)
REMARK    1  A    between atoms: C_1  and  C_2
REMARK    2  A    between atoms: C_2  and  C_3
REMARK    3  A    between atoms: C_6  and  C_7
REMARK    4  A    between atoms: C_7  and  N_8
REMARK    5  A    between atoms: C_11  and  O_12
REMARK    6  A    between atoms: C_11  and  C_13
REMARK    7  A    between atoms: C_13  and  C_14
REMARK    8  A    between atoms: C_16  and  C_17
REMARK                            x       y       z     vdW  Elec       q    Type
REMARK                         _______ _______ _______ _____ _____    ______ ____
ROOT
ATOM      1  N   UNL     1       1.517   8.762  19.660  0.00  0.00    +0.000 NA
ATOM      2  C   UNL     1       1.938   8.395  18.303  0.00  0.00    +0.000 C 
ATOM      3  C   UNL     1       3.195   7.523  18.314  0.00  0.00    +0.000 C 
ATOM      4  C   UNL     1       2.987   6.258  19.152  0.00  0.00    +0.000 C 
ATOM      5  C   UNL     1       2.483   6.651  20.549  0.00  0.00    +0.000 C 
ATOM      6  C   UNL     1       1.258   7.560  20.472  0.00  0.00    +0.000 C 
ENDROOT
BRANCH   4   7
ATOM      7  O   UNL     1       1.969   5.471  18.503  0.00  0.00    +0.000 OA
ATOM      8  H   UNL     1       1.173   6.022  18.411  0.00  0.00    +0.000 HD
ENDBRANCH   4   7
BRANCH   1   9
ATOM      9  C   UNL     1       0.310   9.618  19.643  0.00  0.00    +0.000 C 
BRANCH   9  13
ATOM     10  C   UNL     1      -1.979  11.115  17.517  0.00  0.00    +0.000 C 
ATOM     11  N   UNL     1      -1.393  12.164  17.985  0.00  0.00    +0.000 NA
ATOM     12  O   UNL     1      -0.168  11.753  18.553  0.00  0.00    +0.000 OA
ATOM     13  C   UNL     1       0.026  10.350  18.313  0.00  0.00    +0.000 C 
ATOM     14  C   UNL     1      -1.236   9.842  17.651  0.00  0.00    +0.000 C 
BRANCH  10  16
ATOM     15  C   UNL     1      -3.180  10.861  15.366  0.00  0.00    +0.000 C 
ATOM     16  C   UNL     1      -3.315  11.171  16.847  0.00  0.00    +0.000 C 
ENDBRANCH  10  16
ENDBRANCH   9  13
ENDBRANCH   1   9
BRANCH   4  17
ATOM     17  C   UNL     1       4.302   5.441  19.226  0.00  0.00    +0.000 C 
BRANCH  17  18
ATOM     18  C   UNL     1       4.637   4.833  17.910  0.00  0.00    +0.000 A 
ATOM     19  C   UNL     1       5.661   5.021  17.021  0.00  0.00    +0.000 A 
ATOM     20  C   UNL     1       5.268   4.309  15.861  0.00  0.00    +0.000 A 
ATOM     21  N   UNL     1       4.114   3.659  16.085  0.00  0.00    +0.000 NA
ATOM     22  O   UNL     1       3.724   3.988  17.370  0.00  0.00    +0.000 OA
BRANCH  20  23
ATOM     23  C   UNL     1       5.941   4.290  14.566  0.00  0.00    +0.000 A 
ATOM     24  C   UNL     1       7.097   5.055  14.348  0.00  0.00    +0.000 A 
ATOM     25  C   UNL     1       7.720   5.060  13.099  0.00  0.00    +0.000 A 
ATOM     26  C   UNL     1       7.190   4.305  12.054  0.00  0.00    +0.000 A 
ATOM     27  C   UNL     1       6.042   3.547  12.255  0.00  0.00    +0.000 A 
ATOM     28  C   UNL     1       5.417   3.537  13.505  0.00  0.00    +0.000 A 
ENDBRANCH  20  23
ENDBRANCH  17  18
ENDBRANCH   4  17
TORSDOF 7
ENDMDL
MODEL 6
REMARK VINA RESULT:      -7.1      1.436      1.727
REMARK  Name = 
REMARK  8 active torsions:
REMARK  status: ('A' for Active; 'I' for Inactive)
REMARK    1  A    between atoms: C_1  and  C_2
REMARK    2  A    between atoms: C_2  and  C_3
REMARK    3  A    between atoms: C_6  and  C_7
REMARK    4  A    between atoms: C_7  and  N_8
REMARK    5  A    between atoms: C_11  and  O_12
REMARK    6  A    between atoms: C_11  and  C_13
REMARK    7  A    between atoms: C_13  and  C_14
REMARK    8  A    between atoms: C_16  and  C_17
REMARK                            x       y       z     vdW  Elec       q    Type
REMARK                         _______ _______ _______ _____ _____    ______ ____
ROOT
ATOM      1  N   UNL     1       1.543   9.090  19.182  0.00  0.00    +0.000 NA
ATOM      2  C   UNL     1       2.054   8.668  17.873  0.00  0.00    +0.000 C 
ATOM      3  C   UNL     1       3.285   7.770  18.006  0.00  0.00    +0.000 C 
ATOM      4  C   UNL     1       2.986   6.539  18.867  0.00  0.00    +0.000 C 
ATOM      5  C   UNL     1       2.390   6.990  20.209  0.00  0.00    +0.000 C 
ATOM      6  C   UNL     1       1.195   7.922  20.011  0.00  0.00    +0.000 C 
ENDROOT
BRANCH   4   7
ATOM      7  O   UNL     1       2.000   5.752  18.169  0.00  0.00    +0.000 OA
ATOM      8  H   UNL     1       1.180   6.272  18.117  0.00  0.00    +0.000 HD
ENDBRANCH   4   7
BRANCH   1   9
ATOM      9  C   UNL     1       0.360   9.970  19.047  0.00  0.00    +0.000 C 
BRANCH   9  13
ATOM     10  C   UNL     1      -0.837  11.430  21.950  0.00  0.00    +0.000 C 
ATOM     11  N   UNL     1       0.372  11.168  22.317  0.00  0.00    +0.000 NA
ATOM     12  O   UNL     1       1.134  10.946  21.149  0.00  0.00    +0.000 OA
ATOM     13  C   UNL     1       0.322  11.191  19.991  0.00  0.00    +0.000 C 
ATOM     14  C   UNL     1      -1.078  11.470  20.491  0.00  0.00    +0.000 C 
BRANCH  10  16
ATOM     15  C   UNL     1      -1.927  13.178  23.324  0.00  0.00    +0.000 C 
ATOM     16  C   UNL     1      -1.931  11.712  22.930  0.00  0.00    +0.000 C 
ENDBRANCH  10  16
ENDBRANCH   9  13
ENDBRANCH   1   9
BRANCH   4  17
ATOM     17  C   UNL     1       4.272   5.697  19.065  0.00  0.00    +0.000 C 
BRANCH  17  18
ATOM     18  C   UNL     1       4.677   5.021  17.804  0.00  0.00    +0.000 A 
ATOM     19  C   UNL     1       5.621   5.296  16.851  0.00  0.00    +0.000 A 
ATOM     20  C   UNL     1       5.335   4.401  15.790  0.00  0.00    +0.000 A 
ATOM     21  N   UNL     1       4.332   3.578  16.136  0.00  0.00    +0.000 NA
ATOM     22  O   UNL     1       3.924   3.968  17.398  0.00  0.00    +0.000 OA
BRANCH  20  23
ATOM     23  C   UNL     1       5.962   4.364  14.472  0.00  0.00    +0.000 A 
ATOM     24  C   UNL     1       5.417   3.585  13.441  0.00  0.00    +0.000 A 
ATOM     25  C   UNL     1       6.037   3.527  12.192  0.00  0.00    +0.000 A 
ATOM     26  C   UNL     1       7.212   4.241  11.964  0.00  0.00    +0.000 A 
ATOM     27  C   UNL     1       7.765   5.013  12.979  0.00  0.00    +0.000 A 
ATOM     28  C   UNL     1       7.146   5.076  14.230  0.00  0.00    +0.000 A 
ENDBRANCH  20  23
ENDBRANCH  17  18
ENDBRANCH   4  17
TORSDOF 7
ENDMDL
MODEL 7
REMARK VINA RESULT:      -7.1      5.630      8.139
REMARK  Name = 
REMARK  8 active torsions:
REMARK  status: ('A' for Active; 'I' for Inactive)
REMARK    1  A    between atoms: C_1  and  C_2
REMARK    2  A    between atoms: C_2  and  C_3
REMARK    3  A    between atoms: C_6  and  C_7
REMARK    4  A    between atoms: C_7  and  N_8
REMARK    5  A    between atoms: C_11  and  O_12
REMARK    6  A    between atoms: C_11  and  C_13
REMARK    7  A    between atoms: C_13  and  C_14
REMARK    8  A    between atoms: C_16  and  C_17
REMARK                            x       y       z     vdW  Elec       q    Type
REMARK                         _______ _______ _______ _____ _____    ______ ____
ROOT
ATOM      1  N   UNL     1       5.284   4.790  17.348  0.00  0.00    +0.000 NA
ATOM      2  C   UNL     1       5.099   6.235  17.168  0.00  0.00    +0.000 C 
ATOM      3  C   UNL     1       6.011   7.044  18.091  0.00  0.00    +0.000 C 
ATOM      4  C   UNL     1       7.483   6.680  17.878  0.00  0.00    +0.000 C 
ATOM      5  C   UNL     1       7.653   5.158  18.004  0.00  0.00    +0.000 C 
ATOM      6  C   UNL     1       6.683   4.405  17.095  0.00  0.00    +0.000 C 
ENDROOT
BRANCH   4   7
ATOM      7  O   UNL     1       7.836   7.070  16.536  0.00  0.00    +0.000 OA
ATOM      8  H   UNL     1       7.954   6.263  16.007  0.00  0.00    +0.000 HD
ENDBRANCH   4   7
BRANCH   1   9
ATOM      9  C   UNL     1       4.388   4.012  16.463  0.00  0.00    +0.000 C 
BRANCH   9  13
ATOM     10  C   UNL     1       1.863   3.739  18.818  0.00  0.00    +0.000 C 
ATOM     11  N   UNL     1       1.159   3.722  17.737  0.00  0.00    +0.000 NA
ATOM     12  O   UNL     1       2.027   3.414  16.667  0.00  0.00    +0.000 OA
ATOM     13  C   UNL     1       3.339   3.132  17.177  0.00  0.00    +0.000 C 
ATOM     14  C   UNL     1       3.296   3.406  18.665  0.00  0.00    +0.000 C 
BRANCH  10  16
ATOM     15  C   UNL     1       1.781   5.377  20.674  0.00  0.00    +0.000 C 
ATOM     16  C   UNL     1       1.271   4.042  20.158  0.00  0.00    +0.000 C 
ENDBRANCH  10  16
ENDBRANCH   9  13
ENDBRANCH   1   9
BRANCH   4  17
ATOM     17  C   UNL     1       8.376   7.442  18.889  0.00  0.00    +0.000 C 
BRANCH  17  18
ATOM     18  C   UNL     1       8.569   8.859  18.481  0.00  0.00    +0.000 A 
ATOM     19  C   UNL     1       9.439   9.841  18.875  0.00  0.00    +0.000 A 
ATOM     20  C   UNL     1       8.943  11.025  18.274  0.00  0.00    +0.000 A 
ATOM     21  N   UNL     1       7.889  10.741  17.492  0.00  0.00    +0.000 NA
ATOM     22  O   UNL     1       7.659   9.385  17.623  0.00  0.00    +0.000 OA
BRANCH  20  23
ATOM     23  C   UNL     1       9.426  12.387  18.478  0.00  0.00    +0.000 A 
ATOM     24  C   UNL     1      10.074  13.080  17.445  0.00  0.00    +0.000 A 
ATOM     25  C   UNL     1      10.563  14.371  17.653  0.00  0.00    +0.000 A 
ATOM     26  C   UNL     1      10.416  14.978  18.899  0.00  0.00    +0.000 A 
ATOM     27  C   UNL     1       9.781  14.300  19.933  0.00  0.00    +0.000 A 
ATOM     28  C   UNL     1       9.287  13.009  19.728  0.00  0.00    +0.000 A 
ENDBRANCH  20  23
ENDBRANCH  17  18
ENDBRANCH   4  17
TORSDOF 7
ENDMDL
MODEL 8
REMARK VINA RESULT:      -7.0      2.466      9.318
REMARK  Name = 
REMARK  8 active torsions:
REMARK  status: ('A' for Active; 'I' for Inactive)
REMARK    1  A    between atoms: C_1  and  C_2
REMARK    2  A    between atoms: C_2  and  C_3
REMARK    3  A    between atoms: C_6  and  C_7
REMARK    4  A    between atoms: C_7  and  N_8
REMARK    5  A    between atoms: C_11  and  O_12
REMARK    6  A    between atoms: C_11  and  C_13
REMARK    7  A    between atoms: C_13  and  C_14
REMARK    8  A    between atoms: C_16  and  C_17
REMARK                            x       y       z     vdW  Elec       q    Type
REMARK                         _______ _______ _______ _____ _____    ______ ____
ROOT
ATOM      1  N   UNL     1       4.900   5.471  17.532  0.00  0.00    +0.000 NA
ATOM      2  C   UNL     1       5.043   6.906  17.805  0.00  0.00    +0.000 C 
ATOM      3  C   UNL     1       3.757   7.674  17.499  0.00  0.00    +0.000 C 
ATOM      4  C   UNL     1       2.571   7.112  18.289  0.00  0.00    +0.000 C 
ATOM      5  C   UNL     1       2.471   5.598  18.048  0.00  0.00    +0.000 C 
ATOM      6  C   UNL     1       3.799   4.894  18.324  0.00  0.00    +0.000 C 
ENDROOT
BRANCH   4   7
ATOM      7  O   UNL     1       2.839   7.336  19.688  0.00  0.00    +0.000 OA
ATOM      8  H   UNL     1       2.756   8.289  19.863  0.00  0.00    +0.000 HD
ENDBRANCH   4   7
BRANCH   1   9
ATOM      9  C   UNL     1       6.153   4.735  17.816  0.00  0.00    +0.000 C 
BRANCH   9  13
ATOM     10  C   UNL     1       6.310   4.347  14.378  0.00  0.00    +0.000 C 
ATOM     11  N   UNL     1       7.187   5.279  14.535  0.00  0.00    +0.000 NA
ATOM     12  O   UNL     1       7.560   5.289  15.897  0.00  0.00    +0.000 OA
ATOM     13  C   UNL     1       6.914   4.206  16.582  0.00  0.00    +0.000 C 
ATOM     14  C   UNL     1       5.980   3.555  15.584  0.00  0.00    +0.000 C 
BRANCH  10  16
ATOM     15  C   UNL     1       6.688   3.416  12.115  0.00  0.00    +0.000 C 
ATOM     16  C   UNL     1       5.678   4.051  13.055  0.00  0.00    +0.000 C 
ENDBRANCH  10  16
ENDBRANCH   9  13
ENDBRANCH   1   9
BRANCH   4  17
ATOM     17  C   UNL     1       1.265   7.843  17.890  0.00  0.00    +0.000 C 
BRANCH  17  18
ATOM     18  C   UNL     1       1.217   9.216  18.460  0.00  0.00    +0.000 A 
ATOM     19  C   UNL     1       1.638  10.437  18.005  0.00  0.00    +0.000 A 
ATOM     20  C   UNL     1       1.513  11.301  19.122  0.00  0.00    +0.000 A 
ATOM     21  N   UNL     1       0.960  10.645  20.155  0.00  0.00    +0.000 NA
ATOM     22  O   UNL     1       0.774   9.341  19.736  0.00  0.00    +0.000 OA
BRANCH  20  23
ATOM     23  C   UNL     1       1.952  12.690  19.217  0.00  0.00    +0.000 A 
ATOM     24  C   UNL     1       2.523  13.339  18.112  0.00  0.00    +0.000 A 
ATOM     25  C   UNL     1       2.972  14.656  18.216  0.00  0.00    +0.000 A 
ATOM     26  C   UNL     1       2.861  15.335  19.428  0.00  0.00    +0.000 A 
ATOM     27  C   UNL     1       2.302  14.703  20.532  0.00  0.00    +0.000 A 
ATOM     28  C   UNL     1       1.849  13.385  20.432  0.00  0.00    +0.000 A 
ENDBRANCH  20  23
ENDBRANCH  17  18
ENDBRANCH   4  17
TORSDOF 7
ENDMDL
MODEL 9
REMARK VINA RESULT:      -7.0      1.239      1.519
REMARK  Name = 
REMARK  8 active torsions:
REMARK  status: ('A' for Active; 'I' for Inactive)
REMARK    1  A    between atoms: C_1  and  C_2
REMARK    2  A    between atoms: C_2  and  C_3
REMARK    3  A    between atoms: C_6  and  C_7
REMARK    4  A    between atoms: C_7  and  N_8
REMARK    5  A    between atoms: C_11  and  O_12
REMARK    6  A    between atoms: C_11  and  C_13
REMARK    7  A    between atoms: C_13  and  C_14
REMARK    8  A    between atoms: C_16  and  C_17
REMARK                            x       y       z     vdW  Elec       q    Type
REMARK                         _______ _______ _______ _____ _____    ______ ____
ROOT
ATOM      1  N   UNL     1       1.621   8.984  19.450  0.00  0.00    +0.000 NA
ATOM      2  C   UNL     1       1.973   8.610  18.075  0.00  0.00    +0.000 C 
ATOM      3  C   UNL     1       3.188   7.683  18.031  0.00  0.00    +0.000 C 
ATOM      4  C   UNL     1       2.956   6.421  18.868  0.00  0.00    +0.000 C 
ATOM      5  C   UNL     1       2.525   6.824  20.286  0.00  0.00    +0.000 C 
ATOM      6  C   UNL     1       1.339   7.788  20.263  0.00  0.00    +0.000 C 
ENDROOT
BRANCH   4   7
ATOM      7  O   UNL     1       1.879   5.686  18.254  0.00  0.00    +0.000 OA
ATOM      8  H   UNL     1       1.041   6.113  18.502  0.00  0.00    +0.000 HD
ENDBRANCH   4   7
BRANCH   1   9
ATOM      9  C   UNL     1       0.454   9.894  19.485  0.00  0.00    +0.000 C 
BRANCH   9  13
ATOM     10  C   UNL     1      -0.968  11.853  21.962  0.00  0.00    +0.000 C 
ATOM     11  N   UNL     1      -0.114  11.192  22.667  0.00  0.00    +0.000 NA
ATOM     12  O   UNL     1       0.837  10.641  21.780  0.00  0.00    +0.000 OA
ATOM     13  C   UNL     1       0.571  11.097  20.445  0.00  0.00    +0.000 C 
ATOM     14  C   UNL     1      -0.715  11.894  20.505  0.00  0.00    +0.000 C 
BRANCH  10  16
ATOM     15  C   UNL     1      -3.332  12.519  21.643  0.00  0.00    +0.000 C 
ATOM     16  C   UNL     1      -2.131  12.569  22.571  0.00  0.00    +0.000 C 
ENDBRANCH  10  16
ENDBRANCH   9  13
ENDBRANCH   1   9
BRANCH   4  17
ATOM     17  C   UNL     1       4.234   5.545  18.885  0.00  0.00    +0.000 C 
BRANCH  17  18
ATOM     18  C   UNL     1       4.954   5.612  17.585  0.00  0.00    +0.000 A 
ATOM     19  C   UNL     1       4.743   5.029  16.363  0.00  0.00    +0.000 A 
ATOM     20  C   UNL     1       5.917   5.311  15.622  0.00  0.00    +0.000 A 
ATOM     21  N   UNL     1       6.739   6.097  16.336  0.00  0.00    +0.000 NA
ATOM     22  O   UNL     1       6.131   6.284  17.564  0.00  0.00    +0.000 OA
BRANCH  20  23
ATOM     23  C   UNL     1       6.267   4.808  14.297  0.00  0.00    +0.000 A 
ATOM     24  C   UNL     1       5.487   3.820  13.677  0.00  0.00    +0.000 A 
ATOM     25  C   UNL     1       5.843   3.316  12.425  0.00  0.00    +0.000 A 
ATOM     26  C   UNL     1       6.985   3.792  11.783  0.00  0.00    +0.000 A 
ATOM     27  C   UNL     1       7.768   4.768  12.388  0.00  0.00    +0.000 A 
ATOM     28  C   UNL     1       7.415   5.276  13.640  0.00  0.00    +0.000 A 
ENDBRANCH  20  23
ENDBRANCH  17  18
ENDBRANCH   4  17
TORSDOF 7
ENDMDL
