MODEL 1
REMARK VINA RESULT:      -7.3      0.000      0.000
REMARK  Name = 
REMARK  11 active torsions:
REMARK  status: ('A' for Active; 'I' for Inactive)
REMARK    1  A    between atoms: C_1  and  C_2
REMARK    2  A    between atoms: C_4  and  S_5
REMARK    3  A    between atoms: S_5  and  C_6
REMARK    4  A    between atoms: C_6  and  C_7
REMARK    5  A    between atoms: N_9  and  N_10
REMARK    6  A    between atoms: C_11  and  C_13
REMARK    7  A    between atoms: C_13  and  C_14
REMARK    8  A    between atoms: C_21  and  S_22
REMARK    9  A    between atoms: S_22  and  C_23
REMARK   10  A    between atoms: C_23  and  C_24
REMARK   11  A    between atoms: C_24  and  N_25
REMARK                            x       y       z     vdW  Elec       q    Type
REMARK                         _______ _______ _______ _____ _____    ______ ____
ROOT
ATOM      1  S   UNL     1       3.396   4.348  17.579  0.00  0.00    +0.000 S 
ENDROOT
BRANCH   1   5
ATOM      2  C   UNL     1       7.188   4.958  13.997  0.00  0.00    +0.000 C 
ATOM      3  C   UNL     1       6.618   5.190  15.363  0.00  0.00    +0.000 A 
ATOM      4  C   UNL     1       5.371   4.724  15.713  0.00  0.00    +0.000 A 
ATOM      5  C   UNL     1       4.944   5.021  16.992  0.00  0.00    +0.000 A 
ATOM      6  N   UNL     1       5.689   5.707  17.882  0.00  0.00    +0.000 NA
ATOM      7  C   UNL     1       6.901   6.101  17.458  0.00  0.00    +0.000 A 
ATOM      8  N   UNL     1       7.391   5.877  16.227  0.00  0.00    +0.000 NA
BRANCH   7   9
ATOM      9  S   UNL     1       7.958   7.038  18.546  0.00  0.00    +0.000 S 
BRANCH   9  10
ATOM     10  C   UNL     1       7.989   8.640  17.672  0.00  0.00    +0.000 C 
BRANCH  10  11
ATOM     11  C   UNL     1       8.595   9.760  18.550  0.00  0.00    +0.000 C 
BRANCH  11  12
ATOM     12  N   UNL     1       9.290  10.815  17.781  0.00  0.00    +0.000 NA
ATOM     13  C   UNL     1      10.707  10.965  18.189  0.00  0.00    +0.000 C 
ATOM     14  C   UNL     1      10.914  11.749  19.499  0.00  0.00    +0.000 C 
ATOM     15  O   UNL     1      10.298  13.040  19.438  0.00  0.00    +0.000 OA
ATOM     16  C   UNL     1       8.901  12.924  19.145  0.00  0.00    +0.000 C 
ATOM     17  C   UNL     1       8.657  12.150  17.840  0.00  0.00    +0.000 C 
ENDBRANCH  11  12
ENDBRANCH  10  11
ENDBRANCH   9  10
ENDBRANCH   7   9
ENDBRANCH   1   5
BRANCH   1  18
ATOM     18  C   UNL     1       3.728   4.183  19.364  0.00  0.00    +0.000 C 
BRANCH  18  19
ATOM     19  C   UNL     1       2.880   5.113  20.224  0.00  0.00    +0.000 C 
ATOM     20  O   UNL     1       2.283   4.771  21.243  0.00  0.00    +0.000 OA
ATOM     21  N   UNL     1       2.864   6.423  19.775  0.00  0.00    +0.000 N 
ATOM     22  H   UNL     1       3.359   6.755  18.948  0.00  0.00    +0.000 HD
BRANCH  21  23
ATOM     23  N   UNL     1       2.133   7.390  20.487  0.00  0.00    +0.000 N 
ATOM     24  C   UNL     1       1.644   8.477  19.784  0.00  0.00    +0.000 C 
ATOM     25  O   UNL     1       1.853   8.616  18.583  0.00  0.00    +0.000 OA
ATOM     26  H   UNL     1       1.876   7.167  21.447  0.00  0.00    +0.000 HD
BRANCH  24  27
ATOM     27  C   UNL     1       0.874   9.495  20.610  0.00  0.00    +0.000 C 
BRANCH  27  28
ATOM     28  C   UNL     1       0.290  10.634  19.806  0.00  0.00    +0.000 A 
ATOM     29  C   UNL     1      -0.980  10.513  19.223  0.00  0.00    +0.000 A 
ATOM     30  C   UNL     1      -1.543  11.581  18.516  0.00  0.00    +0.000 A 
ATOM     31  C   UNL     1      -0.848  12.781  18.389  0.00  0.00    +0.000 A 
ATOM     32  C   UNL     1       0.407  12.918  18.977  0.00  0.00    +0.000 A 
ATOM     33  C   UNL     1       0.971  11.854  19.686  0.00  0.00    +0.000 A 
ENDBRANCH  27  28
ENDBRANCH  24  27
ENDBRANCH  21  23
ENDBRANCH  18  19
ENDBRANCH   1  18
TORSDOF 10
ENDMDL
MODEL 2
REMARK VINA RESULT:      -7.3      2.406      7.918
REMARK  Name = 
REMARK  11 active torsions:
REMARK  status: ('A' for Active; 'I' for Inactive)
REMARK    1  A    between atoms: C_1  and  C_2
REMARK    2  A    between atoms: C_4  and  S_5
REMARK    3  A    between atoms: S_5  and  C_6
REMARK    4  A    between atoms: C_6  and  C_7
REMARK    5  A    between atoms: N_9  and  N_10
REMARK    6  A    between atoms: C_11  and  C_13
REMARK    7  A    between atoms: C_13  and  C_14
REMARK    8  A    between atoms: C_21  and  S_22
REMARK    9  A    between atoms: S_22  and  C_23
REMARK   10  A    between atoms: C_23  and  C_24
REMARK   11  A    between atoms: C_24  and  N_25
REMARK                            x       y       z     vdW  Elec       q    Type
REMARK                         _______ _______ _______ _____ _____    ______ ____
ROOT
ATOM      1  S   UNL     1       4.897   4.048  16.649  0.00  0.00    +0.000 S 
ENDROOT
BRANCH   1   5
ATOM      2  C   UNL     1       1.835   4.452  20.897  0.00  0.00    +0.000 C 
ATOM      3  C   UNL     1       2.479   5.039  19.678  0.00  0.00    +0.000 A 
ATOM      4  C   UNL     1       3.331   4.302  18.888  0.00  0.00    +0.000 A 
ATOM      5  C   UNL     1       3.882   4.958  17.804  0.00  0.00    +0.000 A 
ATOM      6  N   UNL     1       3.605   6.242  17.496  0.00  0.00    +0.000 NA
ATOM      7  C   UNL     1       2.746   6.873  18.313  0.00  0.00    +0.000 A 
ATOM      8  N   UNL     1       2.179   6.322  19.400  0.00  0.00    +0.000 NA
BRANCH   7   9
ATOM      9  S   UNL     1       2.332   8.581  18.012  0.00  0.00    +0.000 S 
BRANCH   9  10
ATOM     10  C   UNL     1       1.418   8.970  19.543  0.00  0.00    +0.000 C 
BRANCH  10  11
ATOM     11  C   UNL     1       0.202   9.885  19.269  0.00  0.00    +0.000 C 
BRANCH  11  12
ATOM     12  N   UNL     1       0.162  11.101  20.110  0.00  0.00    +0.000 NA
ATOM     13  C   UNL     1      -1.124  11.827  19.985  0.00  0.00    +0.000 C 
ATOM     14  C   UNL     1      -1.255  12.677  18.708  0.00  0.00    +0.000 C 
ATOM     15  O   UNL     1      -0.171  13.605  18.585  0.00  0.00    +0.000 OA
ATOM     16  C   UNL     1       1.088  12.922  18.599  0.00  0.00    +0.000 C 
ATOM     17  C   UNL     1       1.254  12.066  19.864  0.00  0.00    +0.000 C 
ENDBRANCH  11  12
ENDBRANCH  10  11
ENDBRANCH   9  10
ENDBRANCH   7   9
ENDBRANCH   1   5
BRANCH   1  18
ATOM     18  C   UNL     1       5.995   5.361  16.022  0.00  0.00    +0.000 C 
BRANCH  18  19
ATOM     19  C   UNL     1       7.047   5.802  17.033  0.00  0.00    +0.000 C 
ATOM     20  O   UNL     1       7.803   5.040  17.631  0.00  0.00    +0.000 OA
ATOM     21  N   UNL     1       7.112   7.175  17.201  0.00  0.00    +0.000 N 
ATOM     22  H   UNL     1       6.520   7.846  16.712  0.00  0.00    +0.000 HD
BRANCH  21  23
ATOM     23  N   UNL     1       8.053   7.719  18.094  0.00  0.00    +0.000 N 
ATOM     24  C   UNL     1       8.212   9.094  18.106  0.00  0.00    +0.000 C 
ATOM     25  O   UNL     1       7.576   9.824  17.353  0.00  0.00    +0.000 OA
ATOM     26  H   UNL     1       8.458   7.091  18.785  0.00  0.00    +0.000 HD
BRANCH  24  27
ATOM     27  C   UNL     1       9.252   9.621  19.082  0.00  0.00    +0.000 C 
BRANCH  27  28
ATOM     28  C   UNL     1       9.709  11.034  18.800  0.00  0.00    +0.000 A 
ATOM     29  C   UNL     1       9.376  12.076  19.678  0.00  0.00    +0.000 A 
ATOM     30  C   UNL     1       9.835  13.377  19.444  0.00  0.00    +0.000 A 
ATOM     31  C   UNL     1      10.635  13.649  18.337  0.00  0.00    +0.000 A 
ATOM     32  C   UNL     1      10.985  12.620  17.467  0.00  0.00    +0.000 A 
ATOM     33  C   UNL     1      10.530  11.319  17.699  0.00  0.00    +0.000 A 
ENDBRANCH  27  28
ENDBRANCH  24  27
ENDBRANCH  21  23
ENDBRANCH  18  19
ENDBRANCH   1  18
TORSDOF 10
ENDMDL
MODEL 3
REMARK VINA RESULT:      -7.2      2.387      8.104
REMARK  Name = 
REMARK  11 active torsions:
REMARK  status: ('A' for Active; 'I' for Inactive)
REMARK    1  A    between atoms: C_1  and  C_2
REMARK    2  A    between atoms: C_4  and  S_5
REMARK    3  A    between atoms: S_5  and  C_6
REMARK    4  A    between atoms: C_6  and  C_7
REMARK    5  A    between atoms: N_9  and  N_10
REMARK    6  A    between atoms: C_11  and  C_13
REMARK    7  A    between atoms: C_13  and  C_14
REMARK    8  A    between atoms: C_21  and  S_22
REMARK    9  A    between atoms: S_22  and  C_23
REMARK   10  A    between atoms: C_23  and  C_24
REMARK   11  A    between atoms: C_24  and  N_25
REMARK                            x       y       z     vdW  Elec       q    Type
REMARK                         _______ _______ _______ _____ _____    ______ ____
ROOT
ATOM      1  S   UNL     1       5.347   4.291  16.444  0.00  0.00    +0.000 S 
ENDROOT
BRANCH   1   5
ATOM      2  C   UNL     1       1.628   3.445  20.055  0.00  0.00    +0.000 C 
ATOM      3  C   UNL     1       2.405   4.356  19.153  0.00  0.00    +0.000 A 
ATOM      4  C   UNL     1       3.431   3.887  18.365  0.00  0.00    +0.000 A 
ATOM      5  C   UNL     1       4.088   4.826  17.594  0.00  0.00    +0.000 A 
ATOM      6  N   UNL     1       3.754   6.132  17.572  0.00  0.00    +0.000 NA
ATOM      7  C   UNL     1       2.725   6.492  18.357  0.00  0.00    +0.000 A 
ATOM      8  N   UNL     1       2.043   5.654  19.156  0.00  0.00    +0.000 NA
BRANCH   7   9
ATOM      9  S   UNL     1       2.219   8.200  18.425  0.00  0.00    +0.000 S 
BRANCH   9  10
ATOM     10  C   UNL     1       1.651   8.304  20.156  0.00  0.00    +0.000 C 
BRANCH  10  11
ATOM     11  C   UNL     1       0.513   9.339  20.325  0.00  0.00    +0.000 C 
BRANCH  11  12
ATOM     12  N   UNL     1       0.677  10.552  19.494  0.00  0.00    +0.000 NA
ATOM     13  C   UNL     1       1.148  11.713  20.286  0.00  0.00    +0.000 C 
ATOM     14  C   UNL     1       0.053  12.403  21.121  0.00  0.00    +0.000 C 
ATOM     15  O   UNL     1      -1.053  12.802  20.304  0.00  0.00    +0.000 OA
ATOM     16  C   UNL     1      -1.598  11.679  19.602  0.00  0.00    +0.000 C 
ATOM     17  C   UNL     1      -0.532  10.968  18.753  0.00  0.00    +0.000 C 
ENDBRANCH  11  12
ENDBRANCH  10  11
ENDBRANCH   9  10
ENDBRANCH   7   9
ENDBRANCH   1   5
BRANCH   1  18
ATOM     18  C   UNL     1       6.217   5.858  16.108  0.00  0.00    +0.000 C 
BRANCH  18  19
ATOM     19  C   UNL     1       7.156   6.280  17.232  0.00  0.00    +0.000 C 
ATOM     20  O   UNL     1       7.643   5.512  18.060  0.00  0.00    +0.000 OA
ATOM     21  N   UNL     1       7.459   7.631  17.225  0.00  0.00    +0.000 N 
ATOM     22  H   UNL     1       7.095   8.300  16.547  0.00  0.00    +0.000 HD
BRANCH  21  23
ATOM     23  N   UNL     1       8.330   8.150  18.199  0.00  0.00    +0.000 N 
ATOM     24  C   UNL     1       8.437   9.527  18.302  0.00  0.00    +0.000 C 
ATOM     25  O   UNL     1       7.815  10.280  17.559  0.00  0.00    +0.000 OA
ATOM     26  H   UNL     1       8.721   7.495  18.872  0.00  0.00    +0.000 HD
BRANCH  24  27
ATOM     27  C   UNL     1       9.403  10.028  19.363  0.00  0.00    +0.000 C 
BRANCH  27  28
ATOM     28  C   UNL     1      10.098  11.322  19.009  0.00  0.00    +0.000 A 
ATOM     29  C   UNL     1      10.124  12.387  19.923  0.00  0.00    +0.000 A 
ATOM     30  C   UNL     1      10.805  13.570  19.617  0.00  0.00    +0.000 A 
ATOM     31  C   UNL     1      11.470  13.701  18.401  0.00  0.00    +0.000 A 
ATOM     32  C   UNL     1      11.465  12.646  17.492  0.00  0.00    +0.000 A 
ATOM     33  C   UNL     1      10.788  11.461  17.795  0.00  0.00    +0.000 A 
ENDBRANCH  27  28
ENDBRANCH  24  27
ENDBRANCH  21  23
ENDBRANCH  18  19
ENDBRANCH   1  18
TORSDOF 10
ENDMDL
MODEL 4
REMARK VINA RESULT:      -7.0      4.086     10.155
REMARK  Name = 
REMARK  11 active torsions:
REMARK  status: ('A' for Active; 'I' for Inactive)
REMARK    1  A    between atoms: C_1  and  C_2
REMARK    2  A    between atoms: C_4  and  S_5
REMARK    3  A    between atoms: S_5  and  C_6
REMARK    4  A    between atoms: C_6  and  C_7
REMARK    5  A    between atoms: N_9  and  N_10
REMARK    6  A    between atoms: C_11  and  C_13
REMARK    7  A    between atoms: C_13  and  C_14
REMARK    8  A    between atoms: C_21  and  S_22
REMARK    9  A    between atoms: S_22  and  C_23
REMARK   10  A    between atoms: C_23  and  C_24
REMARK   11  A    between atoms: C_24  and  N_25
REMARK                            x       y       z     vdW  Elec       q    Type
REMARK                         _______ _______ _______ _____ _____    ______ ____
ROOT
ATOM      1  S   UNL     1       2.115   8.167  18.302  0.00  0.00    +0.000 S 
ENDROOT
BRANCH   1   5
ATOM      2  C   UNL     1      -0.035   9.626  22.866  0.00  0.00    +0.000 C 
ATOM      3  C   UNL     1       0.203   9.824  21.400  0.00  0.00    +0.000 A 
ATOM      4  C   UNL     1       1.019   8.980  20.681  0.00  0.00    +0.000 A 
ATOM      5  C   UNL     1       1.179   9.278  19.342  0.00  0.00    +0.000 A 
ATOM      6  N   UNL     1       0.569  10.317  18.736  0.00  0.00    +0.000 NA
ATOM      7  C   UNL     1      -0.226  11.071  19.513  0.00  0.00    +0.000 A 
ATOM      8  N   UNL     1      -0.424  10.870  20.826  0.00  0.00    +0.000 NA
BRANCH   7   9
ATOM      9  S   UNL     1      -1.060  12.485  18.817  0.00  0.00    +0.000 S 
BRANCH   9  10
ATOM     10  C   UNL     1      -1.156  13.562  20.287  0.00  0.00    +0.000 C 
BRANCH  10  11
ATOM     11  C   UNL     1      -2.621  13.851  20.691  0.00  0.00    +0.000 C 
BRANCH  11  12
ATOM     12  N   UNL     1      -2.787  14.241  22.109  0.00  0.00    +0.000 NA
ATOM     13  C   UNL     1      -2.050  13.340  23.027  0.00  0.00    +0.000 C 
ATOM     14  C   UNL     1      -2.744  11.991  23.291  0.00  0.00    +0.000 C 
ATOM     15  O   UNL     1      -4.079  12.176  23.776  0.00  0.00    +0.000 OA
ATOM     16  C   UNL     1      -4.850  12.959  22.858  0.00  0.00    +0.000 C 
ATOM     17  C   UNL     1      -4.188  14.317  22.575  0.00  0.00    +0.000 C 
ENDBRANCH  11  12
ENDBRANCH  10  11
ENDBRANCH   9  10
ENDBRANCH   7   9
ENDBRANCH   1   5
BRANCH   1  18
ATOM     18  C   UNL     1       2.425   6.779  19.443  0.00  0.00    +0.000 C 
BRANCH  18  19
ATOM     19  C   UNL     1       3.617   5.921  19.039  0.00  0.00    +0.000 C 
ATOM     20  O   UNL     1       4.284   5.241  19.816  0.00  0.00    +0.000 OA
ATOM     21  N   UNL     1       3.876   5.936  17.678  0.00  0.00    +0.000 N 
ATOM     22  H   UNL     1       3.338   6.468  16.994  0.00  0.00    +0.000 HD
BRANCH  21  23
ATOM     23  N   UNL     1       4.939   5.172  17.167  0.00  0.00    +0.000 N 
ATOM     24  C   UNL     1       6.007   5.848  16.601  0.00  0.00    +0.000 C 
ATOM     25  O   UNL     1       6.027   7.072  16.522  0.00  0.00    +0.000 OA
ATOM     26  H   UNL     1       4.938   4.175  17.371  0.00  0.00    +0.000 HD
BRANCH  24  27
ATOM     27  C   UNL     1       7.120   4.968  16.054  0.00  0.00    +0.000 C 
BRANCH  27  28
ATOM     28  C   UNL     1       6.988   4.640  14.585  0.00  0.00    +0.000 A 
ATOM     29  C   UNL     1       6.015   3.729  14.146  0.00  0.00    +0.000 A 
ATOM     30  C   UNL     1       5.859   3.457  12.783  0.00  0.00    +0.000 A 
ATOM     31  C   UNL     1       6.668   4.092  11.845  0.00  0.00    +0.000 A 
ATOM     32  C   UNL     1       7.628   5.009  12.267  0.00  0.00    +0.000 A 
ATOM     33  C   UNL     1       7.784   5.286  13.628  0.00  0.00    +0.000 A 
ENDBRANCH  27  28
ENDBRANCH  24  27
ENDBRANCH  21  23
ENDBRANCH  18  19
ENDBRANCH   1  18
TORSDOF 10
ENDMDL
MODEL 5
REMARK VINA RESULT:      -6.9      2.764      8.093
REMARK  Name = 
REMARK  11 active torsions:
REMARK  status: ('A' for Active; 'I' for Inactive)
REMARK    1  A    between atoms: C_1  and  C_2
REMARK    2  A    between atoms: C_4  and  S_5
REMARK    3  A    between atoms: S_5  and  C_6
REMARK    4  A    between atoms: C_6  and  C_7
REMARK    5  A    between atoms: N_9  and  N_10
REMARK    6  A    between atoms: C_11  and  C_13
REMARK    7  A    between atoms: C_13  and  C_14
REMARK    8  A    between atoms: C_21  and  S_22
REMARK    9  A    between atoms: S_22  and  C_23
REMARK   10  A    between atoms: C_23  and  C_24
REMARK   11  A    between atoms: C_24  and  N_25
REMARK                            x       y       z     vdW  Elec       q    Type
REMARK                         _______ _______ _______ _____ _____    ______ ____
ROOT
ATOM      1  S   UNL     1       5.961   5.298  17.355  0.00  0.00    +0.000 S 
ENDROOT
BRANCH   1   5
ATOM      2  C   UNL     1       2.155   4.775  20.936  0.00  0.00    +0.000 C 
ATOM      3  C   UNL     1       2.804   5.509  19.802  0.00  0.00    +0.000 A 
ATOM      4  C   UNL     1       3.987   5.077  19.247  0.00  0.00    +0.000 A 
ATOM      5  C   UNL     1       4.500   5.849  18.223  0.00  0.00    +0.000 A 
ATOM      6  N   UNL     1       3.892   6.959  17.755  0.00  0.00    +0.000 NA
ATOM      7  C   UNL     1       2.731   7.289  18.344  0.00  0.00    +0.000 A 
ATOM      8  N   UNL     1       2.168   6.611  19.359  0.00  0.00    +0.000 NA
BRANCH   7   9
ATOM      9  S   UNL     1       1.857   8.752  17.819  0.00  0.00    +0.000 S 
BRANCH   9  10
ATOM     10  C   UNL     1       1.265   9.374  19.430  0.00  0.00    +0.000 C 
BRANCH  10  11
ATOM     11  C   UNL     1       0.995  10.896  19.392  0.00  0.00    +0.000 C 
BRANCH  11  12
ATOM     12  N   UNL     1       0.291  11.411  20.587  0.00  0.00    +0.000 NA
ATOM     13  C   UNL     1      -1.174  11.505  20.376  0.00  0.00    +0.000 C 
ATOM     14  C   UNL     1      -1.623  12.728  19.555  0.00  0.00    +0.000 C 
ATOM     15  O   UNL     1      -1.146  13.949  20.132  0.00  0.00    +0.000 OA
ATOM     16  C   UNL     1       0.281  13.930  20.255  0.00  0.00    +0.000 C 
ATOM     17  C   UNL     1       0.765  12.723  21.074  0.00  0.00    +0.000 C 
ENDBRANCH  11  12
ENDBRANCH  10  11
ENDBRANCH   9  10
ENDBRANCH   7   9
ENDBRANCH   1   5
BRANCH   1  18
ATOM     18  C   UNL     1       6.788   6.884  16.997  0.00  0.00    +0.000 C 
BRANCH  18  19
ATOM     19  C   UNL     1       7.766   7.313  18.085  0.00  0.00    +0.000 C 
ATOM     20  O   UNL     1       8.255   6.557  18.922  0.00  0.00    +0.000 OA
ATOM     21  N   UNL     1       8.100   8.656  18.031  0.00  0.00    +0.000 N 
ATOM     22  H   UNL     1       7.735   9.315  17.344  0.00  0.00    +0.000 HD
BRANCH  21  23
ATOM     23  N   UNL     1       9.008   9.181  18.967  0.00  0.00    +0.000 N 
ATOM     24  C   UNL     1       9.327  10.525  18.875  0.00  0.00    +0.000 C 
ATOM     25  O   UNL     1       8.857  11.241  17.996  0.00  0.00    +0.000 OA
ATOM     26  H   UNL     1       9.268   8.585  19.751  0.00  0.00    +0.000 HD
BRANCH  24  27
ATOM     27  C   UNL     1      10.323  11.032  19.906  0.00  0.00    +0.000 C 
BRANCH  27  28
ATOM     28  C   UNL     1       9.752  12.034  20.882  0.00  0.00    +0.000 A 
ATOM     29  C   UNL     1       8.820  11.630  21.850  0.00  0.00    +0.000 A 
ATOM     30  C   UNL     1       8.323  12.545  22.784  0.00  0.00    +0.000 A 
ATOM     31  C   UNL     1       8.754  13.869  22.765  0.00  0.00    +0.000 A 
ATOM     32  C   UNL     1       9.690  14.279  21.818  0.00  0.00    +0.000 A 
ATOM     33  C   UNL     1      10.190  13.366  20.886  0.00  0.00    +0.000 A 
ENDBRANCH  27  28
ENDBRANCH  24  27
ENDBRANCH  21  23
ENDBRANCH  18  19
ENDBRANCH   1  18
TORSDOF 10
ENDMDL
MODEL 6
REMARK VINA RESULT:      -6.8      4.038      9.409
REMARK  Name = 
REMARK  11 active torsions:
REMARK  status: ('A' for Active; 'I' for Inactive)
REMARK    1  A    between atoms: C_1  and  C_2
REMARK    2  A    between atoms: C_4  and  S_5
REMARK    3  A    between atoms: S_5  and  C_6
REMARK    4  A    between atoms: C_6  and  C_7
REMARK    5  A    between atoms: N_9  and  N_10
REMARK    6  A    between atoms: C_11  and  C_13
REMARK    7  A    between atoms: C_13  and  C_14
REMARK    8  A    between atoms: C_21  and  S_22
REMARK    9  A    between atoms: S_22  and  C_23
REMARK   10  A    between atoms: C_23  and  C_24
REMARK   11  A    between atoms: C_24  and  N_25
REMARK                            x       y       z     vdW  Elec       q    Type
REMARK                         _______ _______ _______ _____ _____    ______ ____
ROOT
ATOM      1  S   UNL     1       5.416   4.595  18.464  0.00  0.00    +0.000 S 
ENDROOT
BRANCH   1   5
ATOM      2  C   UNL     1       1.019   2.973  20.835  0.00  0.00    +0.000 C 
ATOM      3  C   UNL     1       1.930   4.060  20.352  0.00  0.00    +0.000 A 
ATOM      4  C   UNL     1       3.135   3.777  19.750  0.00  0.00    +0.000 A 
ATOM      5  C   UNL     1       3.898   4.863  19.368  0.00  0.00    +0.000 A 
ATOM      6  N   UNL     1       3.505   6.142  19.539  0.00  0.00    +0.000 NA
ATOM      7  C   UNL     1       2.305   6.319  20.114  0.00  0.00    +0.000 A 
ATOM      8  N   UNL     1       1.505   5.325  20.537  0.00  0.00    +0.000 NA
BRANCH   7   9
ATOM      9  S   UNL     1       1.701   7.970  20.412  0.00  0.00    +0.000 S 
BRANCH   9  10
ATOM     10  C   UNL     1       1.505   8.560  18.697  0.00  0.00    +0.000 C 
BRANCH  10  11
ATOM     11  C   UNL     1       1.353  10.099  18.633  0.00  0.00    +0.000 C 
BRANCH  11  12
ATOM     12  N   UNL     1       0.215  10.622  19.421  0.00  0.00    +0.000 NA
ATOM     13  C   UNL     1      -1.086  10.093  18.945  0.00  0.00    +0.000 C 
ATOM     14  C   UNL     1      -1.623  10.772  17.671  0.00  0.00    +0.000 C 
ATOM     15  O   UNL     1      -1.719  12.191  17.836  0.00  0.00    +0.000 OA
ATOM     16  C   UNL     1      -0.450  12.748  18.197  0.00  0.00    +0.000 C 
ATOM     17  C   UNL     1       0.115  12.096  19.469  0.00  0.00    +0.000 C 
ENDBRANCH  11  12
ENDBRANCH  10  11
ENDBRANCH   9  10
ENDBRANCH   7   9
ENDBRANCH   1   5
BRANCH   1  18
ATOM     18  C   UNL     1       5.606   6.189  17.599  0.00  0.00    +0.000 C 
BRANCH  18  19
ATOM     19  C   UNL     1       5.580   6.058  16.081  0.00  0.00    +0.000 C 
ATOM     20  O   UNL     1       5.076   6.880  15.318  0.00  0.00    +0.000 OA
ATOM     21  N   UNL     1       6.221   4.924  15.611  0.00  0.00    +0.000 N 
ATOM     22  H   UNL     1       6.670   4.227  16.204  0.00  0.00    +0.000 HD
BRANCH  21  23
ATOM     23  N   UNL     1       6.286   4.689  14.226  0.00  0.00    +0.000 N 
ATOM     24  C   UNL     1       7.413   5.122  13.549  0.00  0.00    +0.000 C 
ATOM     25  O   UNL     1       8.323   5.712  14.122  0.00  0.00    +0.000 OA
ATOM     26  H   UNL     1       5.573   4.085  13.821  0.00  0.00    +0.000 HD
BRANCH  24  27
ATOM     27  C   UNL     1       7.419   4.851  12.052  0.00  0.00    +0.000 C 
BRANCH  27  28
ATOM     28  C   UNL     1       6.774   3.544  11.654  0.00  0.00    +0.000 A 
ATOM     29  C   UNL     1       7.565   2.430  11.335  0.00  0.00    +0.000 A 
ATOM     30  C   UNL     1       6.972   1.206  11.010  0.00  0.00    +0.000 A 
ATOM     31  C   UNL     1       5.585   1.079  11.005  0.00  0.00    +0.000 A 
ATOM     32  C   UNL     1       4.789   2.174  11.334  0.00  0.00    +0.000 A 
ATOM     33  C   UNL     1       5.379   3.398  11.663  0.00  0.00    +0.000 A 
ENDBRANCH  27  28
ENDBRANCH  24  27
ENDBRANCH  21  23
ENDBRANCH  18  19
ENDBRANCH   1  18
TORSDOF 10
ENDMDL
MODEL 7
REMARK VINA RESULT:      -6.8      3.321      5.457
REMARK  Name = 
REMARK  11 active torsions:
REMARK  status: ('A' for Active; 'I' for Inactive)
REMARK    1  A    between atoms: C_1  and  C_2
REMARK    2  A    between atoms: C_4  and  S_5
REMARK    3  A    between atoms: S_5  and  C_6
REMARK    4  A    between atoms: C_6  and  C_7
REMARK    5  A    between atoms: N_9  and  N_10
REMARK    6  A    between atoms: C_11  and  C_13
REMARK    7  A    between atoms: C_13  and  C_14
REMARK    8  A    between atoms: C_21  and  S_22
REMARK    9  A    between atoms: S_22  and  C_23
REMARK   10  A    between atoms: C_23  and  C_24
REMARK   11  A    between atoms: C_24  and  N_25
REMARK                            x       y       z     vdW  Elec       q    Type
REMARK                         _______ _______ _______ _____ _____    ______ ____
ROOT
ATOM      1  S   UNL     1       1.901   7.346  19.339  0.00  0.00    +0.000 S 
ENDROOT
BRANCH   1   5
ATOM      2  C   UNL     1       1.512   2.738  21.829  0.00  0.00    +0.000 C 
ATOM      3  C   UNL     1       1.946   3.571  20.662  0.00  0.00    +0.000 A 
ATOM      4  C   UNL     1       1.669   4.917  20.594  0.00  0.00    +0.000 A 
ATOM      5  C   UNL     1       2.100   5.574  19.458  0.00  0.00    +0.000 A 
ATOM      6  N   UNL     1       2.776   4.966  18.462  0.00  0.00    +0.000 NA
ATOM      7  C   UNL     1       3.019   3.656  18.627  0.00  0.00    +0.000 A 
ATOM      8  N   UNL     1       2.620   2.931  19.687  0.00  0.00    +0.000 NA
BRANCH   7   9
ATOM      9  S   UNL     1       3.882   2.749  17.358  0.00  0.00    +0.000 S 
BRANCH   9  10
ATOM     10  C   UNL     1       4.607   4.127  16.407  0.00  0.00    +0.000 C 
BRANCH  10  11
ATOM     11  C   UNL     1       5.941   4.610  17.024  0.00  0.00    +0.000 C 
BRANCH  11  12
ATOM     12  N   UNL     1       5.784   5.684  18.029  0.00  0.00    +0.000 NA
ATOM     13  C   UNL     1       6.119   7.019  17.479  0.00  0.00    +0.000 C 
ATOM     14  C   UNL     1       7.629   7.305  17.374  0.00  0.00    +0.000 C 
ATOM     15  O   UNL     1       8.282   7.133  18.637  0.00  0.00    +0.000 OA
ATOM     16  C   UNL     1       8.062   5.813  19.148  0.00  0.00    +0.000 C 
ATOM     17  C   UNL     1       6.563   5.495  19.271  0.00  0.00    +0.000 C 
ENDBRANCH  11  12
ENDBRANCH  10  11
ENDBRANCH   9  10
ENDBRANCH   7   9
ENDBRANCH   1   5
BRANCH   1  18
ATOM     18  C   UNL     1       1.596   7.792  21.081  0.00  0.00    +0.000 C 
BRANCH  18  19
ATOM     19  C   UNL     1       0.393   8.709  21.267  0.00  0.00    +0.000 C 
ATOM     20  O   UNL     1      -0.317   8.734  22.270  0.00  0.00    +0.000 OA
ATOM     21  N   UNL     1       0.179   9.566  20.200  0.00  0.00    +0.000 N 
ATOM     22  H   UNL     1       0.754   9.594  19.358  0.00  0.00    +0.000 HD
BRANCH  21  23
ATOM     23  N   UNL     1      -0.889  10.479  20.249  0.00  0.00    +0.000 N 
ATOM     24  C   UNL     1      -0.771  11.651  19.523  0.00  0.00    +0.000 C 
ATOM     25  O   UNL     1       0.237  11.909  18.872  0.00  0.00    +0.000 OA
ATOM     26  H   UNL     1      -1.750  10.166  20.692  0.00  0.00    +0.000 HD
BRANCH  24  27
ATOM     27  C   UNL     1      -1.951  12.604  19.626  0.00  0.00    +0.000 C 
BRANCH  27  28
ATOM     28  C   UNL     1      -3.218  12.096  18.979  0.00  0.00    +0.000 A 
ATOM     29  C   UNL     1      -4.462  12.301  19.595  0.00  0.00    +0.000 A 
ATOM     30  C   UNL     1      -5.641  11.871  18.977  0.00  0.00    +0.000 A 
ATOM     31  C   UNL     1      -5.593  11.239  17.738  0.00  0.00    +0.000 A 
ATOM     32  C   UNL     1      -4.366  11.042  17.109  0.00  0.00    +0.000 A 
ATOM     33  C   UNL     1      -3.186  11.473  17.722  0.00  0.00    +0.000 A 
ENDBRANCH  27  28
ENDBRANCH  24  27
ENDBRANCH  21  23
ENDBRANCH  18  19
ENDBRANCH   1  18
TORSDOF 10
ENDMDL
MODEL 8
REMARK VINA RESULT:      -6.8      5.257     11.134
REMARK  Name = 
REMARK  11 active torsions:
REMARK  status: ('A' for Active; 'I' for Inactive)
REMARK    1  A    between atoms: C_1  and  C_2
REMARK    2  A    between atoms: C_4  and  S_5
REMARK    3  A    between atoms: S_5  and  C_6
REMARK    4  A    between atoms: C_6  and  C_7
REMARK    5  A    between atoms: N_9  and  N_10
REMARK    6  A    between atoms: C_11  and  C_13
REMARK    7  A    between atoms: C_13  and  C_14
REMARK    8  A    between atoms: C_21  and  S_22
REMARK    9  A    between atoms: S_22  and  C_23
REMARK   10  A    between atoms: C_23  and  C_24
REMARK   11  A    between atoms: C_24  and  N_25
REMARK                            x       y       z     vdW  Elec       q    Type
REMARK                         _______ _______ _______ _____ _____    ______ ____
ROOT
ATOM      1  S   UNL     1      -0.361  12.787  18.771  0.00  0.00    +0.000 S 
ENDROOT
BRANCH   1   5
ATOM      2  C   UNL     1      -3.128   9.952  15.324  0.00  0.00    +0.000 C 
ATOM      3  C   UNL     1      -3.022  10.750  16.588  0.00  0.00    +0.000 A 
ATOM      4  C   UNL     1      -1.820  11.269  17.013  0.00  0.00    +0.000 A 
ATOM      5  C   UNL     1      -1.844  11.967  18.205  0.00  0.00    +0.000 A 
ATOM      6  N   UNL     1      -2.966  12.165  18.926  0.00  0.00    +0.000 NA
ATOM      7  C   UNL     1      -4.094  11.639  18.420  0.00  0.00    +0.000 A 
ATOM      8  N   UNL     1      -4.163  10.929  17.282  0.00  0.00    +0.000 NA
BRANCH   7   9
ATOM      9  S   UNL     1      -5.630  11.820  19.307  0.00  0.00    +0.000 S 
BRANCH   9  10
ATOM     10  C   UNL     1      -5.413  13.494  19.999  0.00  0.00    +0.000 C 
BRANCH  10  11
ATOM     11  C   UNL     1      -6.365  13.750  21.191  0.00  0.00    +0.000 C 
BRANCH  11  12
ATOM     12  N   UNL     1      -5.702  14.347  22.372  0.00  0.00    +0.000 NA
ATOM     13  C   UNL     1      -4.273  13.966  22.464  0.00  0.00    +0.000 C 
ATOM     14  C   UNL     1      -4.025  12.547  23.012  0.00  0.00    +0.000 C 
ATOM     15  O   UNL     1      -4.650  12.364  24.287  0.00  0.00    +0.000 OA
ATOM     16  C   UNL     1      -6.055  12.626  24.208  0.00  0.00    +0.000 C 
ATOM     17  C   UNL     1      -6.340  14.037  23.668  0.00  0.00    +0.000 C 
ENDBRANCH  11  12
ENDBRANCH  10  11
ENDBRANCH   9  10
ENDBRANCH   7   9
ENDBRANCH   1   5
BRANCH   1  18
ATOM     18  C   UNL     1       0.486  11.433  19.652  0.00  0.00    +0.000 C 
BRANCH  18  19
ATOM     19  C   UNL     1       1.387  10.598  18.750  0.00  0.00    +0.000 C 
ATOM     20  O   UNL     1       2.218  11.061  17.971  0.00  0.00    +0.000 OA
ATOM     21  N   UNL     1       1.219   9.233  18.909  0.00  0.00    +0.000 N 
ATOM     22  H   UNL     1       0.557   8.804  19.556  0.00  0.00    +0.000 HD
BRANCH  21  23
ATOM     23  N   UNL     1       2.001   8.345  18.149  0.00  0.00    +0.000 N 
ATOM     24  C   UNL     1       2.515   7.229  18.786  0.00  0.00    +0.000 C 
ATOM     25  O   UNL     1       2.321   7.020  19.980  0.00  0.00    +0.000 OA
ATOM     26  H   UNL     1       2.025   8.490  17.142  0.00  0.00    +0.000 HD
BRANCH  24  27
ATOM     27  C   UNL     1       3.363   6.314  17.916  0.00  0.00    +0.000 C 
BRANCH  27  28
ATOM     28  C   UNL     1       3.090   4.841  18.113  0.00  0.00    +0.000 A 
ATOM     29  C   UNL     1       4.100   3.989  18.585  0.00  0.00    +0.000 A 
ATOM     30  C   UNL     1       3.838   2.634  18.810  0.00  0.00    +0.000 A 
ATOM     31  C   UNL     1       2.567   2.116  18.573  0.00  0.00    +0.000 A 
ATOM     32  C   UNL     1       1.553   2.955  18.118  0.00  0.00    +0.000 A 
ATOM     33  C   UNL     1       1.810   4.311  17.894  0.00  0.00    +0.000 A 
ENDBRANCH  27  28
ENDBRANCH  24  27
ENDBRANCH  21  23
ENDBRANCH  18  19
ENDBRANCH   1  18
TORSDOF 10
ENDMDL
MODEL 9
REMARK VINA RESULT:      -6.7      4.332     10.383
REMARK  Name = 
REMARK  11 active torsions:
REMARK  status: ('A' for Active; 'I' for Inactive)
REMARK    1  A    between atoms: C_1  and  C_2
REMARK    2  A    between atoms: C_4  and  S_5
REMARK    3  A    between atoms: S_5  and  C_6
REMARK    4  A    between atoms: C_6  and  C_7
REMARK    5  A    between atoms: N_9  and  N_10
REMARK    6  A    between atoms: C_11  and  C_13
REMARK    7  A    between atoms: C_13  and  C_14
REMARK    8  A    between atoms: C_21  and  S_22
REMARK    9  A    between atoms: S_22  and  C_23
REMARK   10  A    between atoms: C_23  and  C_24
REMARK   11  A    between atoms: C_24  and  N_25
REMARK                            x       y       z     vdW  Elec       q    Type
REMARK                         _______ _______ _______ _____ _____    ______ ____
ROOT
ATOM      1  S   UNL     1       2.015   8.790  17.970  0.00  0.00    +0.000 S 
ENDROOT
BRANCH   1   5
ATOM      2  C   UNL     1      -2.866  10.714  17.732  0.00  0.00    +0.000 C 
ATOM      3  C   UNL     1      -1.498  10.664  18.343  0.00  0.00    +0.000 A 
ATOM      4  C   UNL     1      -0.543   9.778  17.901  0.00  0.00    +0.000 A 
ATOM      5  C   UNL     1       0.672   9.811  18.557  0.00  0.00    +0.000 A 
ATOM      6  N   UNL     1       0.948  10.665  19.564  0.00  0.00    +0.000 NA
ATOM      7  C   UNL     1      -0.039  11.507  19.911  0.00  0.00    +0.000 A 
ATOM      8  N   UNL     1      -1.258  11.532  19.345  0.00  0.00    +0.000 NA
BRANCH   7   9
ATOM      9  S   UNL     1       0.210  12.659  21.249  0.00  0.00    +0.000 S 
BRANCH   9  10
ATOM     10  C   UNL     1      -0.903  11.946  22.507  0.00  0.00    +0.000 C 
BRANCH  10  11
ATOM     11  C   UNL     1      -1.765  13.032  23.192  0.00  0.00    +0.000 C 
BRANCH  11  12
ATOM     12  N   UNL     1      -2.764  13.658  22.299  0.00  0.00    +0.000 NA
ATOM     13  C   UNL     1      -3.103  15.039  22.719  0.00  0.00    +0.000 C 
ATOM     14  C   UNL     1      -4.078  15.123  23.908  0.00  0.00    +0.000 C 
ATOM     15  O   UNL     1      -5.283  14.396  23.647  0.00  0.00    +0.000 OA
ATOM     16  C   UNL     1      -4.996  13.028  23.338  0.00  0.00    +0.000 C 
ATOM     17  C   UNL     1      -4.027  12.906  22.151  0.00  0.00    +0.000 C 
ENDBRANCH  11  12
ENDBRANCH  10  11
ENDBRANCH   9  10
ENDBRANCH   7   9
ENDBRANCH   1   5
BRANCH   1  18
ATOM     18  C   UNL     1       2.149   7.563  19.312  0.00  0.00    +0.000 C 
BRANCH  18  19
ATOM     19  C   UNL     1       3.131   6.438  19.005  0.00  0.00    +0.000 C 
ATOM     20  O   UNL     1       3.621   5.690  19.848  0.00  0.00    +0.000 OA
ATOM     21  N   UNL     1       3.405   6.295  17.655  0.00  0.00    +0.000 N 
ATOM     22  H   UNL     1       3.007   6.878  16.920  0.00  0.00    +0.000 HD
BRANCH  21  23
ATOM     23  N   UNL     1       4.284   5.282  17.231  0.00  0.00    +0.000 N 
ATOM     24  C   UNL     1       5.364   5.649  16.448  0.00  0.00    +0.000 C 
ATOM     25  O   UNL     1       5.549   6.814  16.109  0.00  0.00    +0.000 OA
ATOM     26  H   UNL     1       4.164   4.358  17.642  0.00  0.00    +0.000 HD
BRANCH  24  27
ATOM     27  C   UNL     1       6.270   4.509  16.010  0.00  0.00    +0.000 C 
BRANCH  27  28
ATOM     28  C   UNL     1       6.527   4.456  14.522  0.00  0.00    +0.000 A 
ATOM     29  C   UNL     1       7.538   5.243  13.948  0.00  0.00    +0.000 A 
ATOM     30  C   UNL     1       7.809   5.163  12.578  0.00  0.00    +0.000 A 
ATOM     31  C   UNL     1       7.080   4.296  11.769  0.00  0.00    +0.000 A 
ATOM     32  C   UNL     1       6.084   3.499  12.330  0.00  0.00    +0.000 A 
ATOM     33  C   UNL     1       5.813   3.574  13.699  0.00  0.00    +0.000 A 
ENDBRANCH  27  28
ENDBRANCH  24  27
ENDBRANCH  21  23
ENDBRANCH  18  19
ENDBRANCH   1  18
TORSDOF 10
ENDMDL
