MODEL 1
REMARK VINA RESULT:      -8.0      0.000      0.000
REMARK  Name = 
REMARK  6 active torsions:
REMARK  status: ('A' for Active; 'I' for Inactive)
REMARK    1  A    between atoms: C_4  and  C_5
REMARK    2  A    between atoms: C_14  and  O_15
REMARK    3  A    between atoms: C_16  and  C_17
REMARK    4  A    between atoms: C_17  and  C_18
REMARK    5  A    between atoms: C_23  and  O_24
REMARK    6  A    between atoms: C_25  and  O_26
REMARK                            x       y       z     vdW  Elec       q    Type
REMARK                         _______ _______ _______ _____ _____    ______ ____
ROOT
ATOM      1  O   UNL     1       1.821  11.534  18.020  0.00  0.00    +0.000 OA
ATOM      2  C   UNL     1       1.170  10.978  18.898  0.00  0.00    +0.000 C 
ATOM      3  C   UNL     1       0.025  11.672  19.563  0.00  0.00    +0.000 C 
ATOM      4  C   UNL     1       0.008  11.370  21.055  0.00  0.00    +0.000 C 
ATOM      5  O   UNL     1       0.175   9.995  21.409  0.00  0.00    +0.000 OA
ATOM      6  C   UNL     1       0.947   9.220  20.595  0.00  0.00    +0.000 A 
ATOM      7  C   UNL     1       1.208   7.940  21.087  0.00  0.00    +0.000 A 
ATOM      8  C   UNL     1       1.886   7.012  20.299  0.00  0.00    +0.000 A 
ATOM      9  C   UNL     1       2.299   7.321  18.995  0.00  0.00    +0.000 A 
ATOM     10  C   UNL     1       2.073   8.637  18.531  0.00  0.00    +0.000 A 
ATOM     11  C   UNL     1       1.419   9.588  19.338  0.00  0.00    +0.000 A 
ENDROOT
BRANCH   4  12
ATOM     12  C   UNL     1      -1.337  11.794  21.633  0.00  0.00    +0.000 A 
ATOM     13  C   UNL     1      -2.286  12.432  20.812  0.00  0.00    +0.000 A 
ATOM     14  C   UNL     1      -3.486  12.910  21.337  0.00  0.00    +0.000 A 
ATOM     15  C   UNL     1      -3.766  12.732  22.688  0.00  0.00    +0.000 A 
ATOM     16  C   UNL     1      -2.857  12.063  23.506  0.00  0.00    +0.000 A 
ATOM     17  C   UNL     1      -1.647  11.594  22.983  0.00  0.00    +0.000 A 
ENDBRANCH   4  12
BRANCH   8  18
ATOM     18  O   UNL     1       2.104   5.753  20.788  0.00  0.00    +0.000 OA
ATOM     19  H   UNL     1       1.788   5.101  20.141  0.00  0.00    +0.000 HD
ENDBRANCH   8  18
BRANCH  10  20
ATOM     20  O   UNL     1       2.380   8.977  17.244  0.00  0.00    +0.000 OA
ATOM     21  H   UNL     1       1.582   8.916  16.683  0.00  0.00    +0.000 HD
ENDBRANCH  10  20
BRANCH   9  22
ATOM     22  C   UNL     1       2.874   6.240  18.101  0.00  0.00    +0.000 C 
BRANCH  22  23
ATOM     23  C   UNL     1       4.382   6.121  18.076  0.00  0.00    +0.000 A 
ATOM     24  C   UNL     1       5.129   6.933  17.209  0.00  0.00    +0.000 A 
ATOM     25  C   UNL     1       6.526   6.920  17.239  0.00  0.00    +0.000 A 
ATOM     26  C   UNL     1       7.196   6.080  18.125  0.00  0.00    +0.000 A 
ATOM     27  C   UNL     1       6.472   5.244  18.974  0.00  0.00    +0.000 A 
ATOM     28  C   UNL     1       5.076   5.271  18.945  0.00  0.00    +0.000 A 
BRANCH  28  29
ATOM     29  O   UNL     1       4.362   4.465  19.790  0.00  0.00    +0.000 OA
ATOM     30  H   UNL     1       3.457   4.380  19.437  0.00  0.00    +0.000 HD
ENDBRANCH  28  29
ENDBRANCH  22  23
ENDBRANCH   9  22
TORSDOF 6
ENDMDL
MODEL 2
REMARK VINA RESULT:      -8.0      2.450      4.287
REMARK  Name = 
REMARK  6 active torsions:
REMARK  status: ('A' for Active; 'I' for Inactive)
REMARK    1  A    between atoms: C_4  and  C_5
REMARK    2  A    between atoms: C_14  and  O_15
REMARK    3  A    between atoms: C_16  and  C_17
REMARK    4  A    between atoms: C_17  and  C_18
REMARK    5  A    between atoms: C_23  and  O_24
REMARK    6  A    between atoms: C_25  and  O_26
REMARK                            x       y       z     vdW  Elec       q    Type
REMARK                         _______ _______ _______ _____ _____    ______ ____
ROOT
ATOM      1  O   UNL     1      -0.395   9.162  21.621  0.00  0.00    +0.000 OA
ATOM      2  C   UNL     1       0.280   9.691  20.744  0.00  0.00    +0.000 C 
ATOM      3  C   UNL     1       0.260  11.172  20.546  0.00  0.00    +0.000 C 
ATOM      4  C   UNL     1       0.271  11.516  19.063  0.00  0.00    +0.000 C 
ATOM      5  O   UNL     1       1.230  10.809  18.273  0.00  0.00    +0.000 OA
ATOM      6  C   UNL     1       1.552   9.540  18.651  0.00  0.00    +0.000 A 
ATOM      7  C   UNL     1       2.359   8.850  17.745  0.00  0.00    +0.000 A 
ATOM      8  C   UNL     1       2.854   7.587  18.069  0.00  0.00    +0.000 A 
ATOM      9  C   UNL     1       2.582   6.990  19.308  0.00  0.00    +0.000 A 
ATOM     10  C   UNL     1       1.722   7.679  20.193  0.00  0.00    +0.000 A 
ATOM     11  C   UNL     1       1.191   8.939  19.855  0.00  0.00    +0.000 A 
ENDROOT
BRANCH   4  12
ATOM     12  C   UNL     1       0.595  12.995  18.898  0.00  0.00    +0.000 A 
ATOM     13  C   UNL     1       1.918  13.401  18.640  0.00  0.00    +0.000 A 
ATOM     14  C   UNL     1       2.256  14.752  18.575  0.00  0.00    +0.000 A 
ATOM     15  C   UNL     1       1.269  15.719  18.740  0.00  0.00    +0.000 A 
ATOM     16  C   UNL     1      -0.054  15.334  18.951  0.00  0.00    +0.000 A 
ATOM     17  C   UNL     1      -0.393  13.979  19.030  0.00  0.00    +0.000 A 
ENDBRANCH   4  12
BRANCH   8  18
ATOM     18  O   UNL     1       3.669   6.941  17.179  0.00  0.00    +0.000 OA
ATOM     19  H   UNL     1       3.437   7.218  16.277  0.00  0.00    +0.000 HD
ENDBRANCH   8  18
BRANCH  10  20
ATOM     20  O   UNL     1       1.482   7.186  21.445  0.00  0.00    +0.000 OA
ATOM     21  H   UNL     1       2.325   6.939  21.873  0.00  0.00    +0.000 HD
ENDBRANCH  10  20
BRANCH   9  22
ATOM     22  C   UNL     1       3.276   5.700  19.700  0.00  0.00    +0.000 C 
BRANCH  22  23
ATOM     23  C   UNL     1       2.564   4.417  19.335  0.00  0.00    +0.000 A 
ATOM     24  C   UNL     1       1.448   4.004  20.079  0.00  0.00    +0.000 A 
ATOM     25  C   UNL     1       0.709   2.880  19.701  0.00  0.00    +0.000 A 
ATOM     26  C   UNL     1       1.086   2.142  18.582  0.00  0.00    +0.000 A 
ATOM     27  C   UNL     1       2.209   2.519  17.847  0.00  0.00    +0.000 A 
ATOM     28  C   UNL     1       2.937   3.649  18.225  0.00  0.00    +0.000 A 
BRANCH  28  29
ATOM     29  O   UNL     1       4.028   4.032  17.495  0.00  0.00    +0.000 OA
ATOM     30  H   UNL     1       3.824   4.881  17.062  0.00  0.00    +0.000 HD
ENDBRANCH  28  29
ENDBRANCH  22  23
ENDBRANCH   9  22
TORSDOF 6
ENDMDL
MODEL 3
REMARK VINA RESULT:      -7.9      2.480      8.690
REMARK  Name = 
REMARK  6 active torsions:
REMARK  status: ('A' for Active; 'I' for Inactive)
REMARK    1  A    between atoms: C_4  and  C_5
REMARK    2  A    between atoms: C_14  and  O_15
REMARK    3  A    between atoms: C_16  and  C_17
REMARK    4  A    between atoms: C_17  and  C_18
REMARK    5  A    between atoms: C_23  and  O_24
REMARK    6  A    between atoms: C_25  and  O_26
REMARK                            x       y       z     vdW  Elec       q    Type
REMARK                         _______ _______ _______ _____ _____    ______ ____
ROOT
ATOM      1  O   UNL     1       0.398   9.962  23.224  0.00  0.00    +0.000 OA
ATOM      2  C   UNL     1       0.432   9.591  22.056  0.00  0.00    +0.000 C 
ATOM      3  C   UNL     1       0.939   8.232  21.695  0.00  0.00    +0.000 C 
ATOM      4  C   UNL     1       1.777   8.292  20.425  0.00  0.00    +0.000 C 
ATOM      5  O   UNL     1       1.209   9.037  19.345  0.00  0.00    +0.000 OA
ATOM      6  C   UNL     1       0.418  10.103  19.656  0.00  0.00    +0.000 A 
ATOM      7  C   UNL     1       0.038  10.884  18.563  0.00  0.00    +0.000 A 
ATOM      8  C   UNL     1      -0.864  11.933  18.733  0.00  0.00    +0.000 A 
ATOM      9  C   UNL     1      -1.431  12.216  19.984  0.00  0.00    +0.000 A 
ATOM     10  C   UNL     1      -0.997  11.450  21.088  0.00  0.00    +0.000 A 
ATOM     11  C   UNL     1      -0.058  10.411  20.928  0.00  0.00    +0.000 A 
ENDROOT
BRANCH   4  12
ATOM     12  C   UNL     1       1.985   6.878  19.899  0.00  0.00    +0.000 A 
ATOM     13  C   UNL     1       2.515   6.676  18.610  0.00  0.00    +0.000 A 
ATOM     14  C   UNL     1       2.629   5.395  18.072  0.00  0.00    +0.000 A 
ATOM     15  C   UNL     1       2.240   4.292  18.826  0.00  0.00    +0.000 A 
ATOM     16  C   UNL     1       1.755   4.471  20.121  0.00  0.00    +0.000 A 
ATOM     17  C   UNL     1       1.627   5.756  20.658  0.00  0.00    +0.000 A 
ENDBRANCH   4  12
BRANCH   8  18
ATOM     18  O   UNL     1      -1.247  12.666  17.643  0.00  0.00    +0.000 OA
ATOM     19  H   UNL     1      -2.091  12.322  17.309  0.00  0.00    +0.000 HD
ENDBRANCH   8  18
BRANCH  10  20
ATOM     20  O   UNL     1      -1.568  11.625  22.317  0.00  0.00    +0.000 OA
ATOM     21  H   UNL     1      -1.713  10.758  22.744  0.00  0.00    +0.000 HD
ENDBRANCH  10  20
BRANCH   9  22
ATOM     22  C   UNL     1      -2.539  13.245  20.102  0.00  0.00    +0.000 C 
BRANCH  22  23
ATOM     23  C   UNL     1      -3.946  12.704  20.225  0.00  0.00    +0.000 A 
ATOM     24  C   UNL     1      -4.610  12.766  21.460  0.00  0.00    +0.000 A 
ATOM     25  C   UNL     1      -5.945  12.370  21.578  0.00  0.00    +0.000 A 
ATOM     26  C   UNL     1      -6.630  11.889  20.464  0.00  0.00    +0.000 A 
ATOM     27  C   UNL     1      -5.979  11.792  19.236  0.00  0.00    +0.000 A 
ATOM     28  C   UNL     1      -4.648  12.200  19.123  0.00  0.00    +0.000 A 
BRANCH  28  29
ATOM     29  O   UNL     1      -4.012  12.123  17.915  0.00  0.00    +0.000 OA
ATOM     30  H   UNL     1      -4.685  12.170  17.212  0.00  0.00    +0.000 HD
ENDBRANCH  28  29
ENDBRANCH  22  23
ENDBRANCH   9  22
TORSDOF 6
ENDMDL
MODEL 4
REMARK VINA RESULT:      -7.8      0.705      1.298
REMARK  Name = 
REMARK  6 active torsions:
REMARK  status: ('A' for Active; 'I' for Inactive)
REMARK    1  A    between atoms: C_4  and  C_5
REMARK    2  A    between atoms: C_14  and  O_15
REMARK    3  A    between atoms: C_16  and  C_17
REMARK    4  A    between atoms: C_17  and  C_18
REMARK    5  A    between atoms: C_23  and  O_24
REMARK    6  A    between atoms: C_25  and  O_26
REMARK                            x       y       z     vdW  Elec       q    Type
REMARK                         _______ _______ _______ _____ _____    ______ ____
ROOT
ATOM      1  O   UNL     1       2.009  11.339  17.888  0.00  0.00    +0.000 OA
ATOM      2  C   UNL     1       1.333  10.814  18.767  0.00  0.00    +0.000 C 
ATOM      3  C   UNL     1       0.174  11.535  19.378  0.00  0.00    +0.000 C 
ATOM      4  C   UNL     1       0.117  11.283  20.879  0.00  0.00    +0.000 C 
ATOM      5  O   UNL     1       0.268   9.919  21.282  0.00  0.00    +0.000 OA
ATOM      6  C   UNL     1       1.057   9.114  20.514  0.00  0.00    +0.000 A 
ATOM      7  C   UNL     1       1.298   7.850  21.055  0.00  0.00    +0.000 A 
ATOM      8  C   UNL     1       1.992   6.894  20.315  0.00  0.00    +0.000 A 
ATOM      9  C   UNL     1       2.440   7.158  19.013  0.00  0.00    +0.000 A 
ATOM     10  C   UNL     1       2.233   8.459  18.501  0.00  0.00    +0.000 A 
ATOM     11  C   UNL     1       1.563   9.439  19.258  0.00  0.00    +0.000 A 
ENDROOT
BRANCH   4  12
ATOM     12  C   UNL     1      -1.240  11.731  21.406  0.00  0.00    +0.000 A 
ATOM     13  C   UNL     1      -2.174  12.324  20.535  0.00  0.00    +0.000 A 
ATOM     14  C   UNL     1      -3.384  12.825  21.011  0.00  0.00    +0.000 A 
ATOM     15  C   UNL     1      -3.693  12.714  22.363  0.00  0.00    +0.000 A 
ATOM     16  C   UNL     1      -2.799  12.089  23.232  0.00  0.00    +0.000 A 
ATOM     17  C   UNL     1      -1.578  11.598  22.758  0.00  0.00    +0.000 A 
ENDBRANCH   4  12
BRANCH   8  18
ATOM     18  O   UNL     1       2.191   5.651  20.852  0.00  0.00    +0.000 OA
ATOM     19  H   UNL     1       1.341   5.298  21.162  0.00  0.00    +0.000 HD
ENDBRANCH   8  18
BRANCH  10  20
ATOM     20  O   UNL     1       2.576   8.755  17.211  0.00  0.00    +0.000 OA
ATOM     21  H   UNL     1       3.179   9.523  17.195  0.00  0.00    +0.000 HD
ENDBRANCH  10  20
BRANCH   9  22
ATOM     22  C   UNL     1       3.033   6.045  18.171  0.00  0.00    +0.000 C 
BRANCH  22  23
ATOM     23  C   UNL     1       4.543   5.963  18.135  0.00  0.00    +0.000 A 
ATOM     24  C   UNL     1       5.234   5.384  19.211  0.00  0.00    +0.000 A 
ATOM     25  C   UNL     1       6.618   5.200  19.159  0.00  0.00    +0.000 A 
ATOM     26  C   UNL     1       7.334   5.609  18.037  0.00  0.00    +0.000 A 
ATOM     27  C   UNL     1       6.670   6.212  16.970  0.00  0.00    +0.000 A 
ATOM     28  C   UNL     1       5.285   6.383  17.025  0.00  0.00    +0.000 A 
BRANCH  28  29
ATOM     29  O   UNL     1       4.627   6.959  15.972  0.00  0.00    +0.000 OA
ATOM     30  H   UNL     1       4.722   6.375  15.198  0.00  0.00    +0.000 HD
ENDBRANCH  28  29
ENDBRANCH  22  23
ENDBRANCH   9  22
TORSDOF 6
ENDMDL
MODEL 5
REMARK VINA RESULT:      -7.8      2.267      4.021
REMARK  Name = 
REMARK  6 active torsions:
REMARK  status: ('A' for Active; 'I' for Inactive)
REMARK    1  A    between atoms: C_4  and  C_5
REMARK    2  A    between atoms: C_14  and  O_15
REMARK    3  A    between atoms: C_16  and  C_17
REMARK    4  A    between atoms: C_17  and  C_18
REMARK    5  A    between atoms: C_23  and  O_24
REMARK    6  A    between atoms: C_25  and  O_26
REMARK                            x       y       z     vdW  Elec       q    Type
REMARK                         _______ _______ _______ _____ _____    ______ ____
ROOT
ATOM      1  O   UNL     1      -0.197   8.527  21.606  0.00  0.00    +0.000 OA
ATOM      2  C   UNL     1       0.426   9.163  20.763  0.00  0.00    +0.000 C 
ATOM      3  C   UNL     1       0.275  10.646  20.653  0.00  0.00    +0.000 C 
ATOM      4  C   UNL     1       0.252  11.076  19.192  0.00  0.00    +0.000 C 
ATOM      5  O   UNL     1       1.267  10.503  18.364  0.00  0.00    +0.000 OA
ATOM      6  C   UNL     1       1.701   9.247  18.668  0.00  0.00    +0.000 A 
ATOM      7  C   UNL     1       2.563   8.685  17.725  0.00  0.00    +0.000 A 
ATOM      8  C   UNL     1       3.167   7.454  17.976  0.00  0.00    +0.000 A 
ATOM      9  C   UNL     1       2.952   6.764  19.177  0.00  0.00    +0.000 A 
ATOM     10  C   UNL     1       2.038   7.321  20.099  0.00  0.00    +0.000 A 
ATOM     11  C   UNL     1       1.398   8.548  19.834  0.00  0.00    +0.000 A 
ENDROOT
BRANCH   4  12
ATOM     12  C   UNL     1       0.444  12.584  19.114  0.00  0.00    +0.000 A 
ATOM     13  C   UNL     1      -0.627  13.448  19.412  0.00  0.00    +0.000 A 
ATOM     14  C   UNL     1      -0.502  14.828  19.260  0.00  0.00    +0.000 A 
ATOM     15  C   UNL     1       0.707  15.369  18.834  0.00  0.00    +0.000 A 
ATOM     16  C   UNL     1       1.792  14.532  18.578  0.00  0.00    +0.000 A 
ATOM     17  C   UNL     1       1.665  13.145  18.717  0.00  0.00    +0.000 A 
ENDBRANCH   4  12
BRANCH   8  18
ATOM     18  O   UNL     1       4.033   6.935  17.052  0.00  0.00    +0.000 OA
ATOM     19  H   UNL     1       4.259   6.025  17.304  0.00  0.00    +0.000 HD
ENDBRANCH   8  18
BRANCH  10  20
ATOM     20  O   UNL     1       1.845   6.738  21.319  0.00  0.00    +0.000 OA
ATOM     21  H   UNL     1       1.070   6.144  21.286  0.00  0.00    +0.000 HD
ENDBRANCH  10  20
BRANCH   9  22
ATOM     22  C   UNL     1       3.758   5.519  19.495  0.00  0.00    +0.000 C 
BRANCH  22  23
ATOM     23  C   UNL     1       3.115   4.196  19.144  0.00  0.00    +0.000 A 
ATOM     24  C   UNL     1       1.738   4.141  18.878  0.00  0.00    +0.000 A 
ATOM     25  C   UNL     1       1.137   2.954  18.451  0.00  0.00    +0.000 A 
ATOM     26  C   UNL     1       1.902   1.800  18.299  0.00  0.00    +0.000 A 
ATOM     27  C   UNL     1       3.266   1.827  18.587  0.00  0.00    +0.000 A 
ATOM     28  C   UNL     1       3.862   3.020  19.004  0.00  0.00    +0.000 A 
BRANCH  28  29
ATOM     29  O   UNL     1       5.203   3.054  19.269  0.00  0.00    +0.000 OA
ATOM     30  H   UNL     1       5.394   2.398  19.963  0.00  0.00    +0.000 HD
ENDBRANCH  28  29
ENDBRANCH  22  23
ENDBRANCH   9  22
TORSDOF 6
ENDMDL
MODEL 6
REMARK VINA RESULT:      -7.8      2.382      4.090
REMARK  Name = 
REMARK  6 active torsions:
REMARK  status: ('A' for Active; 'I' for Inactive)
REMARK    1  A    between atoms: C_4  and  C_5
REMARK    2  A    between atoms: C_14  and  O_15
REMARK    3  A    between atoms: C_16  and  C_17
REMARK    4  A    between atoms: C_17  and  C_18
REMARK    5  A    between atoms: C_23  and  O_24
REMARK    6  A    between atoms: C_25  and  O_26
REMARK                            x       y       z     vdW  Elec       q    Type
REMARK                         _______ _______ _______ _____ _____    ______ ____
ROOT
ATOM      1  O   UNL     1      -0.393   9.115  21.681  0.00  0.00    +0.000 OA
ATOM      2  C   UNL     1       0.232   9.708  20.807  0.00  0.00    +0.000 C 
ATOM      3  C   UNL     1       0.138  11.193  20.668  0.00  0.00    +0.000 C 
ATOM      4  C   UNL     1       0.089  11.593  19.200  0.00  0.00    +0.000 C 
ATOM      5  O   UNL     1       1.055  10.962  18.356  0.00  0.00    +0.000 OA
ATOM      6  C   UNL     1       1.446   9.696  18.675  0.00  0.00    +0.000 A 
ATOM      7  C   UNL     1       2.257   9.079  17.721  0.00  0.00    +0.000 A 
ATOM      8  C   UNL     1       2.818   7.829  17.981  0.00  0.00    +0.000 A 
ATOM      9  C   UNL     1       2.610   7.174  19.203  0.00  0.00    +0.000 A 
ATOM     10  C   UNL     1       1.746   7.788  20.137  0.00  0.00    +0.000 A 
ATOM     11  C   UNL     1       1.149   9.034  19.864  0.00  0.00    +0.000 A 
ENDROOT
BRANCH   4  12
ATOM     12  C   UNL     1       0.340  13.090  19.084  0.00  0.00    +0.000 A 
ATOM     13  C   UNL     1       1.611  13.564  18.703  0.00  0.00    +0.000 A 
ATOM     14  C   UNL     1       1.892  14.929  18.678  0.00  0.00    +0.000 A 
ATOM     15  C   UNL     1       0.897  15.844  19.007  0.00  0.00    +0.000 A 
ATOM     16  C   UNL     1      -0.379  15.395  19.342  0.00  0.00    +0.000 A 
ATOM     17  C   UNL     1      -0.660  14.025  19.381  0.00  0.00    +0.000 A 
ENDBRANCH   4  12
BRANCH   8  18
ATOM     18  O   UNL     1       3.634   7.256  17.044  0.00  0.00    +0.000 OA
ATOM     19  H   UNL     1       4.325   7.891  16.793  0.00  0.00    +0.000 HD
ENDBRANCH   8  18
BRANCH  10  20
ATOM     20  O   UNL     1       1.567   7.237  21.375  0.00  0.00    +0.000 OA
ATOM     21  H   UNL     1       0.649   7.389  21.677  0.00  0.00    +0.000 HD
ENDBRANCH  10  20
BRANCH   9  22
ATOM     22  C   UNL     1       3.374   5.904  19.524  0.00  0.00    +0.000 C 
BRANCH  22  23
ATOM     23  C   UNL     1       2.639   4.602  19.293  0.00  0.00    +0.000 A 
ATOM     24  C   UNL     1       2.530   4.087  17.992  0.00  0.00    +0.000 A 
ATOM     25  C   UNL     1       1.948   2.838  17.761  0.00  0.00    +0.000 A 
ATOM     26  C   UNL     1       1.452   2.092  18.827  0.00  0.00    +0.000 A 
ATOM     27  C   UNL     1       1.525   2.599  20.124  0.00  0.00    +0.000 A 
ATOM     28  C   UNL     1       2.117   3.845  20.348  0.00  0.00    +0.000 A 
BRANCH  28  29
ATOM     29  O   UNL     1       2.206   4.337  21.621  0.00  0.00    +0.000 OA
ATOM     30  H   UNL     1       1.312   4.589  21.914  0.00  0.00    +0.000 HD
ENDBRANCH  28  29
ENDBRANCH  22  23
ENDBRANCH   9  22
TORSDOF 6
ENDMDL
MODEL 7
REMARK VINA RESULT:      -7.8      2.300      3.984
REMARK  Name = 
REMARK  6 active torsions:
REMARK  status: ('A' for Active; 'I' for Inactive)
REMARK    1  A    between atoms: C_4  and  C_5
REMARK    2  A    between atoms: C_14  and  O_15
REMARK    3  A    between atoms: C_16  and  C_17
REMARK    4  A    between atoms: C_17  and  C_18
REMARK    5  A    between atoms: C_23  and  O_24
REMARK    6  A    between atoms: C_25  and  O_26
REMARK                            x       y       z     vdW  Elec       q    Type
REMARK                         _______ _______ _______ _____ _____    ______ ____
ROOT
ATOM      1  O   UNL     1      -0.443   9.446  22.154  0.00  0.00    +0.000 OA
ATOM      2  C   UNL     1       0.037  10.094  21.231  0.00  0.00    +0.000 C 
ATOM      3  C   UNL     1      -0.114  11.581  21.175  0.00  0.00    +0.000 C 
ATOM      4  C   UNL     1      -0.378  12.040  19.747  0.00  0.00    +0.000 C 
ATOM      5  O   UNL     1       0.478  11.477  18.750  0.00  0.00    +0.000 OA
ATOM      6  C   UNL     1       0.943  10.211  18.954  0.00  0.00    +0.000 A 
ATOM      7  C   UNL     1       1.628   9.662  17.869  0.00  0.00    +0.000 A 
ATOM      8  C   UNL     1       2.253   8.421  17.991  0.00  0.00    +0.000 A 
ATOM      9  C   UNL     1       2.235   7.708  19.199  0.00  0.00    +0.000 A 
ATOM     10  C   UNL     1       1.494   8.254  20.271  0.00  0.00    +0.000 A 
ATOM     11  C   UNL     1       0.832   9.491  20.140  0.00  0.00    +0.000 A 
ENDROOT
BRANCH   4  12
ATOM     12  C   UNL     1      -0.185  13.548  19.666  0.00  0.00    +0.000 A 
ATOM     13  C   UNL     1      -1.158  14.413  20.202  0.00  0.00    +0.000 A 
ATOM     14  C   UNL     1      -1.048  15.796  20.060  0.00  0.00    +0.000 A 
ATOM     15  C   UNL     1       0.052  16.336  19.403  0.00  0.00    +0.000 A 
ATOM     16  C   UNL     1       1.048  15.497  18.906  0.00  0.00    +0.000 A 
ATOM     17  C   UNL     1       0.933  14.109  19.035  0.00  0.00    +0.000 A 
ENDBRANCH   4  12
BRANCH   8  18
ATOM     18  O   UNL     1       2.945   7.915  16.925  0.00  0.00    +0.000 OA
ATOM     19  H   UNL     1       3.046   6.955  17.038  0.00  0.00    +0.000 HD
ENDBRANCH   8  18
BRANCH  10  20
ATOM     20  O   UNL     1       1.503   7.647  21.495  0.00  0.00    +0.000 OA
ATOM     21  H   UNL     1       0.615   7.703  21.901  0.00  0.00    +0.000 HD
ENDBRANCH  10  20
BRANCH   9  22
ATOM     22  C   UNL     1       3.069   6.452  19.353  0.00  0.00    +0.000 C 
BRANCH  22  23
ATOM     23  C   UNL     1       2.325   5.137  19.268  0.00  0.00    +0.000 A 
ATOM     24  C   UNL     1       1.949   4.631  18.015  0.00  0.00    +0.000 A 
ATOM     25  C   UNL     1       1.354   3.372  17.898  0.00  0.00    +0.000 A 
ATOM     26  C   UNL     1       1.110   2.608  19.037  0.00  0.00    +0.000 A 
ATOM     27  C   UNL     1       1.449   3.107  20.294  0.00  0.00    +0.000 A 
ATOM     28  C   UNL     1       2.053   4.362  20.401  0.00  0.00    +0.000 A 
BRANCH  28  29
ATOM     29  O   UNL     1       2.403   4.846  21.632  0.00  0.00    +0.000 OA
ATOM     30  H   UNL     1       1.589   5.110  22.099  0.00  0.00    +0.000 HD
ENDBRANCH  28  29
ENDBRANCH  22  23
ENDBRANCH   9  22
TORSDOF 6
ENDMDL
MODEL 8
REMARK VINA RESULT:      -7.8      2.518      8.660
REMARK  Name = 
REMARK  6 active torsions:
REMARK  status: ('A' for Active; 'I' for Inactive)
REMARK    1  A    between atoms: C_4  and  C_5
REMARK    2  A    between atoms: C_14  and  O_15
REMARK    3  A    between atoms: C_16  and  C_17
REMARK    4  A    between atoms: C_17  and  C_18
REMARK    5  A    between atoms: C_23  and  O_24
REMARK    6  A    between atoms: C_25  and  O_26
REMARK                            x       y       z     vdW  Elec       q    Type
REMARK                         _______ _______ _______ _____ _____    ______ ____
ROOT
ATOM      1  O   UNL     1       0.455   9.896  23.205  0.00  0.00    +0.000 OA
ATOM      2  C   UNL     1       0.474   9.532  22.034  0.00  0.00    +0.000 C 
ATOM      3  C   UNL     1       0.959   8.168  21.660  0.00  0.00    +0.000 C 
ATOM      4  C   UNL     1       1.787   8.224  20.384  0.00  0.00    +0.000 C 
ATOM      5  O   UNL     1       1.221   8.984  19.313  0.00  0.00    +0.000 OA
ATOM      6  C   UNL     1       0.447  10.059  19.638  0.00  0.00    +0.000 A 
ATOM      7  C   UNL     1       0.070  10.852  18.553  0.00  0.00    +0.000 A 
ATOM      8  C   UNL     1      -0.816  11.913  18.737  0.00  0.00    +0.000 A 
ATOM      9  C   UNL     1      -1.368  12.196  19.994  0.00  0.00    +0.000 A 
ATOM     10  C   UNL     1      -0.936  11.417  21.090  0.00  0.00    +0.000 A 
ATOM     11  C   UNL     1      -0.014  10.366  20.915  0.00  0.00    +0.000 A 
ENDROOT
BRANCH   4  12
ATOM     12  C   UNL     1       1.970   6.810  19.848  0.00  0.00    +0.000 A 
ATOM     13  C   UNL     1       2.419   6.610  18.528  0.00  0.00    +0.000 A 
ATOM     14  C   UNL     1       2.507   5.329  17.985  0.00  0.00    +0.000 A 
ATOM     15  C   UNL     1       2.173   4.225  18.763  0.00  0.00    +0.000 A 
ATOM     16  C   UNL     1       1.770   4.403  20.086  0.00  0.00    +0.000 A 
ATOM     17  C   UNL     1       1.669   5.688  20.629  0.00  0.00    +0.000 A 
ENDBRANCH   4  12
BRANCH   8  18
ATOM     18  O   UNL     1      -1.198  12.659  17.655  0.00  0.00    +0.000 OA
ATOM     19  H   UNL     1      -0.557  12.528  16.937  0.00  0.00    +0.000 HD
ENDBRANCH   8  18
BRANCH  10  20
ATOM     20  O   UNL     1      -1.495  11.592  22.325  0.00  0.00    +0.000 OA
ATOM     21  H   UNL     1      -2.288  11.028  22.415  0.00  0.00    +0.000 HD
ENDBRANCH  10  20
BRANCH   9  22
ATOM     22  C   UNL     1      -2.460  13.240  20.128  0.00  0.00    +0.000 C 
BRANCH  22  23
ATOM     23  C   UNL     1      -3.883  12.724  20.147  0.00  0.00    +0.000 A 
ATOM     24  C   UNL     1      -4.415  12.111  19.002  0.00  0.00    +0.000 A 
ATOM     25  C   UNL     1      -5.687  11.533  19.023  0.00  0.00    +0.000 A 
ATOM     26  C   UNL     1      -6.453  11.575  20.186  0.00  0.00    +0.000 A 
ATOM     27  C   UNL     1      -5.953  12.206  21.325  0.00  0.00    +0.000 A 
ATOM     28  C   UNL     1      -4.677  12.772  21.299  0.00  0.00    +0.000 A 
BRANCH  28  29
ATOM     29  O   UNL     1      -4.176  13.376  22.420  0.00  0.00    +0.000 OA
ATOM     30  H   UNL     1      -4.918  13.555  23.026  0.00  0.00    +0.000 HD
ENDBRANCH  28  29
ENDBRANCH  22  23
ENDBRANCH   9  22
TORSDOF 6
ENDMDL
MODEL 9
REMARK VINA RESULT:      -7.6      2.284      3.954
REMARK  Name = 
REMARK  6 active torsions:
REMARK  status: ('A' for Active; 'I' for Inactive)
REMARK    1  A    between atoms: C_4  and  C_5
REMARK    2  A    between atoms: C_14  and  O_15
REMARK    3  A    between atoms: C_16  and  C_17
REMARK    4  A    between atoms: C_17  and  C_18
REMARK    5  A    between atoms: C_23  and  O_24
REMARK    6  A    between atoms: C_25  and  O_26
REMARK                            x       y       z     vdW  Elec       q    Type
REMARK                         _______ _______ _______ _____ _____    ______ ____
ROOT
ATOM      1  O   UNL     1      -0.574   9.569  22.514  0.00  0.00    +0.000 OA
ATOM      2  C   UNL     1      -0.213  10.211  21.533  0.00  0.00    +0.000 C 
ATOM      3  C   UNL     1      -0.493  11.676  21.427  0.00  0.00    +0.000 C 
ATOM      4  C   UNL     1      -0.888  12.044  20.003  0.00  0.00    +0.000 C 
ATOM      5  O   UNL     1      -0.055  11.507  18.973  0.00  0.00    +0.000 OA
ATOM      6  C   UNL     1       0.528  10.295  19.196  0.00  0.00    +0.000 A 
ATOM      7  C   UNL     1       1.184   9.754  18.089  0.00  0.00    +0.000 A 
ATOM      8  C   UNL     1       1.919   8.576  18.218  0.00  0.00    +0.000 A 
ATOM      9  C   UNL     1       2.041   7.921  19.452  0.00  0.00    +0.000 A 
ATOM     10  C   UNL     1       1.329   8.454  20.550  0.00  0.00    +0.000 A 
ATOM     11  C   UNL     1       0.557   9.624  20.416  0.00  0.00    +0.000 A 
ENDROOT
BRANCH   4  12
ATOM     12  C   UNL     1      -0.829  13.558  19.848  0.00  0.00    +0.000 A 
ATOM     13  C   UNL     1      -1.612  14.383  20.679  0.00  0.00    +0.000 A 
ATOM     14  C   UNL     1      -1.644  15.765  20.496  0.00  0.00    +0.000 A 
ATOM     15  C   UNL     1      -0.873  16.346  19.495  0.00  0.00    +0.000 A 
ATOM     16  C   UNL     1      -0.058  15.549  18.692  0.00  0.00    +0.000 A 
ATOM     17  C   UNL     1      -0.033  14.161  18.866  0.00  0.00    +0.000 A 
ENDBRANCH   4  12
BRANCH   8  18
ATOM     18  O   UNL     1       2.580   8.079  17.128  0.00  0.00    +0.000 OA
ATOM     19  H   UNL     1       3.249   8.722  16.842  0.00  0.00    +0.000 HD
ENDBRANCH   8  18
BRANCH  10  20
ATOM     20  O   UNL     1       1.470   7.907  21.795  0.00  0.00    +0.000 OA
ATOM     21  H   UNL     1       1.451   8.612  22.472  0.00  0.00    +0.000 HD
ENDBRANCH  10  20
BRANCH   9  22
ATOM     22  C   UNL     1       2.987   6.745  19.600  0.00  0.00    +0.000 C 
BRANCH  22  23
ATOM     23  C   UNL     1       2.396   5.374  19.361  0.00  0.00    +0.000 A 
ATOM     24  C   UNL     1       1.528   4.815  20.312  0.00  0.00    +0.000 A 
ATOM     25  C   UNL     1       0.886   3.598  20.071  0.00  0.00    +0.000 A 
ATOM     26  C   UNL     1       1.116   2.912  18.880  0.00  0.00    +0.000 A 
ATOM     27  C   UNL     1       1.998   3.436  17.936  0.00  0.00    +0.000 A 
ATOM     28  C   UNL     1       2.628   4.659  18.180  0.00  0.00    +0.000 A 
BRANCH  28  29
ATOM     29  O   UNL     1       3.479   5.184  17.247  0.00  0.00    +0.000 OA
ATOM     30  H   UNL     1       4.290   4.644  17.236  0.00  0.00    +0.000 HD
ENDBRANCH  28  29
ENDBRANCH  22  23
ENDBRANCH   9  22
TORSDOF 6
ENDMDL
