MODEL 1
REMARK VINA RESULT:      -7.7      0.000      0.000
REMARK  Name = 
REMARK  3 active torsions:
REMARK  status: ('A' for Active; 'I' for Inactive)
REMARK    1  A    between atoms: C_1  and  C_2
REMARK    2  A    between atoms: C_4  and  C_5
REMARK    3  A    between atoms: C_12  and  C_13
REMARK                            x       y       z     vdW  Elec       q    Type
REMARK                         _______ _______ _______ _____ _____    ______ ____
ROOT
ATOM      1  C   UNL     1      10.728  12.738  20.412  0.00  0.00    +0.000 C 
ATOM      2  C   UNL     1       9.705  13.770  20.879  0.00  0.00    +0.000 C 
ATOM      3  O   UNL     1       9.463  13.345  22.236  0.00  0.00    +0.000 OA
ATOM      4  C   UNL     1       8.615  14.259  22.912  0.00  0.00    +0.000 C 
ATOM      5  C   UNL     1       8.477  13.815  24.363  0.00  0.00    +0.000 C 
ATOM      6  C   UNL     1       7.246  14.280  22.239  0.00  0.00    +0.000 C 
ATOM      7  N   UNL     1       7.323  14.653  20.807  0.00  0.00    +0.000 N 
ATOM      8  C   UNL     1       6.085  14.922  20.151  0.00  0.00    +0.000 A 
ATOM      9  C   UNL     1       6.006  14.940  18.722  0.00  0.00    +0.000 A 
ATOM     10  N   UNL     1       4.904  15.271  17.941  0.00  0.00    +0.000 NA
ATOM     11  C   UNL     1       3.742  15.298  18.648  0.00  0.00    +0.000 A 
ATOM     12  C   UNL     1       2.331  15.248  18.374  0.00  0.00    +0.000 A 
ATOM     13  N   UNL     1       1.918  14.173  19.097  0.00  0.00    +0.000 NA
ATOM     14  O   UNL     1       2.599  14.382  20.311  0.00  0.00    +0.000 OA
ATOM     15  C   UNL     1       3.757  15.033  19.992  0.00  0.00    +0.000 A 
ATOM     16  C   UNL     1       4.858  15.172  20.801  0.00  0.00    +0.000 A 
ATOM     17 CL   UNL     1       4.483  15.518  22.441  0.00  0.00    +0.000 Cl
ATOM     18  C   UNL     1       7.140  14.337  17.919  0.00  0.00    +0.000 C 
ATOM     19  C   UNL     1       8.512  14.397  18.602  0.00  0.00    +0.000 C 
ATOM     20  C   UNL     1       9.391  13.433  17.790  0.00  0.00    +0.000 C 
ATOM     21  O   UNL     1       9.151  12.253  17.687  0.00  0.00    +0.000 OA
ATOM     22  N   UNL     1      10.505  13.967  17.195  0.00  0.00    +0.000 N 
ATOM     23  C   UNL     1      11.027  15.204  17.405  0.00  0.00    +0.000 C 
ATOM     24  O   UNL     1      12.084  15.552  16.903  0.00  0.00    +0.000 OA
ATOM     25  N   UNL     1      10.298  16.040  18.189  0.00  0.00    +0.000 N 
ATOM     26  C   UNL     1       9.004  15.827  18.579  0.00  0.00    +0.000 C 
ATOM     27  O   UNL     1       8.320  16.802  18.855  0.00  0.00    +0.000 OA
ATOM     28  C   UNL     1       8.360  13.847  20.046  0.00  0.00    +0.000 C 
ATOM     29  H   UNL     1      11.081  13.332  16.674  0.00  0.00    +0.000 HD
ATOM     30  H   UNL     1      10.595  17.007  18.181  0.00  0.00    +0.000 HD
ENDROOT
BRANCH  12  31
ATOM     31  C   UNL     1       1.294  16.322  18.375  0.00  0.00    +0.000 A 
ATOM     32  C   UNL     1       1.584  17.680  18.227  0.00  0.00    +0.000 A 
ATOM     33  C   UNL     1       0.560  18.601  18.450  0.00  0.00    +0.000 A 
ATOM     34  N   UNL     1      -0.698  18.273  18.821  0.00  0.00    +0.000 NA
ATOM     35  C   UNL     1      -0.950  16.963  18.997  0.00  0.00    +0.000 A 
ATOM     36  C   UNL     1      -0.007  15.974  18.786  0.00  0.00    +0.000 A 
ENDBRANCH  12  31
TORSDOF 1
ENDMDL
MODEL 2
REMARK VINA RESULT:      -7.6      8.237      9.141
REMARK  Name = 
REMARK  3 active torsions:
REMARK  status: ('A' for Active; 'I' for Inactive)
REMARK    1  A    between atoms: C_1  and  C_2
REMARK    2  A    between atoms: C_4  and  C_5
REMARK    3  A    between atoms: C_12  and  C_13
REMARK                            x       y       z     vdW  Elec       q    Type
REMARK                         _______ _______ _______ _____ _____    ______ ____
ROOT
ATOM      1  C   UNL     1       4.095   2.198  17.943  0.00  0.00    +0.000 C 
ATOM      2  C   UNL     1       3.876   3.307  18.969  0.00  0.00    +0.000 C 
ATOM      3  O   UNL     1       2.842   2.737  19.797  0.00  0.00    +0.000 OA
ATOM      4  C   UNL     1       2.567   3.569  20.912  0.00  0.00    +0.000 C 
ATOM      5  C   UNL     1       1.545   2.871  21.802  0.00  0.00    +0.000 C 
ATOM      6  C   UNL     1       2.013   4.905  20.429  0.00  0.00    +0.000 C 
ATOM      7  N   UNL     1       2.943   5.608  19.513  0.00  0.00    +0.000 N 
ATOM      8  C   UNL     1       2.620   6.959  19.190  0.00  0.00    +0.000 A 
ATOM      9  C   UNL     1       3.228   7.605  18.067  0.00  0.00    +0.000 A 
ATOM     10  N   UNL     1       3.086   8.933  17.677  0.00  0.00    +0.000 NA
ATOM     11  C   UNL     1       2.043   9.556  18.289  0.00  0.00    +0.000 A 
ATOM     12  C   UNL     1       1.237  10.729  18.081  0.00  0.00    +0.000 A 
ATOM     13  N   UNL     1      -0.024  10.225  18.016  0.00  0.00    +0.000 NA
ATOM     14  O   UNL     1      -0.009   9.314  19.089  0.00  0.00    +0.000 OA
ATOM     15  C   UNL     1       1.278   8.872  19.197  0.00  0.00    +0.000 A 
ATOM     16  C   UNL     1       1.701   7.766  19.893  0.00  0.00    +0.000 A 
ATOM     17 CL   UNL     1       0.935   7.564  21.418  0.00  0.00    +0.000 Cl
ATOM     18  C   UNL     1       3.937   6.758  17.031  0.00  0.00    +0.000 C 
ATOM     19  C   UNL     1       4.539   5.455  17.571  0.00  0.00    +0.000 C 
ATOM     20  C   UNL     1       4.864   4.629  16.317  0.00  0.00    +0.000 C 
ATOM     21  O   UNL     1       4.022   4.273  15.528  0.00  0.00    +0.000 OA
ATOM     22  N   UNL     1       6.177   4.275  16.136  0.00  0.00    +0.000 N 
ATOM     23  C   UNL     1       7.186   4.398  17.038  0.00  0.00    +0.000 C 
ATOM     24  O   UNL     1       8.304   3.958  16.818  0.00  0.00    +0.000 OA
ATOM     25  N   UNL     1       6.888   5.057  18.187  0.00  0.00    +0.000 N 
ATOM     26  C   UNL     1       5.755   5.790  18.405  0.00  0.00    +0.000 C 
ATOM     27  O   UNL     1       5.803   6.688  19.235  0.00  0.00    +0.000 OA
ATOM     28  C   UNL     1       3.445   4.718  18.391  0.00  0.00    +0.000 C 
ATOM     29  H   UNL     1       6.383   3.727  15.321  0.00  0.00    +0.000 HD
ATOM     30  H   UNL     1       7.685   5.308  18.759  0.00  0.00    +0.000 HD
ENDROOT
BRANCH  12  31
ATOM     31  C   UNL     1       1.246  12.057  18.761  0.00  0.00    +0.000 A 
ATOM     32  C   UNL     1       0.106  12.666  19.290  0.00  0.00    +0.000 A 
ATOM     33  C   UNL     1       0.204  13.992  19.715  0.00  0.00    +0.000 A 
ATOM     34  N   UNL     1       1.325  14.741  19.634  0.00  0.00    +0.000 NA
ATOM     35  C   UNL     1       2.403  14.153  19.087  0.00  0.00    +0.000 A 
ATOM     36  C   UNL     1       2.412  12.840  18.650  0.00  0.00    +0.000 A 
ENDBRANCH  12  31
TORSDOF 1
ENDMDL
MODEL 3
REMARK VINA RESULT:      -7.4      6.963     10.948
REMARK  Name = 
REMARK  3 active torsions:
REMARK  status: ('A' for Active; 'I' for Inactive)
REMARK    1  A    between atoms: C_1  and  C_2
REMARK    2  A    between atoms: C_4  and  C_5
REMARK    3  A    between atoms: C_12  and  C_13
REMARK                            x       y       z     vdW  Elec       q    Type
REMARK                         _______ _______ _______ _____ _____    ______ ____
ROOT
ATOM      1  C   UNL     1      -3.646  16.038  22.197  0.00  0.00    +0.000 C 
ATOM      2  C   UNL     1      -2.344  15.284  22.455  0.00  0.00    +0.000 C 
ATOM      3  O   UNL     1      -1.370  16.341  22.343  0.00  0.00    +0.000 OA
ATOM      4  C   UNL     1      -0.073  15.875  22.676  0.00  0.00    +0.000 C 
ATOM      5  C   UNL     1       0.894  17.053  22.639  0.00  0.00    +0.000 C 
ATOM      6  C   UNL     1       0.361  14.812  21.673  0.00  0.00    +0.000 C 
ATOM      7  N   UNL     1      -0.572  13.662  21.624  0.00  0.00    +0.000 N 
ATOM      8  C   UNL     1      -0.139  12.518  20.890  0.00  0.00    +0.000 A 
ATOM      9  C   UNL     1      -1.074  11.515  20.483  0.00  0.00    +0.000 A 
ATOM     10  N   UNL     1      -0.798  10.309  19.846  0.00  0.00    +0.000 NA
ATOM     11  C   UNL     1       0.462  10.258  19.334  0.00  0.00    +0.000 A 
ATOM     12  C   UNL     1       1.179   9.486  18.356  0.00  0.00    +0.000 A 
ATOM     13  N   UNL     1       1.630  10.432  17.490  0.00  0.00    +0.000 NA
ATOM     14  O   UNL     1       2.091  11.419  18.382  0.00  0.00    +0.000 OA
ATOM     15  C   UNL     1       1.307  11.324  19.496  0.00  0.00    +0.000 A 
ATOM     16  C   UNL     1       1.190  12.266  20.489  0.00  0.00    +0.000 A 
ATOM     17 CL   UNL     1       2.679  12.993  20.942  0.00  0.00    +0.000 Cl
ATOM     18  C   UNL     1      -2.554  11.835  20.525  0.00  0.00    +0.000 C 
ATOM     19  C   UNL     1      -2.959  12.858  21.592  0.00  0.00    +0.000 C 
ATOM     20  C   UNL     1      -4.387  13.277  21.206  0.00  0.00    +0.000 C 
ATOM     21  O   UNL     1      -4.654  13.809  20.155  0.00  0.00    +0.000 OA
ATOM     22  N   UNL     1      -5.369  13.047  22.135  0.00  0.00    +0.000 N 
ATOM     23  C   UNL     1      -5.194  12.677  23.431  0.00  0.00    +0.000 C 
ATOM     24  O   UNL     1      -6.131  12.596  24.210  0.00  0.00    +0.000 OA
ATOM     25  N   UNL     1      -3.923  12.381  23.807  0.00  0.00    +0.000 N 
ATOM     26  C   UNL     1      -2.870  12.203  22.952  0.00  0.00    +0.000 C 
ATOM     27  O   UNL     1      -1.939  11.504  23.328  0.00  0.00    +0.000 OA
ATOM     28  C   UNL     1      -2.021  14.089  21.466  0.00  0.00    +0.000 C 
ATOM     29  H   UNL     1      -6.297  13.331  21.882  0.00  0.00    +0.000 HD
ATOM     30  H   UNL     1      -3.834  11.928  24.707  0.00  0.00    +0.000 HD
ENDROOT
BRANCH  12  31
ATOM     31  C   UNL     1       2.179   8.389  18.515  0.00  0.00    +0.000 A 
ATOM     32  C   UNL     1       3.086   8.015  17.521  0.00  0.00    +0.000 A 
ATOM     33  C   UNL     1       3.826   6.848  17.709  0.00  0.00    +0.000 A 
ATOM     34  N   UNL     1       3.715   6.035  18.782  0.00  0.00    +0.000 NA
ATOM     35  C   UNL     1       2.810   6.388  19.712  0.00  0.00    +0.000 A 
ATOM     36  C   UNL     1       2.039   7.533  19.625  0.00  0.00    +0.000 A 
ENDBRANCH  12  31
TORSDOF 1
ENDMDL
MODEL 4
REMARK VINA RESULT:      -7.3      6.818     10.526
REMARK  Name = 
REMARK  3 active torsions:
REMARK  status: ('A' for Active; 'I' for Inactive)
REMARK    1  A    between atoms: C_1  and  C_2
REMARK    2  A    between atoms: C_4  and  C_5
REMARK    3  A    between atoms: C_12  and  C_13
REMARK                            x       y       z     vdW  Elec       q    Type
REMARK                         _______ _______ _______ _____ _____    ______ ____
ROOT
ATOM      1  C   UNL     1      -2.891  16.000  20.613  0.00  0.00    +0.000 C 
ATOM      2  C   UNL     1      -1.460  15.467  20.593  0.00  0.00    +0.000 C 
ATOM      3  O   UNL     1      -0.845  16.324  19.609  0.00  0.00    +0.000 OA
ATOM      4  C   UNL     1       0.548  16.077  19.521  0.00  0.00    +0.000 C 
ATOM      5  C   UNL     1       1.160  17.076  18.545  0.00  0.00    +0.000 C 
ATOM      6  C   UNL     1       0.786  14.654  19.028  0.00  0.00    +0.000 C 
ATOM      7  N   UNL     1       0.166  13.636  19.910  0.00  0.00    +0.000 N 
ATOM      8  C   UNL     1       0.521  12.278  19.664  0.00  0.00    +0.000 A 
ATOM      9  C   UNL     1      -0.266  11.209  20.201  0.00  0.00    +0.000 A 
ATOM     10  N   UNL     1      -0.003   9.845  20.126  0.00  0.00    +0.000 NA
ATOM     11  C   UNL     1       0.951   9.539  19.206  0.00  0.00    +0.000 A 
ATOM     12  C   UNL     1       1.393   8.380  18.480  0.00  0.00    +0.000 A 
ATOM     13  N   UNL     1       1.275   8.769  17.183  0.00  0.00    +0.000 NA
ATOM     14  O   UNL     1       1.820  10.066  17.237  0.00  0.00    +0.000 OA
ATOM     15  C   UNL     1       1.552  10.541  18.489  0.00  0.00    +0.000 A 
ATOM     16  C   UNL     1       1.622  11.852  18.892  0.00  0.00    +0.000 A 
ATOM     17 CL   UNL     1       2.983  12.700  18.277  0.00  0.00    +0.000 Cl
ATOM     18  C   UNL     1      -1.653  11.516  20.727  0.00  0.00    +0.000 C 
ATOM     19  C   UNL     1      -1.831  12.936  21.275  0.00  0.00    +0.000 C 
ATOM     20  C   UNL     1      -3.353  13.116  21.400  0.00  0.00    +0.000 C 
ATOM     21  O   UNL     1      -4.101  13.057  20.453  0.00  0.00    +0.000 OA
ATOM     22  N   UNL     1      -3.841  13.383  22.653  0.00  0.00    +0.000 N 
ATOM     23  C   UNL     1      -3.118  13.704  23.758  0.00  0.00    +0.000 C 
ATOM     24  O   UNL     1      -3.654  14.026  24.807  0.00  0.00    +0.000 OA
ATOM     25  N   UNL     1      -1.768  13.627  23.637  0.00  0.00    +0.000 N 
ATOM     26  C   UNL     1      -1.102  13.043  22.596  0.00  0.00    +0.000 C 
ATOM     27  O   UNL     1       0.027  12.618  22.803  0.00  0.00    +0.000 OA
ATOM     28  C   UNL     1      -1.290  13.937  20.218  0.00  0.00    +0.000 C 
ATOM     29  H   UNL     1      -4.834  13.509  22.727  0.00  0.00    +0.000 HD
ATOM     30  H   UNL     1      -1.253  13.681  24.507  0.00  0.00    +0.000 HD
ENDROOT
BRANCH  12  31
ATOM     31  C   UNL     1       2.585   7.501  18.668  0.00  0.00    +0.000 A 
ATOM     32  C   UNL     1       3.601   7.359  17.720  0.00  0.00    +0.000 A 
ATOM     33  C   UNL     1       4.553   6.358  17.918  0.00  0.00    +0.000 A 
ATOM     34  N   UNL     1       4.552   5.497  18.960  0.00  0.00    +0.000 NA
ATOM     35  C   UNL     1       3.545   5.622  19.843  0.00  0.00    +0.000 A 
ATOM     36  C   UNL     1       2.563   6.590  19.742  0.00  0.00    +0.000 A 
ENDBRANCH  12  31
TORSDOF 1
ENDMDL
MODEL 5
REMARK VINA RESULT:      -6.8      1.386      1.599
REMARK  Name = 
REMARK  3 active torsions:
REMARK  status: ('A' for Active; 'I' for Inactive)
REMARK    1  A    between atoms: C_1  and  C_2
REMARK    2  A    between atoms: C_4  and  C_5
REMARK    3  A    between atoms: C_12  and  C_13
REMARK                            x       y       z     vdW  Elec       q    Type
REMARK                         _______ _______ _______ _____ _____    ______ ____
ROOT
ATOM      1  C   UNL     1       9.617  13.999  20.592  0.00  0.00    +0.000 C 
ATOM      2  C   UNL     1       8.502  14.955  21.008  0.00  0.00    +0.000 C 
ATOM      3  O   UNL     1       8.335  14.616  22.400  0.00  0.00    +0.000 OA
ATOM      4  C   UNL     1       7.411  15.489  23.029  0.00  0.00    +0.000 C 
ATOM      5  C   UNL     1       7.352  15.150  24.514  0.00  0.00    +0.000 C 
ATOM      6  C   UNL     1       6.033  15.315  22.399  0.00  0.00    +0.000 C 
ATOM      7  N   UNL     1       6.038  15.578  20.940  0.00  0.00    +0.000 N 
ATOM      8  C   UNL     1       4.766  15.665  20.303  0.00  0.00    +0.000 A 
ATOM      9  C   UNL     1       4.653  15.561  18.880  0.00  0.00    +0.000 A 
ATOM     10  N   UNL     1       3.505  15.713  18.109  0.00  0.00    +0.000 NA
ATOM     11  C   UNL     1       2.363  15.676  18.847  0.00  0.00    +0.000 A 
ATOM     12  C   UNL     1       0.960  15.459  18.621  0.00  0.00    +0.000 A 
ATOM     13  N   UNL     1       0.678  14.408  19.435  0.00  0.00    +0.000 NA
ATOM     14  O   UNL     1       1.360  14.783  20.609  0.00  0.00    +0.000 OA
ATOM     15  C   UNL     1       2.435  15.522  20.206  0.00  0.00    +0.000 A 
ATOM     16  C   UNL     1       3.534  15.838  20.968  0.00  0.00    +0.000 A 
ATOM     17 CL   UNL     1       3.160  16.274  22.587  0.00  0.00    +0.000 Cl
ATOM     18  C   UNL     1       5.827  15.016  18.092  0.00  0.00    +0.000 C 
ATOM     19  C   UNL     1       7.199  15.272  18.726  0.00  0.00    +0.000 C 
ATOM     20  C   UNL     1       8.157  14.342  17.965  0.00  0.00    +0.000 C 
ATOM     21  O   UNL     1       8.040  13.139  17.960  0.00  0.00    +0.000 OA
ATOM     22  N   UNL     1       9.195  14.939  17.297  0.00  0.00    +0.000 N 
ATOM     23  C   UNL     1       9.589  16.236  17.396  0.00  0.00    +0.000 C 
ATOM     24  O   UNL     1      10.592  16.649  16.836  0.00  0.00    +0.000 OA
ATOM     25  N   UNL     1       8.793  17.052  18.134  0.00  0.00    +0.000 N 
ATOM     26  C   UNL     1       7.538  16.738  18.578  0.00  0.00    +0.000 C 
ATOM     27  O   UNL     1       6.761  17.657  18.800  0.00  0.00    +0.000 OA
ATOM     28  C   UNL     1       7.138  14.825  20.212  0.00  0.00    +0.000 C 
ATOM     29  H   UNL     1       9.823  14.327  16.810  0.00  0.00    +0.000 HD
ATOM     30  H   UNL     1       8.987  18.041  18.043  0.00  0.00    +0.000 HD
ENDROOT
BRANCH  12  31
ATOM     31  C   UNL     1      -0.184  16.417  18.570  0.00  0.00    +0.000 A 
ATOM     32  C   UNL     1      -0.251  17.499  17.690  0.00  0.00    +0.000 A 
ATOM     33  C   UNL     1      -1.266  18.438  17.876  0.00  0.00    +0.000 A 
ATOM     34  N   UNL     1      -2.185  18.387  18.866  0.00  0.00    +0.000 NA
ATOM     35  C   UNL     1      -2.083  17.359  19.728  0.00  0.00    +0.000 A 
ATOM     36  C   UNL     1      -1.123  16.370  19.619  0.00  0.00    +0.000 A 
ENDBRANCH  12  31
TORSDOF 1
ENDMDL
MODEL 6
REMARK VINA RESULT:      -6.8      5.828     11.875
REMARK  Name = 
REMARK  3 active torsions:
REMARK  status: ('A' for Active; 'I' for Inactive)
REMARK    1  A    between atoms: C_1  and  C_2
REMARK    2  A    between atoms: C_4  and  C_5
REMARK    3  A    between atoms: C_12  and  C_13
REMARK                            x       y       z     vdW  Elec       q    Type
REMARK                         _______ _______ _______ _____ _____    ______ ____
ROOT
ATOM      1  C   UNL     1      -6.995  11.683  21.738  0.00  0.00    +0.000 C 
ATOM      2  C   UNL     1      -6.023  12.347  20.765  0.00  0.00    +0.000 C 
ATOM      3  O   UNL     1      -5.971  11.376  19.700  0.00  0.00    +0.000 OA
ATOM      4  C   UNL     1      -5.203  11.858  18.610  0.00  0.00    +0.000 C 
ATOM      5  C   UNL     1      -5.266  10.837  17.480  0.00  0.00    +0.000 C 
ATOM      6  C   UNL     1      -3.757  12.058  19.052  0.00  0.00    +0.000 C 
ATOM      7  N   UNL     1      -3.636  13.001  20.189  0.00  0.00    +0.000 N 
ATOM      8  C   UNL     1      -2.318  13.429  20.525  0.00  0.00    +0.000 A 
ATOM      9  C   UNL     1      -2.050  14.039  21.792  0.00  0.00    +0.000 A 
ATOM     10  N   UNL     1      -0.847  14.585  22.230  0.00  0.00    +0.000 NA
ATOM     11  C   UNL     1       0.211  14.228  21.453  0.00  0.00    +0.000 A 
ATOM     12  C   UNL     1       1.644  14.194  21.563  0.00  0.00    +0.000 A 
ATOM     13  N   UNL     1       1.938  12.888  21.325  0.00  0.00    +0.000 NA
ATOM     14  O   UNL     1       1.106  12.618  20.221  0.00  0.00    +0.000 OA
ATOM     15  C   UNL     1       0.013  13.426  20.360  0.00  0.00    +0.000 A 
ATOM     16  C   UNL     1      -1.183  13.294  19.698  0.00  0.00    +0.000 A 
ATOM     17 CL   UNL     1      -1.022  12.892  18.036  0.00  0.00    +0.000 Cl
ATOM     18  C   UNL     1      -3.079  13.913  22.896  0.00  0.00    +0.000 C 
ATOM     19  C   UNL     1      -4.527  13.782  22.411  0.00  0.00    +0.000 C 
ATOM     20  C   UNL     1      -5.309  13.314  23.649  0.00  0.00    +0.000 C 
ATOM     21  O   UNL     1      -5.080  12.272  24.215  0.00  0.00    +0.000 OA
ATOM     22  N   UNL     1      -6.324  14.129  24.080  0.00  0.00    +0.000 N 
ATOM     23  C   UNL     1      -6.846  15.198  23.424  0.00  0.00    +0.000 C 
ATOM     24  O   UNL     1      -7.821  15.801  23.846  0.00  0.00    +0.000 OA
ATOM     25  N   UNL     1      -6.211  15.573  22.283  0.00  0.00    +0.000 N 
ATOM     26  C   UNL     1      -4.985  15.121  21.879  0.00  0.00    +0.000 C 
ATOM     27  O   UNL     1      -4.325  15.838  21.139  0.00  0.00    +0.000 OA
ATOM     28  C   UNL     1      -4.578  12.667  21.331  0.00  0.00    +0.000 C 
ATOM     29  H   UNL     1      -6.838  13.814  24.883  0.00  0.00    +0.000 HD
ATOM     30  H   UNL     1      -6.487  16.473  21.912  0.00  0.00    +0.000 HD
ENDROOT
BRANCH  12  31
ATOM     31  C   UNL     1       2.692  15.089  20.989  0.00  0.00    +0.000 A 
ATOM     32  C   UNL     1       2.410  16.242  20.253  0.00  0.00    +0.000 A 
ATOM     33  C   UNL     1       3.463  16.880  19.597  0.00  0.00    +0.000 A 
ATOM     34  N   UNL     1       4.744  16.450  19.607  0.00  0.00    +0.000 NA
ATOM     35  C   UNL     1       4.992  15.317  20.288  0.00  0.00    +0.000 A 
ATOM     36  C   UNL     1       4.020  14.620  20.983  0.00  0.00    +0.000 A 
ENDBRANCH  12  31
TORSDOF 1
ENDMDL
MODEL 7
REMARK VINA RESULT:      -6.8      1.419      1.597
REMARK  Name = 
REMARK  3 active torsions:
REMARK  status: ('A' for Active; 'I' for Inactive)
REMARK    1  A    between atoms: C_1  and  C_2
REMARK    2  A    between atoms: C_4  and  C_5
REMARK    3  A    between atoms: C_12  and  C_13
REMARK                            x       y       z     vdW  Elec       q    Type
REMARK                         _______ _______ _______ _____ _____    ______ ____
ROOT
ATOM      1  C   UNL     1      10.927  14.627  20.408  0.00  0.00    +0.000 C 
ATOM      2  C   UNL     1       9.670  15.254  21.006  0.00  0.00    +0.000 C 
ATOM      3  O   UNL     1       9.726  14.776  22.365  0.00  0.00    +0.000 OA
ATOM      4  C   UNL     1       8.694  15.351  23.150  0.00  0.00    +0.000 C 
ATOM      5  C   UNL     1       8.864  14.892  24.593  0.00  0.00    +0.000 C 
ATOM      6  C   UNL     1       7.337  14.906  22.616  0.00  0.00    +0.000 C 
ATOM      7  N   UNL     1       7.135  15.278  21.195  0.00  0.00    +0.000 N 
ATOM      8  C   UNL     1       5.819  15.111  20.673  0.00  0.00    +0.000 A 
ATOM      9  C   UNL     1       5.592  15.097  19.260  0.00  0.00    +0.000 A 
ATOM     10  N   UNL     1       4.368  15.033  18.601  0.00  0.00    +0.000 NA
ATOM     11  C   UNL     1       3.345  14.667  19.419  0.00  0.00    +0.000 A 
ATOM     12  C   UNL     1       2.013  14.142  19.284  0.00  0.00    +0.000 A 
ATOM     13  N   UNL     1       2.063  12.992  20.008  0.00  0.00    +0.000 NA
ATOM     14  O   UNL     1       2.755  13.424  21.156  0.00  0.00    +0.000 OA
ATOM     15  C   UNL     1       3.586  14.427  20.746  0.00  0.00    +0.000 A 
ATOM     16  C   UNL     1       4.653  14.933  21.447  0.00  0.00    +0.000 A 
ATOM     17 CL   UNL     1       4.355  15.137  23.126  0.00  0.00    +0.000 Cl
ATOM     18  C   UNL     1       6.773  14.910  18.331  0.00  0.00    +0.000 C 
ATOM     19  C   UNL     1       8.107  15.433  18.877  0.00  0.00    +0.000 C 
ATOM     20  C   UNL     1       9.171  14.821  17.952  0.00  0.00    +0.000 C 
ATOM     21  O   UNL     1       9.333  13.629  17.836  0.00  0.00    +0.000 OA
ATOM     22  N   UNL     1       9.972  15.699  17.269  0.00  0.00    +0.000 N 
ATOM     23  C   UNL     1      10.066  17.040  17.466  0.00  0.00    +0.000 C 
ATOM     24  O   UNL     1      10.887  17.723  16.874  0.00  0.00    +0.000 OA
ATOM     25  N   UNL     1       9.183  17.582  18.344  0.00  0.00    +0.000 N 
ATOM     26  C   UNL     1       8.084  16.945  18.851  0.00  0.00    +0.000 C 
ATOM     27  O   UNL     1       7.144  17.632  19.225  0.00  0.00    +0.000 OA
ATOM     28  C   UNL     1       8.299  14.868  20.311  0.00  0.00    +0.000 C 
ATOM     29  H   UNL     1      10.672  15.294  16.674  0.00  0.00    +0.000 HD
ATOM     30  H   UNL     1       9.135  18.593  18.338  0.00  0.00    +0.000 HD
ENDROOT
BRANCH  12  31
ATOM     31  C   UNL     1       0.681  14.801  19.420  0.00  0.00    +0.000 A 
ATOM     32  C   UNL     1       0.443  16.141  19.107  0.00  0.00    +0.000 A 
ATOM     33  C   UNL     1      -0.785  16.695  19.469  0.00  0.00    +0.000 A 
ATOM     34  N   UNL     1      -1.762  16.030  20.125  0.00  0.00    +0.000 NA
ATOM     35  C   UNL     1      -1.502  14.752  20.454  0.00  0.00    +0.000 A 
ATOM     36  C   UNL     1      -0.322  14.109  20.126  0.00  0.00    +0.000 A 
ENDBRANCH  12  31
TORSDOF 1
ENDMDL
MODEL 8
REMARK VINA RESULT:      -6.7      2.557      8.205
REMARK  Name = 
REMARK  3 active torsions:
REMARK  status: ('A' for Active; 'I' for Inactive)
REMARK    1  A    between atoms: C_1  and  C_2
REMARK    2  A    between atoms: C_4  and  C_5
REMARK    3  A    between atoms: C_12  and  C_13
REMARK                            x       y       z     vdW  Elec       q    Type
REMARK                         _______ _______ _______ _____ _____    ______ ____
ROOT
ATOM      1  C   UNL     1      -0.532  17.082  21.358  0.00  0.00    +0.000 C 
ATOM      2  C   UNL     1       0.787  16.481  21.838  0.00  0.00    +0.000 C 
ATOM      3  O   UNL     1       1.223  17.466  22.797  0.00  0.00    +0.000 OA
ATOM      4  C   UNL     1       2.395  17.036  23.470  0.00  0.00    +0.000 C 
ATOM      5  C   UNL     1       2.750  18.065  24.537  0.00  0.00    +0.000 C 
ATOM      6  C   UNL     1       3.539  16.906  22.470  0.00  0.00    +0.000 C 
ATOM      7  N   UNL     1       3.231  15.957  21.373  0.00  0.00    +0.000 N 
ATOM      8  C   UNL     1       4.314  15.594  20.520  0.00  0.00    +0.000 A 
ATOM      9  C   UNL     1       4.068  14.985  19.249  0.00  0.00    +0.000 A 
ATOM     10  N   UNL     1       5.010  14.497  18.349  0.00  0.00    +0.000 NA
ATOM     11  C   UNL     1       6.274  14.917  18.625  0.00  0.00    +0.000 A 
ATOM     12  C   UNL     1       7.531  15.024  17.936  0.00  0.00    +0.000 A 
ATOM     13  N   UNL     1       7.829  16.346  18.046  0.00  0.00    +0.000 NA
ATOM     14  O   UNL     1       7.512  16.585  19.397  0.00  0.00    +0.000 OA
ATOM     15  C   UNL     1       6.502  15.720  19.711  0.00  0.00    +0.000 A 
ATOM     16  C   UNL     1       5.680  15.798  20.809  0.00  0.00    +0.000 A 
ATOM     17 CL   UNL     1       6.489  16.226  22.262  0.00  0.00    +0.000 Cl
ATOM     18  C   UNL     1       2.671  15.045  18.667  0.00  0.00    +0.000 C 
ATOM     19  C   UNL     1       1.545  15.107  19.706  0.00  0.00    +0.000 C 
ATOM     20  C   UNL     1       0.300  15.519  18.905  0.00  0.00    +0.000 C 
ATOM     21  O   UNL     1       0.221  16.565  18.306  0.00  0.00    +0.000 OA
ATOM     22  N   UNL     1      -0.759  14.648  18.921  0.00  0.00    +0.000 N 
ATOM     23  C   UNL     1      -0.908  13.561  19.722  0.00  0.00    +0.000 C 
ATOM     24  O   UNL     1      -1.937  12.904  19.732  0.00  0.00    +0.000 OA
ATOM     25  N   UNL     1       0.158  13.233  20.496  0.00  0.00    +0.000 N 
ATOM     26  C   UNL     1       1.417  13.752  20.365  0.00  0.00    +0.000 C 
ATOM     27  O   UNL     1       2.359  13.078  20.760  0.00  0.00    +0.000 OA
ATOM     28  C   UNL     1       1.886  16.229  20.724  0.00  0.00    +0.000 C 
ATOM     29  H   UNL     1      -1.573  14.927  18.405  0.00  0.00    +0.000 HD
ATOM     30  H   UNL     1       0.107  12.324  20.938  0.00  0.00    +0.000 HD
ENDROOT
BRANCH  12  31
ATOM     31  C   UNL     1       8.767  14.191  18.017  0.00  0.00    +0.000 A 
ATOM     32  C   UNL     1      10.060  14.706  17.901  0.00  0.00    +0.000 A 
ATOM     33  C   UNL     1      11.121  13.808  17.788  0.00  0.00    +0.000 A 
ATOM     34  N   UNL     1      10.986  12.463  17.762  0.00  0.00    +0.000 NA
ATOM     35  C   UNL     1       9.731  11.983  17.836  0.00  0.00    +0.000 A 
ATOM     36  C   UNL     1       8.616  12.791  17.966  0.00  0.00    +0.000 A 
ENDBRANCH  12  31
TORSDOF 1
ENDMDL
MODEL 9
REMARK VINA RESULT:      -6.6      6.011     12.078
REMARK  Name = 
REMARK  3 active torsions:
REMARK  status: ('A' for Active; 'I' for Inactive)
REMARK    1  A    between atoms: C_1  and  C_2
REMARK    2  A    between atoms: C_4  and  C_5
REMARK    3  A    between atoms: C_12  and  C_13
REMARK                            x       y       z     vdW  Elec       q    Type
REMARK                         _______ _______ _______ _____ _____    ______ ____
ROOT
ATOM      1  C   UNL     1      -7.464  12.201  22.130  0.00  0.00    +0.000 C 
ATOM      2  C   UNL     1      -6.486  12.603  21.028  0.00  0.00    +0.000 C 
ATOM      3  O   UNL     1      -6.717  11.572  20.046  0.00  0.00    +0.000 OA
ATOM      4  C   UNL     1      -5.983  11.827  18.860  0.00  0.00    +0.000 C 
ATOM      5  C   UNL     1      -6.342  10.767  17.826  0.00  0.00    +0.000 C 
ATOM      6  C   UNL     1      -4.489  11.777  19.161  0.00  0.00    +0.000 C 
ATOM      7  N   UNL     1      -4.087  12.752  20.203  0.00  0.00    +0.000 N 
ATOM      8  C   UNL     1      -2.687  12.942  20.392  0.00  0.00    +0.000 A 
ATOM      9  C   UNL     1      -2.189  13.571  21.577  0.00  0.00    +0.000 A 
ATOM     10  N   UNL     1      -0.870  13.906  21.867  0.00  0.00    +0.000 NA
ATOM     11  C   UNL     1       0.024  13.304  21.037  0.00  0.00    +0.000 A 
ATOM     12  C   UNL     1       1.430  13.005  21.029  0.00  0.00    +0.000 A 
ATOM     13  N   UNL     1       1.454  11.655  20.875  0.00  0.00    +0.000 NA
ATOM     14  O   UNL     1       0.484  11.477  19.871  0.00  0.00    +0.000 OA
ATOM     15  C   UNL     1      -0.423  12.485  20.034  0.00  0.00    +0.000 A 
ATOM     16  C   UNL     1      -1.682  12.540  19.486  0.00  0.00    +0.000 A 
ATOM     17 CL   UNL     1      -1.760  12.008  17.855  0.00  0.00    +0.000 Cl
ATOM     18  C   UNL     1      -3.111  13.715  22.770  0.00  0.00    +0.000 C 
ATOM     19  C   UNL     1      -4.600  13.830  22.420  0.00  0.00    +0.000 C 
ATOM     20  C   UNL     1      -5.330  13.601  23.753  0.00  0.00    +0.000 C 
ATOM     21  O   UNL     1      -5.242  12.574  24.382  0.00  0.00    +0.000 OA
ATOM     22  N   UNL     1      -6.131  14.621  24.199  0.00  0.00    +0.000 N 
ATOM     23  C   UNL     1      -6.510  15.725  23.503  0.00  0.00    +0.000 C 
ATOM     24  O   UNL     1      -7.311  16.528  23.954  0.00  0.00    +0.000 OA
ATOM     25  N   UNL     1      -5.931  15.897  22.287  0.00  0.00    +0.000 N 
ATOM     26  C   UNL     1      -4.853  15.195  21.820  0.00  0.00    +0.000 C 
ATOM     27  O   UNL     1      -4.149  15.724  20.972  0.00  0.00    +0.000 OA
ATOM     28  C   UNL     1      -4.959  12.678  21.443  0.00  0.00    +0.000 C 
ATOM     29  H   UNL     1      -6.614  14.462  25.065  0.00  0.00    +0.000 HD
ATOM     30  H   UNL     1      -6.071  16.807  21.867  0.00  0.00    +0.000 HD
ENDROOT
BRANCH  12  31
ATOM     31  C   UNL     1       2.563  13.645  20.299  0.00  0.00    +0.000 A 
ATOM     32  C   UNL     1       3.714  14.132  20.924  0.00  0.00    +0.000 A 
ATOM     33  C   UNL     1       4.606  14.891  20.166  0.00  0.00    +0.000 A 
ATOM     34  N   UNL     1       4.428  15.208  18.865  0.00  0.00    +0.000 NA
ATOM     35  C   UNL     1       3.296  14.765  18.287  0.00  0.00    +0.000 A 
ATOM     36  C   UNL     1       2.358  13.994  18.949  0.00  0.00    +0.000 A 
ENDBRANCH  12  31
TORSDOF 1
ENDMDL
