MODEL 1
REMARK VINA RESULT:      -8.8      0.000      0.000
REMARK  Name = 
REMARK  8 active torsions:
REMARK  status: ('A' for Active; 'I' for Inactive)
REMARK    1  A    between atoms: C_1  and  O_2
REMARK    2  A    between atoms: O_2  and  C_3
REMARK    3  A    between atoms: C_12  and  O_13
REMARK    4  A    between atoms: O_13  and  C_14
REMARK    5  A    between atoms: C_14  and  C_15
REMARK    6  A    between atoms: C_15  and  C_16
REMARK    7  A    between atoms: C_16  and  N_17
REMARK    8  A    between atoms: N_17  and  C_18
REMARK                            x       y       z     vdW  Elec       q    Type
REMARK                         _______ _______ _______ _____ _____    ______ ____
ROOT
ATOM      1  C   UNL     1       3.520   3.647  19.265  0.00  0.00    +0.000 A 
ATOM      2  C   UNL     1       2.916   3.653  20.526  0.00  0.00    +0.000 A 
ATOM      3  C   UNL     1       2.262   4.785  20.999  0.00  0.00    +0.000 A 
ATOM      4  C   UNL     1       2.181   5.935  20.212  0.00  0.00    +0.000 A 
ATOM      5  C   UNL     1       1.552   7.077  20.697  0.00  0.00    +0.000 A 
ATOM      6  C   UNL     1       1.433   8.227  19.905  0.00  0.00    +0.000 A 
ATOM      7  N   UNL     1       1.942   8.208  18.643  0.00  0.00    +0.000 N 
ATOM      8  C   UNL     1       2.579   7.107  18.163  0.00  0.00    +0.000 A 
ATOM      9  C   UNL     1       2.729   5.940  18.922  0.00  0.00    +0.000 A 
ATOM     10  C   UNL     1       3.385   4.780  18.435  0.00  0.00    +0.000 A 
ATOM     11  C   UNL     1       1.743   9.352  17.715  0.00  0.00    +0.000 C 
ATOM     12  C   UNL     1       1.891  10.675  18.439  0.00  0.00    +0.000 C 
ATOM     13  C   UNL     1       1.017  10.695  19.662  0.00  0.00    +0.000 A 
ATOM     14  C   UNL     1       0.490  11.915  20.121  0.00  0.00    +0.000 A 
ATOM     15  C   UNL     1      -0.235  11.907  21.290  0.00  0.00    +0.000 A 
ATOM     16  C   UNL     1      -0.454  10.747  21.985  0.00  0.00    +0.000 A 
ATOM     17  C   UNL     1       0.035   9.533  21.551  0.00  0.00    +0.000 A 
ATOM     18  C   UNL     1       0.809   9.482  20.373  0.00  0.00    +0.000 A 
ATOM     19  O   UNL     1      -1.167  10.946  23.122  0.00  0.00    +0.000 OA
ATOM     20  C   UNL     1      -1.323  12.383  23.098  0.00  0.00    +0.000 C 
ATOM     21  O   UNL     1      -0.789  12.986  21.898  0.00  0.00    +0.000 OA
ENDROOT
BRANCH   1  23
ATOM     22  C   UNL     1       3.401   1.564  18.129  0.00  0.00    +0.000 C 
ATOM     23  O   UNL     1       4.189   2.545  18.803  0.00  0.00    +0.000 OA
ENDBRANCH   1  23
BRANCH  10  24
ATOM     24  O   UNL     1       3.873   4.914  17.152  0.00  0.00    +0.000 OA
BRANCH  24  25
ATOM     25  C   UNL     1       5.291   5.007  17.012  0.00  0.00    +0.000 C 
BRANCH  25  26
ATOM     26  C   UNL     1       5.637   5.353  15.563  0.00  0.00    +0.000 C 
BRANCH  26  27
ATOM     27  C   UNL     1       6.627   4.315  15.037  0.00  0.00    +0.000 C 
BRANCH  27  28
ATOM     28  N   UNL     1       6.010   3.414  14.068  0.00  0.00    +0.000 NA
ATOM     29  H   UNL     1       5.075   3.155  14.384  0.00  0.00    +0.000 HD
BRANCH  28  30
ATOM     30  C   UNL     1       5.898   4.026  12.725  0.00  0.00    +0.000 C 
ATOM     31  C   UNL     1       7.226   4.061  11.946  0.00  0.00    +0.000 C 
ATOM     32  C   UNL     1       7.751   2.657  11.651  0.00  0.00    +0.000 C 
ATOM     33  C   UNL     1       6.726   1.841  10.870  0.00  0.00    +0.000 C 
ATOM     34  C   UNL     1       5.355   1.829  11.544  0.00  0.00    +0.000 C 
ATOM     35  C   UNL     1       4.869   3.238  11.892  0.00  0.00    +0.000 C 
ENDBRANCH  28  30
ENDBRANCH  27  28
ENDBRANCH  26  27
ENDBRANCH  25  26
ENDBRANCH  24  25
ENDBRANCH  10  24
TORSDOF 7
ENDMDL
MODEL 2
REMARK VINA RESULT:      -8.6      3.724     10.376
REMARK  Name = 
REMARK  8 active torsions:
REMARK  status: ('A' for Active; 'I' for Inactive)
REMARK    1  A    between atoms: C_1  and  O_2
REMARK    2  A    between atoms: O_2  and  C_3
REMARK    3  A    between atoms: C_12  and  O_13
REMARK    4  A    between atoms: O_13  and  C_14
REMARK    5  A    between atoms: C_14  and  C_15
REMARK    6  A    between atoms: C_15  and  C_16
REMARK    7  A    between atoms: C_16  and  N_17
REMARK    8  A    between atoms: N_17  and  C_18
REMARK                            x       y       z     vdW  Elec       q    Type
REMARK                         _______ _______ _______ _____ _____    ______ ____
ROOT
ATOM      1  C   UNL     1      -1.139  11.568  22.302  0.00  0.00    +0.000 A 
ATOM      2  C   UNL     1      -1.056  10.514  23.217  0.00  0.00    +0.000 A 
ATOM      3  C   UNL     1      -0.378   9.343  22.896  0.00  0.00    +0.000 A 
ATOM      4  C   UNL     1       0.249   9.206  21.658  0.00  0.00    +0.000 A 
ATOM      5  C   UNL     1       0.903   8.023  21.326  0.00  0.00    +0.000 A 
ATOM      6  C   UNL     1       1.567   7.885  20.100  0.00  0.00    +0.000 A 
ATOM      7  N   UNL     1       1.566   8.934  19.233  0.00  0.00    +0.000 N 
ATOM      8  C   UNL     1       0.914  10.088  19.533  0.00  0.00    +0.000 A 
ATOM      9  C   UNL     1       0.230  10.267  20.742  0.00  0.00    +0.000 A 
ATOM     10  C   UNL     1      -0.451  11.467  21.074  0.00  0.00    +0.000 A 
ATOM     11  C   UNL     1       2.351   8.891  17.971  0.00  0.00    +0.000 C 
ATOM     12  C   UNL     1       2.258   7.526  17.317  0.00  0.00    +0.000 C 
ATOM     13  C   UNL     1       2.602   6.453  18.311  0.00  0.00    +0.000 A 
ATOM     14  C   UNL     1       3.192   5.256  17.867  0.00  0.00    +0.000 A 
ATOM     15  C   UNL     1       3.415   4.263  18.792  0.00  0.00    +0.000 A 
ATOM     16  C   UNL     1       3.089   4.432  20.111  0.00  0.00    +0.000 A 
ATOM     17  C   UNL     1       2.526   5.600  20.580  0.00  0.00    +0.000 A 
ATOM     18  C   UNL     1       2.248   6.645  19.674  0.00  0.00    +0.000 A 
ATOM     19  O   UNL     1       3.361   3.334  20.862  0.00  0.00    +0.000 OA
ATOM     20  C   UNL     1       3.843   2.424  19.848  0.00  0.00    +0.000 C 
ATOM     21  O   UNL     1       3.941   3.037  18.543  0.00  0.00    +0.000 OA
ENDROOT
BRANCH   1  23
ATOM     22  C   UNL     1      -1.100  13.728  23.292  0.00  0.00    +0.000 C 
ATOM     23  O   UNL     1      -1.829  12.714  22.599  0.00  0.00    +0.000 OA
ENDBRANCH   1  23
BRANCH  10  24
ATOM     24  O   UNL     1      -0.390  12.432  20.091  0.00  0.00    +0.000 OA
BRANCH  24  25
ATOM     25  C   UNL     1      -1.592  12.681  19.361  0.00  0.00    +0.000 C 
BRANCH  25  26
ATOM     26  C   UNL     1      -1.410  12.226  17.912  0.00  0.00    +0.000 C 
BRANCH  26  27
ATOM     27  C   UNL     1      -2.685  11.515  17.462  0.00  0.00    +0.000 C 
BRANCH  27  28
ATOM     28  N   UNL     1      -3.856  11.975  18.202  0.00  0.00    +0.000 NA
ATOM     29  H   UNL     1      -3.889  12.996  18.197  0.00  0.00    +0.000 HD
BRANCH  28  30
ATOM     30  C   UNL     1      -5.121  11.464  17.627  0.00  0.00    +0.000 C 
ATOM     31  C   UNL     1      -5.965  10.641  18.619  0.00  0.00    +0.000 C 
ATOM     32  C   UNL     1      -6.431  11.482  19.806  0.00  0.00    +0.000 C 
ATOM     33  C   UNL     1      -7.234  12.692  19.339  0.00  0.00    +0.000 C 
ATOM     34  C   UNL     1      -6.490  13.515  18.288  0.00  0.00    +0.000 C 
ATOM     35  C   UNL     1      -5.972  12.650  17.137  0.00  0.00    +0.000 C 
ENDBRANCH  28  30
ENDBRANCH  27  28
ENDBRANCH  26  27
ENDBRANCH  25  26
ENDBRANCH  24  25
ENDBRANCH  10  24
TORSDOF 7
ENDMDL
MODEL 3
REMARK VINA RESULT:      -8.3      1.990      3.450
REMARK  Name = 
REMARK  8 active torsions:
REMARK  status: ('A' for Active; 'I' for Inactive)
REMARK    1  A    between atoms: C_1  and  O_2
REMARK    2  A    between atoms: O_2  and  C_3
REMARK    3  A    between atoms: C_12  and  O_13
REMARK    4  A    between atoms: O_13  and  C_14
REMARK    5  A    between atoms: C_14  and  C_15
REMARK    6  A    between atoms: C_15  and  C_16
REMARK    7  A    between atoms: C_16  and  N_17
REMARK    8  A    between atoms: N_17  and  C_18
REMARK                            x       y       z     vdW  Elec       q    Type
REMARK                         _______ _______ _______ _____ _____    ______ ____
ROOT
ATOM      1  C   UNL     1       3.301   3.667  19.366  0.00  0.00    +0.000 A 
ATOM      2  C   UNL     1       2.733   3.720  20.642  0.00  0.00    +0.000 A 
ATOM      3  C   UNL     1       2.130   4.885  21.107  0.00  0.00    +0.000 A 
ATOM      4  C   UNL     1       2.065   6.018  20.297  0.00  0.00    +0.000 A 
ATOM      5  C   UNL     1       1.488   7.192  20.772  0.00  0.00    +0.000 A 
ATOM      6  C   UNL     1       1.384   8.327  19.957  0.00  0.00    +0.000 A 
ATOM      7  N   UNL     1       1.858   8.263  18.682  0.00  0.00    +0.000 N 
ATOM      8  C   UNL     1       2.444   7.132  18.210  0.00  0.00    +0.000 A 
ATOM      9  C   UNL     1       2.576   5.977  18.991  0.00  0.00    +0.000 A 
ATOM     10  C   UNL     1       3.179   4.785  18.514  0.00  0.00    +0.000 A 
ATOM     11  C   UNL     1       1.670   9.392  17.734  0.00  0.00    +0.000 C 
ATOM     12  C   UNL     1       1.882  10.726  18.423  0.00  0.00    +0.000 C 
ATOM     13  C   UNL     1       1.044  10.802  19.668  0.00  0.00    +0.000 A 
ATOM     14  C   UNL     1       0.570  12.049  20.113  0.00  0.00    +0.000 A 
ATOM     15  C   UNL     1      -0.122  12.091  21.302  0.00  0.00    +0.000 A 
ATOM     16  C   UNL     1      -0.359  10.955  22.028  0.00  0.00    +0.000 A 
ATOM     17  C   UNL     1       0.077   9.716  21.610  0.00  0.00    +0.000 A 
ATOM     18  C   UNL     1       0.816   9.612  20.412  0.00  0.00    +0.000 A 
ATOM     19  O   UNL     1      -1.033  11.203  23.180  0.00  0.00    +0.000 OA
ATOM     20  C   UNL     1      -1.143  12.643  23.127  0.00  0.00    +0.000 C 
ATOM     21  O   UNL     1      -0.623  13.201  21.900  0.00  0.00    +0.000 OA
ENDROOT
BRANCH   1  23
ATOM     22  C   UNL     1       4.471   1.672  19.908  0.00  0.00    +0.000 C 
ATOM     23  O   UNL     1       3.920   2.533  18.911  0.00  0.00    +0.000 OA
ENDBRANCH   1  23
BRANCH  10  24
ATOM     24  O   UNL     1       3.636   4.875  17.215  0.00  0.00    +0.000 OA
BRANCH  24  25
ATOM     25  C   UNL     1       4.405   3.774  16.728  0.00  0.00    +0.000 C 
BRANCH  25  26
ATOM     26  C   UNL     1       5.245   4.230  15.535  0.00  0.00    +0.000 C 
BRANCH  26  27
ATOM     27  C   UNL     1       6.700   4.359  15.985  0.00  0.00    +0.000 C 
BRANCH  27  28
ATOM     28  N   UNL     1       7.091   5.752  16.176  0.00  0.00    +0.000 NA
ATOM     29  H   UNL     1       6.925   6.279  15.317  0.00  0.00    +0.000 HD
BRANCH  28  30
ATOM     30  C   UNL     1       6.340   6.400  17.275  0.00  0.00    +0.000 C 
ATOM     31  C   UNL     1       6.694   5.856  18.672  0.00  0.00    +0.000 C 
ATOM     32  C   UNL     1       8.153   6.122  19.036  0.00  0.00    +0.000 C 
ATOM     33  C   UNL     1       8.470   7.614  18.977  0.00  0.00    +0.000 C 
ATOM     34  C   UNL     1       8.070   8.243  17.644  0.00  0.00    +0.000 C 
ATOM     35  C   UNL     1       6.625   7.914  17.260  0.00  0.00    +0.000 C 
ENDBRANCH  28  30
ENDBRANCH  27  28
ENDBRANCH  26  27
ENDBRANCH  25  26
ENDBRANCH  24  25
ENDBRANCH  10  24
TORSDOF 7
ENDMDL
MODEL 4
REMARK VINA RESULT:      -8.3      0.894      1.500
REMARK  Name = 
REMARK  8 active torsions:
REMARK  status: ('A' for Active; 'I' for Inactive)
REMARK    1  A    between atoms: C_1  and  O_2
REMARK    2  A    between atoms: O_2  and  C_3
REMARK    3  A    between atoms: C_12  and  O_13
REMARK    4  A    between atoms: O_13  and  C_14
REMARK    5  A    between atoms: C_14  and  C_15
REMARK    6  A    between atoms: C_15  and  C_16
REMARK    7  A    between atoms: C_16  and  N_17
REMARK    8  A    between atoms: N_17  and  C_18
REMARK                            x       y       z     vdW  Elec       q    Type
REMARK                         _______ _______ _______ _____ _____    ______ ____
ROOT
ATOM      1  C   UNL     1       3.391   3.862  19.492  0.00  0.00    +0.000 A 
ATOM      2  C   UNL     1       2.631   3.842  20.665  0.00  0.00    +0.000 A 
ATOM      3  C   UNL     1       1.943   4.974  21.089  0.00  0.00    +0.000 A 
ATOM      4  C   UNL     1       1.987   6.150  20.339  0.00  0.00    +0.000 A 
ATOM      5  C   UNL     1       1.323   7.291  20.779  0.00  0.00    +0.000 A 
ATOM      6  C   UNL     1       1.329   8.467  20.018  0.00  0.00    +0.000 A 
ATOM      7  N   UNL     1       1.996   8.477  18.831  0.00  0.00    +0.000 N 
ATOM      8  C   UNL     1       2.668   7.378  18.399  0.00  0.00    +0.000 A 
ATOM      9  C   UNL     1       2.696   6.183  19.130  0.00  0.00    +0.000 A 
ATOM     10  C   UNL     1       3.386   5.024  18.691  0.00  0.00    +0.000 A 
ATOM     11  C   UNL     1       1.940   9.654  17.926  0.00  0.00    +0.000 C 
ATOM     12  C   UNL     1       2.020  10.950  18.709  0.00  0.00    +0.000 C 
ATOM     13  C   UNL     1       0.997  10.952  19.810  0.00  0.00    +0.000 A 
ATOM     14  C   UNL     1       0.438  12.169  20.240  0.00  0.00    +0.000 A 
ATOM     15  C   UNL     1      -0.431  12.140  21.306  0.00  0.00    +0.000 A 
ATOM     16  C   UNL     1      -0.760  10.965  21.925  0.00  0.00    +0.000 A 
ATOM     17  C   UNL     1      -0.243   9.754  21.516  0.00  0.00    +0.000 A 
ATOM     18  C   UNL     1       0.675   9.721  20.446  0.00  0.00    +0.000 A 
ATOM     19  O   UNL     1      -1.610  11.144  22.969  0.00  0.00    +0.000 OA
ATOM     20  C   UNL     1      -1.734  12.584  22.975  0.00  0.00    +0.000 C 
ATOM     21  O   UNL     1      -1.038  13.212  21.875  0.00  0.00    +0.000 OA
ENDROOT
BRANCH   1  23
ATOM     22  C   UNL     1       3.318   1.625  18.694  0.00  0.00    +0.000 C 
ATOM     23  O   UNL     1       4.093   2.760  19.082  0.00  0.00    +0.000 OA
ENDBRANCH   1  23
BRANCH  10  24
ATOM     24  O   UNL     1       4.038   5.188  17.487  0.00  0.00    +0.000 OA
BRANCH  24  25
ATOM     25  C   UNL     1       5.466   5.184  17.524  0.00  0.00    +0.000 C 
BRANCH  25  26
ATOM     26  C   UNL     1       5.998   6.384  16.740  0.00  0.00    +0.000 C 
BRANCH  26  27
ATOM     27  C   UNL     1       5.073   6.636  15.549  0.00  0.00    +0.000 C 
BRANCH  27  28
ATOM     28  N   UNL     1       5.641   6.134  14.302  0.00  0.00    +0.000 NA
ATOM     29  H   UNL     1       6.099   6.896  13.800  0.00  0.00    +0.000 HD
BRANCH  28  30
ATOM     30  C   UNL     1       6.634   5.060  14.528  0.00  0.00    +0.000 C 
ATOM     31  C   UNL     1       6.095   3.646  14.236  0.00  0.00    +0.000 C 
ATOM     32  C   UNL     1       5.715   3.473  12.766  0.00  0.00    +0.000 C 
ATOM     33  C   UNL     1       6.904   3.761  11.855  0.00  0.00    +0.000 C 
ATOM     34  C   UNL     1       7.544   5.119  12.143  0.00  0.00    +0.000 C 
ATOM     35  C   UNL     1       7.861   5.305  13.629  0.00  0.00    +0.000 C 
ENDBRANCH  28  30
ENDBRANCH  27  28
ENDBRANCH  26  27
ENDBRANCH  25  26
ENDBRANCH  24  25
ENDBRANCH  10  24
TORSDOF 7
ENDMDL
MODEL 5
REMARK VINA RESULT:      -8.1      3.603      9.763
REMARK  Name = 
REMARK  8 active torsions:
REMARK  status: ('A' for Active; 'I' for Inactive)
REMARK    1  A    between atoms: C_1  and  O_2
REMARK    2  A    between atoms: O_2  and  C_3
REMARK    3  A    between atoms: C_12  and  O_13
REMARK    4  A    between atoms: O_13  and  C_14
REMARK    5  A    between atoms: C_14  and  C_15
REMARK    6  A    between atoms: C_15  and  C_16
REMARK    7  A    between atoms: C_16  and  N_17
REMARK    8  A    between atoms: N_17  and  C_18
REMARK                            x       y       z     vdW  Elec       q    Type
REMARK                         _______ _______ _______ _____ _____    ______ ____
ROOT
ATOM      1  C   UNL     1      -0.856  11.307  22.394  0.00  0.00    +0.000 A 
ATOM      2  C   UNL     1      -0.846  10.200  23.249  0.00  0.00    +0.000 A 
ATOM      3  C   UNL     1      -0.211   9.019  22.880  0.00  0.00    +0.000 A 
ATOM      4  C   UNL     1       0.444   8.923  21.652  0.00  0.00    +0.000 A 
ATOM      5  C   UNL     1       1.055   7.732  21.271  0.00  0.00    +0.000 A 
ATOM      6  C   UNL     1       1.747   7.633  20.057  0.00  0.00    +0.000 A 
ATOM      7  N   UNL     1       1.818   8.728  19.251  0.00  0.00    +0.000 N 
ATOM      8  C   UNL     1       1.208   9.891  19.599  0.00  0.00    +0.000 A 
ATOM      9  C   UNL     1       0.499  10.034  20.798  0.00  0.00    +0.000 A 
ATOM     10  C   UNL     1      -0.138  11.243  21.181  0.00  0.00    +0.000 A 
ATOM     11  C   UNL     1       2.636   8.719  18.010  0.00  0.00    +0.000 C 
ATOM     12  C   UNL     1       2.501   7.399  17.276  0.00  0.00    +0.000 C 
ATOM     13  C   UNL     1       2.769   6.257  18.216  0.00  0.00    +0.000 A 
ATOM     14  C   UNL     1       3.318   5.061  17.719  0.00  0.00    +0.000 A 
ATOM     15  C   UNL     1       3.469   4.008  18.592  0.00  0.00    +0.000 A 
ATOM     16  C   UNL     1       3.113   4.118  19.910  0.00  0.00    +0.000 A 
ATOM     17  C   UNL     1       2.589   5.283  20.430  0.00  0.00    +0.000 A 
ATOM     18  C   UNL     1       2.384   6.389  19.578  0.00  0.00    +0.000 A 
ATOM     19  O   UNL     1       3.315   2.968  20.603  0.00  0.00    +0.000 OA
ATOM     20  C   UNL     1       3.785   2.095  19.552  0.00  0.00    +0.000 C 
ATOM     21  O   UNL     1       3.948   2.776  18.287  0.00  0.00    +0.000 OA
ENDROOT
BRANCH   1  23
ATOM     22  C   UNL     1      -2.800  12.315  23.316  0.00  0.00    +0.000 C 
ATOM     23  O   UNL     1      -1.502  12.464  22.738  0.00  0.00    +0.000 OA
ENDBRANCH   1  23
BRANCH  10  24
ATOM     24  O   UNL     1      -0.006  12.258  20.256  0.00  0.00    +0.000 OA
BRANCH  24  25
ATOM     25  C   UNL     1      -1.133  12.512  19.418  0.00  0.00    +0.000 C 
BRANCH  25  26
ATOM     26  C   UNL     1      -0.694  13.353  18.218  0.00  0.00    +0.000 C 
BRANCH  26  27
ATOM     27  C   UNL     1      -0.067  14.647  18.734  0.00  0.00    +0.000 C 
BRANCH  27  28
ATOM     28  N   UNL     1       1.387  14.552  18.820  0.00  0.00    +0.000 NA
ATOM     29  H   UNL     1       1.759  14.154  17.957  0.00  0.00    +0.000 HD
BRANCH  28  30
ATOM     30  C   UNL     1       2.025  15.870  19.040  0.00  0.00    +0.000 C 
ATOM     31  C   UNL     1       2.961  15.909  20.263  0.00  0.00    +0.000 C 
ATOM     32  C   UNL     1       4.150  14.964  20.103  0.00  0.00    +0.000 C 
ATOM     33  C   UNL     1       4.946  15.294  18.843  0.00  0.00    +0.000 C 
ATOM     34  C   UNL     1       4.066  15.353  17.596  0.00  0.00    +0.000 C 
ATOM     35  C   UNL     1       2.843  16.252  17.793  0.00  0.00    +0.000 C 
ENDBRANCH  28  30
ENDBRANCH  27  28
ENDBRANCH  26  27
ENDBRANCH  25  26
ENDBRANCH  24  25
ENDBRANCH  10  24
TORSDOF 7
ENDMDL
MODEL 6
REMARK VINA RESULT:      -8.1      0.760      1.085
REMARK  Name = 
REMARK  8 active torsions:
REMARK  status: ('A' for Active; 'I' for Inactive)
REMARK    1  A    between atoms: C_1  and  O_2
REMARK    2  A    between atoms: O_2  and  C_3
REMARK    3  A    between atoms: C_12  and  O_13
REMARK    4  A    between atoms: O_13  and  C_14
REMARK    5  A    between atoms: C_14  and  C_15
REMARK    6  A    between atoms: C_15  and  C_16
REMARK    7  A    between atoms: C_16  and  N_17
REMARK    8  A    between atoms: N_17  and  C_18
REMARK                            x       y       z     vdW  Elec       q    Type
REMARK                         _______ _______ _______ _____ _____    ______ ____
ROOT
ATOM      1  C   UNL     1       3.470   3.632  19.524  0.00  0.00    +0.000 A 
ATOM      2  C   UNL     1       2.785   3.630  20.743  0.00  0.00    +0.000 A 
ATOM      3  C   UNL     1       2.106   4.762  21.183  0.00  0.00    +0.000 A 
ATOM      4  C   UNL     1       2.082   5.918  20.403  0.00  0.00    +0.000 A 
ATOM      5  C   UNL     1       1.427   7.060  20.856  0.00  0.00    +0.000 A 
ATOM      6  C   UNL     1       1.365   8.217  20.068  0.00  0.00    +0.000 A 
ATOM      7  N   UNL     1       1.956   8.206  18.841  0.00  0.00    +0.000 N 
ATOM      8  C   UNL     1       2.618   7.107  18.394  0.00  0.00    +0.000 A 
ATOM      9  C   UNL     1       2.713   5.932  19.151  0.00  0.00    +0.000 A 
ATOM     10  C   UNL     1       3.394   4.773  18.698  0.00  0.00    +0.000 A 
ATOM     11  C   UNL     1       1.823   9.359  17.913  0.00  0.00    +0.000 C 
ATOM     12  C   UNL     1       1.930  10.676  18.657  0.00  0.00    +0.000 C 
ATOM     13  C   UNL     1       0.978  10.689  19.820  0.00  0.00    +0.000 A 
ATOM     14  C   UNL     1       0.426  11.908  20.254  0.00  0.00    +0.000 A 
ATOM     15  C   UNL     1      -0.373  11.893  21.374  0.00  0.00    +0.000 A 
ATOM     16  C   UNL     1      -0.642  10.729  22.042  0.00  0.00    +0.000 A 
ATOM     17  C   UNL     1      -0.131   9.516  21.630  0.00  0.00    +0.000 A 
ATOM     18  C   UNL     1       0.718   9.471  20.505  0.00  0.00    +0.000 A 
ATOM     19  O   UNL     1      -1.428  10.921  23.132  0.00  0.00    +0.000 OA
ATOM     20  C   UNL     1      -1.576  12.359  23.111  0.00  0.00    +0.000 C 
ATOM     21  O   UNL     1      -0.962  12.969  21.954  0.00  0.00    +0.000 OA
ENDROOT
BRANCH   1  23
ATOM     22  C   UNL     1       3.443   1.610  18.277  0.00  0.00    +0.000 C 
ATOM     23  O   UNL     1       4.163   2.531  19.098  0.00  0.00    +0.000 OA
ENDBRANCH   1  23
BRANCH  10  24
ATOM     24  O   UNL     1       3.966   4.916  17.451  0.00  0.00    +0.000 OA
BRANCH  24  25
ATOM     25  C   UNL     1       5.244   5.552  17.400  0.00  0.00    +0.000 C 
BRANCH  25  26
ATOM     26  C   UNL     1       6.336   4.520  17.682  0.00  0.00    +0.000 C 
BRANCH  26  27
ATOM     27  C   UNL     1       7.144   4.304  16.403  0.00  0.00    +0.000 C 
BRANCH  27  28
ATOM     28  N   UNL     1       6.392   3.553  15.403  0.00  0.00    +0.000 NA
ATOM     29  H   UNL     1       5.707   2.953  15.864  0.00  0.00    +0.000 HD
BRANCH  28  30
ATOM     30  C   UNL     1       5.677   4.437  14.456  0.00  0.00    +0.000 C 
ATOM     31  C   UNL     1       6.555   5.559  13.871  0.00  0.00    +0.000 C 
ATOM     32  C   UNL     1       7.707   5.004  13.035  0.00  0.00    +0.000 C 
ATOM     33  C   UNL     1       7.188   4.123  11.902  0.00  0.00    +0.000 C 
ATOM     34  C   UNL     1       6.240   3.033  12.399  0.00  0.00    +0.000 C 
ATOM     35  C   UNL     1       5.129   3.594  13.289  0.00  0.00    +0.000 C 
ENDBRANCH  28  30
ENDBRANCH  27  28
ENDBRANCH  26  27
ENDBRANCH  25  26
ENDBRANCH  24  25
ENDBRANCH  10  24
TORSDOF 7
ENDMDL
MODEL 7
REMARK VINA RESULT:      -8.0      3.635     10.576
REMARK  Name = 
REMARK  8 active torsions:
REMARK  status: ('A' for Active; 'I' for Inactive)
REMARK    1  A    between atoms: C_1  and  O_2
REMARK    2  A    between atoms: O_2  and  C_3
REMARK    3  A    between atoms: C_12  and  O_13
REMARK    4  A    between atoms: O_13  and  C_14
REMARK    5  A    between atoms: C_14  and  C_15
REMARK    6  A    between atoms: C_15  and  C_16
REMARK    7  A    between atoms: C_16  and  N_17
REMARK    8  A    between atoms: N_17  and  C_18
REMARK                            x       y       z     vdW  Elec       q    Type
REMARK                         _______ _______ _______ _____ _____    ______ ____
ROOT
ATOM      1  C   UNL     1      -0.911  11.464  22.350  0.00  0.00    +0.000 A 
ATOM      2  C   UNL     1      -0.917  10.359  23.207  0.00  0.00    +0.000 A 
ATOM      3  C   UNL     1      -0.288   9.172  22.848  0.00  0.00    +0.000 A 
ATOM      4  C   UNL     1       0.379   9.068  21.627  0.00  0.00    +0.000 A 
ATOM      5  C   UNL     1       0.984   7.872  21.254  0.00  0.00    +0.000 A 
ATOM      6  C   UNL     1       1.687   7.764  20.047  0.00  0.00    +0.000 A 
ATOM      7  N   UNL     1       1.773   8.856  19.239  0.00  0.00    +0.000 N 
ATOM      8  C   UNL     1       1.169  10.025  19.578  0.00  0.00    +0.000 A 
ATOM      9  C   UNL     1       0.450  10.176  20.770  0.00  0.00    +0.000 A 
ATOM     10  C   UNL     1      -0.182  11.391  21.144  0.00  0.00    +0.000 A 
ATOM     11  C   UNL     1       2.603   8.838  18.006  0.00  0.00    +0.000 C 
ATOM     12  C   UNL     1       2.465   7.517  17.274  0.00  0.00    +0.000 C 
ATOM     13  C   UNL     1       2.715   6.376  18.219  0.00  0.00    +0.000 A 
ATOM     14  C   UNL     1       3.260   5.174  17.731  0.00  0.00    +0.000 A 
ATOM     15  C   UNL     1       3.395   4.123  18.608  0.00  0.00    +0.000 A 
ATOM     16  C   UNL     1       3.028   4.239  19.922  0.00  0.00    +0.000 A 
ATOM     17  C   UNL     1       2.508   5.409  20.434  0.00  0.00    +0.000 A 
ATOM     18  C   UNL     1       2.319   6.514  19.577  0.00  0.00    +0.000 A 
ATOM     19  O   UNL     1       3.214   3.090  20.620  0.00  0.00    +0.000 OA
ATOM     20  C   UNL     1       3.688   2.210  19.575  0.00  0.00    +0.000 C 
ATOM     21  O   UNL     1       3.868   2.886  18.311  0.00  0.00    +0.000 OA
ENDROOT
BRANCH   1  23
ATOM     22  C   UNL     1      -2.969  12.544  22.842  0.00  0.00    +0.000 C 
ATOM     23  O   UNL     1      -1.552  12.626  22.684  0.00  0.00    +0.000 OA
ENDBRANCH   1  23
BRANCH  10  24
ATOM     24  O   UNL     1      -0.033  12.402  20.218  0.00  0.00    +0.000 OA
BRANCH  24  25
ATOM     25  C   UNL     1       0.949  13.398  20.507  0.00  0.00    +0.000 C 
BRANCH  25  26
ATOM     26  C   UNL     1       1.701  13.758  19.225  0.00  0.00    +0.000 C 
BRANCH  26  27
ATOM     27  C   UNL     1       2.030  15.250  19.256  0.00  0.00    +0.000 C 
BRANCH  27  28
ATOM     28  N   UNL     1       1.067  16.037  18.493  0.00  0.00    +0.000 NA
ATOM     29  H   UNL     1       0.123  15.685  18.659  0.00  0.00    +0.000 HD
BRANCH  28  30
ATOM     30  C   UNL     1       1.102  17.472  18.854  0.00  0.00    +0.000 C 
ATOM     31  C   UNL     1       1.249  18.413  17.642  0.00  0.00    +0.000 C 
ATOM     32  C   UNL     1       0.053  18.316  16.697  0.00  0.00    +0.000 C 
ATOM     33  C   UNL     1      -1.250  18.627  17.427  0.00  0.00    +0.000 C 
ATOM     34  C   UNL     1      -1.427  17.786  18.690  0.00  0.00    +0.000 C 
ATOM     35  C   UNL     1      -0.195  17.840  19.597  0.00  0.00    +0.000 C 
ENDBRANCH  28  30
ENDBRANCH  27  28
ENDBRANCH  26  27
ENDBRANCH  25  26
ENDBRANCH  24  25
ENDBRANCH  10  24
TORSDOF 7
ENDMDL
MODEL 8
REMARK VINA RESULT:      -7.9      2.539     11.390
REMARK  Name = 
REMARK  8 active torsions:
REMARK  status: ('A' for Active; 'I' for Inactive)
REMARK    1  A    between atoms: C_1  and  O_2
REMARK    2  A    between atoms: O_2  and  C_3
REMARK    3  A    between atoms: C_12  and  O_13
REMARK    4  A    between atoms: O_13  and  C_14
REMARK    5  A    between atoms: C_14  and  C_15
REMARK    6  A    between atoms: C_15  and  C_16
REMARK    7  A    between atoms: C_16  and  N_17
REMARK    8  A    between atoms: N_17  and  C_18
REMARK                            x       y       z     vdW  Elec       q    Type
REMARK                         _______ _______ _______ _____ _____    ______ ____
ROOT
ATOM      1  C   UNL     1       0.355  11.486  19.537  0.00  0.00    +0.000 A 
ATOM      2  C   UNL     1       1.075  11.841  18.392  0.00  0.00    +0.000 A 
ATOM      3  C   UNL     1       1.930  10.932  17.776  0.00  0.00    +0.000 A 
ATOM      4  C   UNL     1       2.071   9.640  18.283  0.00  0.00    +0.000 A 
ATOM      5  C   UNL     1       2.947   8.741  17.684  0.00  0.00    +0.000 A 
ATOM      6  C   UNL     1       3.073   7.429  18.161  0.00  0.00    +0.000 A 
ATOM      7  N   UNL     1       2.316   7.044  19.224  0.00  0.00    +0.000 N 
ATOM      8  C   UNL     1       1.471   7.917  19.833  0.00  0.00    +0.000 A 
ATOM      9  C   UNL     1       1.320   9.239  19.397  0.00  0.00    +0.000 A 
ATOM     10  C   UNL     1       0.439  10.162  20.016  0.00  0.00    +0.000 A 
ATOM     11  C   UNL     1       2.316   5.635  19.700  0.00  0.00    +0.000 C 
ATOM     12  C   UNL     1       3.715   5.050  19.671  0.00  0.00    +0.000 C 
ATOM     13  C   UNL     1       4.334   5.259  18.318  0.00  0.00    +0.000 A 
ATOM     14  C   UNL     1       5.272   4.331  17.830  0.00  0.00    +0.000 A 
ATOM     15  C   UNL     1       5.881   4.600  16.626  0.00  0.00    +0.000 A 
ATOM     16  C   UNL     1       5.577   5.726  15.910  0.00  0.00    +0.000 A 
ATOM     17  C   UNL     1       4.648   6.645  16.352  0.00  0.00    +0.000 A 
ATOM     18  C   UNL     1       4.010   6.439  17.593  0.00  0.00    +0.000 A 
ATOM     19  O   UNL     1       6.297   5.826  14.763  0.00  0.00    +0.000 OA
ATOM     20  C   UNL     1       7.140   4.657  14.868  0.00  0.00    +0.000 C 
ATOM     21  O   UNL     1       6.828   3.841  16.019  0.00  0.00    +0.000 OA
ENDROOT
BRANCH   1  23
ATOM     22  C   UNL     1       0.071  13.688  20.383  0.00  0.00    +0.000 C 
ATOM     23  O   UNL     1      -0.467  12.383  20.165  0.00  0.00    +0.000 OA
ENDBRANCH   1  23
BRANCH  10  24
ATOM     24  O   UNL     1      -0.243   9.641  21.096  0.00  0.00    +0.000 OA
BRANCH  24  25
ATOM     25  C   UNL     1       0.150  10.106  22.388  0.00  0.00    +0.000 C 
BRANCH  25  26
ATOM     26  C   UNL     1      -1.095  10.332  23.247  0.00  0.00    +0.000 C 
BRANCH  26  27
ATOM     27  C   UNL     1      -1.403  11.828  23.274  0.00  0.00    +0.000 C 
BRANCH  27  28
ATOM     28  N   UNL     1      -2.548  12.164  22.433  0.00  0.00    +0.000 NA
ATOM     29  H   UNL     1      -3.279  11.462  22.548  0.00  0.00    +0.000 HD
BRANCH  28  30
ATOM     30  C   UNL     1      -3.116  13.490  22.763  0.00  0.00    +0.000 C 
ATOM     31  C   UNL     1      -4.383  13.840  21.957  0.00  0.00    +0.000 C 
ATOM     32  C   UNL     1      -5.531  12.878  22.255  0.00  0.00    +0.000 C 
ATOM     33  C   UNL     1      -5.864  12.866  23.744  0.00  0.00    +0.000 C 
ATOM     34  C   UNL     1      -4.636  12.606  24.615  0.00  0.00    +0.000 C 
ATOM     35  C   UNL     1      -3.470  13.533  24.261  0.00  0.00    +0.000 C 
ENDBRANCH  28  30
ENDBRANCH  27  28
ENDBRANCH  26  27
ENDBRANCH  25  26
ENDBRANCH  24  25
ENDBRANCH  10  24
TORSDOF 7
ENDMDL
MODEL 9
REMARK VINA RESULT:      -7.9      3.614      9.729
REMARK  Name = 
REMARK  8 active torsions:
REMARK  status: ('A' for Active; 'I' for Inactive)
REMARK    1  A    between atoms: C_1  and  O_2
REMARK    2  A    between atoms: O_2  and  C_3
REMARK    3  A    between atoms: C_12  and  O_13
REMARK    4  A    between atoms: O_13  and  C_14
REMARK    5  A    between atoms: C_14  and  C_15
REMARK    6  A    between atoms: C_15  and  C_16
REMARK    7  A    between atoms: C_16  and  N_17
REMARK    8  A    between atoms: N_17  and  C_18
REMARK                            x       y       z     vdW  Elec       q    Type
REMARK                         _______ _______ _______ _____ _____    ______ ____
ROOT
ATOM      1  C   UNL     1      -0.813  11.400  22.435  0.00  0.00    +0.000 A 
ATOM      2  C   UNL     1      -0.842  10.276  23.267  0.00  0.00    +0.000 A 
ATOM      3  C   UNL     1      -0.230   9.087  22.883  0.00  0.00    +0.000 A 
ATOM      4  C   UNL     1       0.441   9.001  21.663  0.00  0.00    +0.000 A 
ATOM      5  C   UNL     1       1.028   7.803  21.266  0.00  0.00    +0.000 A 
ATOM      6  C   UNL     1       1.735   7.711  20.060  0.00  0.00    +0.000 A 
ATOM      7  N   UNL     1       1.844   8.820  19.278  0.00  0.00    +0.000 N 
ATOM      8  C   UNL     1       1.258   9.991  19.642  0.00  0.00    +0.000 A 
ATOM      9  C   UNL     1       0.535  10.127  20.833  0.00  0.00    +0.000 A 
ATOM     10  C   UNL     1      -0.078  11.342  21.231  0.00  0.00    +0.000 A 
ATOM     11  C   UNL     1       2.680   8.816  18.049  0.00  0.00    +0.000 C 
ATOM     12  C   UNL     1       2.524   7.515  17.286  0.00  0.00    +0.000 C 
ATOM     13  C   UNL     1       2.750   6.348  18.206  0.00  0.00    +0.000 A 
ATOM     14  C   UNL     1       3.277   5.149  17.693  0.00  0.00    +0.000 A 
ATOM     15  C   UNL     1       3.391   4.076  18.546  0.00  0.00    +0.000 A 
ATOM     16  C   UNL     1       3.018   4.168  19.860  0.00  0.00    +0.000 A 
ATOM     17  C   UNL     1       2.515   5.334  20.397  0.00  0.00    +0.000 A 
ATOM     18  C   UNL     1       2.349   6.462  19.565  0.00  0.00    +0.000 A 
ATOM     19  O   UNL     1       3.182   3.000  20.533  0.00  0.00    +0.000 OA
ATOM     20  C   UNL     1       3.646   2.137  19.470  0.00  0.00    +0.000 C 
ATOM     21  O   UNL     1       3.844   2.838  18.223  0.00  0.00    +0.000 OA
ENDROOT
BRANCH   1  23
ATOM     22  C   UNL     1      -2.863  12.552  22.769  0.00  0.00    +0.000 C 
ATOM     23  O   UNL     1      -1.435  12.565  22.794  0.00  0.00    +0.000 OA
ENDBRANCH   1  23
BRANCH  10  24
ATOM     24  O   UNL     1       0.092  12.372  20.330  0.00  0.00    +0.000 OA
BRANCH  24  25
ATOM     25  C   UNL     1      -0.994  12.631  19.439  0.00  0.00    +0.000 C 
BRANCH  25  26
ATOM     26  C   UNL     1      -0.503  13.494  18.276  0.00  0.00    +0.000 C 
BRANCH  26  27
ATOM     27  C   UNL     1       1.014  13.344  18.166  0.00  0.00    +0.000 C 
BRANCH  27  28
ATOM     28  N   UNL     1       1.719  14.468  18.775  0.00  0.00    +0.000 NA
ATOM     29  H   UNL     1       1.329  14.661  19.698  0.00  0.00    +0.000 HD
BRANCH  28  30
ATOM     30  C   UNL     1       3.168  14.209  18.923  0.00  0.00    +0.000 C 
ATOM     31  C   UNL     1       4.044  15.002  17.934  0.00  0.00    +0.000 C 
ATOM     32  C   UNL     1       3.930  16.510  18.153  0.00  0.00    +0.000 C 
ATOM     33  C   UNL     1       4.310  16.886  19.582  0.00  0.00    +0.000 C 
ATOM     34  C   UNL     1       3.537  16.079  20.623  0.00  0.00    +0.000 C 
ATOM     35  C   UNL     1       3.606  14.573  20.354  0.00  0.00    +0.000 C 
ENDBRANCH  28  30
ENDBRANCH  27  28
ENDBRANCH  26  27
ENDBRANCH  25  26
ENDBRANCH  24  25
ENDBRANCH  10  24
TORSDOF 7
ENDMDL
