MODEL 1
REMARK VINA RESULT:      -8.2      0.000      0.000
REMARK  Name = 
REMARK  10 active torsions:
REMARK  status: ('A' for Active; 'I' for Inactive)
REMARK    1  A    between atoms: C_1  and  C_2
REMARK    2  A    between atoms: C_2  and  C_3
REMARK    3  A    between atoms: C_6  and  C_7
REMARK    4  A    between atoms: C_7  and  N_8
REMARK    5  A    between atoms: N_8  and  C_9
REMARK    6  A    between atoms: C_9  and  C_10
REMARK    7  A    between atoms: C_16  and  C_18
REMARK    8  A    between atoms: C_19  and  C_20
REMARK    9  A    between atoms: C_23  and  O_24
REMARK   10  A    between atoms: O_24  and  C_25
REMARK                            x       y       z     vdW  Elec       q    Type
REMARK                         _______ _______ _______ _____ _____    ______ ____
ROOT
ATOM      1  N   UNL     1       2.769   6.570  18.140  0.00  0.00    +0.000 N 
ATOM      2  C   UNL     1       2.582   7.923  17.878  0.00  0.00    +0.000 C 
ATOM      3  O   UNL     1       3.502   8.710  17.664  0.00  0.00    +0.000 OA
ENDROOT
BRANCH   2   4
ATOM      4  C   UNL     1       1.184   8.416  17.895  0.00  0.00    +0.000 C 
ATOM      5  C   UNL     1       0.916   9.686  18.235  0.00  0.00    +0.000 C 
BRANCH   5   6
ATOM      6  C   UNL     1      -0.443  10.246  18.265  0.00  0.00    +0.000 A 
ATOM      7  C   UNL     1      -1.457   9.813  17.399  0.00  0.00    +0.000 A 
ATOM      8  C   UNL     1      -2.732  10.382  17.458  0.00  0.00    +0.000 A 
ATOM      9  C   UNL     1      -3.027  11.370  18.398  0.00  0.00    +0.000 A 
ATOM     10  C   UNL     1      -2.030  11.803  19.269  0.00  0.00    +0.000 A 
ATOM     11  C   UNL     1      -0.748  11.239  19.202  0.00  0.00    +0.000 A 
BRANCH   9  12
ATOM     12  O   UNL     1      -4.302  11.861  18.340  0.00  0.00    +0.000 OA
ATOM     13  C   UNL     1      -4.965  11.715  17.089  0.00  0.00    +0.000 C 
ENDBRANCH   9  12
ENDBRANCH   5   6
ENDBRANCH   2   4
BRANCH   1  14
ATOM     14  C   UNL     1       4.158   6.105  18.268  0.00  0.00    +0.000 C 
BRANCH  14  18
ATOM     15  C   UNL     1       5.896   4.316  14.686  0.00  0.00    +0.000 A 
ATOM     16  C   UNL     1       5.740   5.707  14.746  0.00  0.00    +0.000 A 
ATOM     17  C   UNL     1       5.219   6.328  15.907  0.00  0.00    +0.000 A 
ATOM     18  C   UNL     1       4.848   5.568  17.025  0.00  0.00    +0.000 A 
ATOM     19  C   UNL     1       5.174   4.203  17.011  0.00  0.00    +0.000 A 
ATOM     20  C   UNL     1       5.658   3.587  15.857  0.00  0.00    +0.000 A 
BRANCH  15  22
ATOM     21  C   UNL     1       5.321   3.475  12.270  0.00  0.00    +0.000 C 
ATOM     22  C   UNL     1       6.270   3.515  13.458  0.00  0.00    +0.000 C 
ENDBRANCH  15  22
ENDBRANCH  14  18
ENDBRANCH   1  14
BRANCH   1  23
ATOM     23  C   UNL     1       1.706   5.558  18.003  0.00  0.00    +0.000 C 
BRANCH  23  24
ATOM     24  C   UNL     1       1.627   4.433  19.019  0.00  0.00    +0.000 A 
ATOM     25  C   UNL     1       1.474   4.607  20.395  0.00  0.00    +0.000 A 
ATOM     26  C   UNL     1       1.530   3.502  21.246  0.00  0.00    +0.000 A 
ATOM     27  C   UNL     1       1.739   2.238  20.699  0.00  0.00    +0.000 A 
ATOM     28  N   UNL     1       1.884   2.029  19.378  0.00  0.00    +0.000 NA
ATOM     29  C   UNL     1       1.833   3.121  18.579  0.00  0.00    +0.000 A 
ENDBRANCH  23  24
ENDBRANCH   1  23
TORSDOF 8
ENDMDL
MODEL 2
REMARK VINA RESULT:      -8.1      4.249      7.757
REMARK  Name = 
REMARK  10 active torsions:
REMARK  status: ('A' for Active; 'I' for Inactive)
REMARK    1  A    between atoms: C_1  and  C_2
REMARK    2  A    between atoms: C_2  and  C_3
REMARK    3  A    between atoms: C_6  and  C_7
REMARK    4  A    between atoms: C_7  and  N_8
REMARK    5  A    between atoms: N_8  and  C_9
REMARK    6  A    between atoms: C_9  and  C_10
REMARK    7  A    between atoms: C_16  and  C_18
REMARK    8  A    between atoms: C_19  and  C_20
REMARK    9  A    between atoms: C_23  and  O_24
REMARK   10  A    between atoms: O_24  and  C_25
REMARK                            x       y       z     vdW  Elec       q    Type
REMARK                         _______ _______ _______ _____ _____    ______ ____
ROOT
ATOM      1  N   UNL     1       5.364   6.137  16.975  0.00  0.00    +0.000 N 
ATOM      2  C   UNL     1       6.697   6.478  17.173  0.00  0.00    +0.000 C 
ATOM      3  O   UNL     1       7.628   5.681  17.077  0.00  0.00    +0.000 OA
ENDROOT
BRANCH   2   4
ATOM      4  C   UNL     1       6.974   7.884  17.552  0.00  0.00    +0.000 C 
ATOM      5  C   UNL     1       8.212   8.264  17.901  0.00  0.00    +0.000 C 
BRANCH   5   6
ATOM      6  C   UNL     1       8.561   9.641  18.279  0.00  0.00    +0.000 A 
ATOM      7  C   UNL     1       8.252  10.745  17.472  0.00  0.00    +0.000 A 
ATOM      8  C   UNL     1       8.613  12.037  17.868  0.00  0.00    +0.000 A 
ATOM      9  C   UNL     1       9.261  12.252  19.084  0.00  0.00    +0.000 A 
ATOM     10  C   UNL     1       9.566  11.163  19.898  0.00  0.00    +0.000 A 
ATOM     11  C   UNL     1       9.213   9.867  19.495  0.00  0.00    +0.000 A 
BRANCH   9  12
ATOM     12  O   UNL     1       9.580  13.556  19.347  0.00  0.00    +0.000 OA
ATOM     13  C   UNL     1       9.394  13.978  20.693  0.00  0.00    +0.000 C 
ENDBRANCH   9  12
ENDBRANCH   5   6
ENDBRANCH   2   4
BRANCH   1  14
ATOM     14  C   UNL     1       5.071   4.715  16.743  0.00  0.00    +0.000 C 
BRANCH  14  18
ATOM     15  C   UNL     1       2.064   3.074  19.448  0.00  0.00    +0.000 A 
ATOM     16  C   UNL     1       1.758   3.204  18.087  0.00  0.00    +0.000 A 
ATOM     17  C   UNL     1       2.720   3.692  17.172  0.00  0.00    +0.000 A 
ATOM     18  C   UNL     1       4.004   4.057  17.604  0.00  0.00    +0.000 A 
ATOM     19  C   UNL     1       4.345   3.756  18.931  0.00  0.00    +0.000 A 
ATOM     20  C   UNL     1       3.388   3.303  19.839  0.00  0.00    +0.000 A 
BRANCH  15  22
ATOM     21  C   UNL     1       1.602   2.470  21.958  0.00  0.00    +0.000 C 
ATOM     22  C   UNL     1       1.085   2.736  20.552  0.00  0.00    +0.000 C 
ENDBRANCH  15  22
ENDBRANCH  14  18
ENDBRANCH   1  14
BRANCH   1  23
ATOM     23  C   UNL     1       4.303   7.120  16.693  0.00  0.00    +0.000 C 
BRANCH  23  24
ATOM     24  C   UNL     1       3.387   7.558  17.821  0.00  0.00    +0.000 A 
ATOM     25  C   UNL     1       3.156   6.833  18.991  0.00  0.00    +0.000 A 
ATOM     26  C   UNL     1       2.203   7.278  19.909  0.00  0.00    +0.000 A 
ATOM     27  C   UNL     1       1.497   8.447  19.636  0.00  0.00    +0.000 A 
ATOM     28  N   UNL     1       1.695   9.177  18.523  0.00  0.00    +0.000 NA
ATOM     29  C   UNL     1       2.621   8.715  17.648  0.00  0.00    +0.000 A 
ENDBRANCH  23  24
ENDBRANCH   1  23
TORSDOF 8
ENDMDL
MODEL 3
REMARK VINA RESULT:      -7.9      0.408      1.322
REMARK  Name = 
REMARK  10 active torsions:
REMARK  status: ('A' for Active; 'I' for Inactive)
REMARK    1  A    between atoms: C_1  and  C_2
REMARK    2  A    between atoms: C_2  and  C_3
REMARK    3  A    between atoms: C_6  and  C_7
REMARK    4  A    between atoms: C_7  and  N_8
REMARK    5  A    between atoms: N_8  and  C_9
REMARK    6  A    between atoms: C_9  and  C_10
REMARK    7  A    between atoms: C_16  and  C_18
REMARK    8  A    between atoms: C_19  and  C_20
REMARK    9  A    between atoms: C_23  and  O_24
REMARK   10  A    between atoms: O_24  and  C_25
REMARK                            x       y       z     vdW  Elec       q    Type
REMARK                         _______ _______ _______ _____ _____    ______ ____
ROOT
ATOM      1  N   UNL     1       2.695   6.595  18.204  0.00  0.00    +0.000 N 
ATOM      2  C   UNL     1       2.477   7.950  17.985  0.00  0.00    +0.000 C 
ATOM      3  O   UNL     1       3.370   8.751  17.714  0.00  0.00    +0.000 OA
ENDROOT
BRANCH   2   4
ATOM      4  C   UNL     1       1.081   8.430  18.125  0.00  0.00    +0.000 C 
ATOM      5  C   UNL     1       0.799   9.738  18.027  0.00  0.00    +0.000 C 
BRANCH   5   6
ATOM      6  C   UNL     1      -0.561  10.284  18.145  0.00  0.00    +0.000 A 
ATOM      7  C   UNL     1      -0.905  11.252  19.099  0.00  0.00    +0.000 A 
ATOM      8  C   UNL     1      -2.214  11.735  19.181  0.00  0.00    +0.000 A 
ATOM      9  C   UNL     1      -3.194  11.284  18.297  0.00  0.00    +0.000 A 
ATOM     10  C   UNL     1      -2.863  10.328  17.339  0.00  0.00    +0.000 A 
ATOM     11  C   UNL     1      -1.552   9.836  17.266  0.00  0.00    +0.000 A 
BRANCH   9  12
ATOM     12  O   UNL     1      -4.439  11.816  18.493  0.00  0.00    +0.000 OA
ATOM     13  C   UNL     1      -5.531  10.926  18.288  0.00  0.00    +0.000 C 
ENDBRANCH   9  12
ENDBRANCH   5   6
ENDBRANCH   2   4
BRANCH   1  14
ATOM     14  C   UNL     1       4.093   6.141  18.212  0.00  0.00    +0.000 C 
BRANCH  14  18
ATOM     15  C   UNL     1       5.913   4.432  14.631  0.00  0.00    +0.000 A 
ATOM     16  C   UNL     1       5.394   3.572  15.608  0.00  0.00    +0.000 A 
ATOM     17  C   UNL     1       4.758   4.088  16.762  0.00  0.00    +0.000 A 
ATOM     18  C   UNL     1       4.632   5.471  16.957  0.00  0.00    +0.000 A 
ATOM     19  C   UNL     1       5.000   6.306  15.891  0.00  0.00    +0.000 A 
ATOM     20  C   UNL     1       5.653   5.801  14.768  0.00  0.00    +0.000 A 
BRANCH  15  22
ATOM     21  C   UNL     1       6.122   3.290  12.279  0.00  0.00    +0.000 C 
ATOM     22  C   UNL     1       6.764   4.024  13.448  0.00  0.00    +0.000 C 
ENDBRANCH  15  22
ENDBRANCH  14  18
ENDBRANCH   1  14
BRANCH   1  23
ATOM     23  C   UNL     1       1.633   5.576  18.132  0.00  0.00    +0.000 C 
BRANCH  23  24
ATOM     24  C   UNL     1       1.615   4.457  19.159  0.00  0.00    +0.000 A 
ATOM     25  C   UNL     1       1.679   4.639  20.540  0.00  0.00    +0.000 A 
ATOM     26  C   UNL     1       1.773   3.531  21.385  0.00  0.00    +0.000 A 
ATOM     27  C   UNL     1       1.800   2.256  20.824  0.00  0.00    +0.000 A 
ATOM     28  N   UNL     1       1.734   2.040  19.498  0.00  0.00    +0.000 NA
ATOM     29  C   UNL     1       1.651   3.135  18.705  0.00  0.00    +0.000 A 
ENDBRANCH  23  24
ENDBRANCH   1  23
TORSDOF 8
ENDMDL
MODEL 4
REMARK VINA RESULT:      -7.9      0.602      1.310
REMARK  Name = 
REMARK  10 active torsions:
REMARK  status: ('A' for Active; 'I' for Inactive)
REMARK    1  A    between atoms: C_1  and  C_2
REMARK    2  A    between atoms: C_2  and  C_3
REMARK    3  A    between atoms: C_6  and  C_7
REMARK    4  A    between atoms: C_7  and  N_8
REMARK    5  A    between atoms: N_8  and  C_9
REMARK    6  A    between atoms: C_9  and  C_10
REMARK    7  A    between atoms: C_16  and  C_18
REMARK    8  A    between atoms: C_19  and  C_20
REMARK    9  A    between atoms: C_23  and  O_24
REMARK   10  A    between atoms: O_24  and  C_25
REMARK                            x       y       z     vdW  Elec       q    Type
REMARK                         _______ _______ _______ _____ _____    ______ ____
ROOT
ATOM      1  N   UNL     1       2.710   6.692  18.096  0.00  0.00    +0.000 N 
ATOM      2  C   UNL     1       2.516   8.049  17.861  0.00  0.00    +0.000 C 
ATOM      3  O   UNL     1       3.432   8.851  17.693  0.00  0.00    +0.000 OA
ENDROOT
BRANCH   2   4
ATOM      4  C   UNL     1       1.113   8.527  17.850  0.00  0.00    +0.000 C 
ATOM      5  C   UNL     1       0.821   9.789  18.200  0.00  0.00    +0.000 C 
BRANCH   5   6
ATOM      6  C   UNL     1      -0.544  10.334  18.204  0.00  0.00    +0.000 A 
ATOM      7  C   UNL     1      -0.949  11.348  19.082  0.00  0.00    +0.000 A 
ATOM      8  C   UNL     1      -2.262  11.829  19.055  0.00  0.00    +0.000 A 
ATOM      9  C   UNL     1      -3.183  11.328  18.136  0.00  0.00    +0.000 A 
ATOM     10  C   UNL     1      -2.790  10.324  17.252  0.00  0.00    +0.000 A 
ATOM     11  C   UNL     1      -1.476   9.836  17.288  0.00  0.00    +0.000 A 
BRANCH   9  12
ATOM     12  O   UNL     1      -4.439  11.863  18.225  0.00  0.00    +0.000 OA
ATOM     13  C   UNL     1      -5.502  10.926  18.359  0.00  0.00    +0.000 C 
ENDBRANCH   9  12
ENDBRANCH   5   6
ENDBRANCH   2   4
BRANCH   1  14
ATOM     14  C   UNL     1       4.100   6.239  18.254  0.00  0.00    +0.000 C 
BRANCH  14  18
ATOM     15  C   UNL     1       5.918   4.440  14.717  0.00  0.00    +0.000 A 
ATOM     16  C   UNL     1       5.755   5.830  14.767  0.00  0.00    +0.000 A 
ATOM     17  C   UNL     1       5.208   6.455  15.913  0.00  0.00    +0.000 A 
ATOM     18  C   UNL     1       4.817   5.698  17.027  0.00  0.00    +0.000 A 
ATOM     19  C   UNL     1       5.149   4.335  17.027  0.00  0.00    +0.000 A 
ATOM     20  C   UNL     1       5.659   3.715  15.886  0.00  0.00    +0.000 A 
BRANCH  15  22
ATOM     21  C   UNL     1       5.328   3.447  12.362  0.00  0.00    +0.000 C 
ATOM     22  C   UNL     1       6.320   3.634  13.501  0.00  0.00    +0.000 C 
ENDBRANCH  15  22
ENDBRANCH  14  18
ENDBRANCH   1  14
BRANCH   1  23
ATOM     23  C   UNL     1       1.663   5.673  17.904  0.00  0.00    +0.000 C 
BRANCH  23  24
ATOM     24  C   UNL     1       1.723   4.394  18.720  0.00  0.00    +0.000 A 
ATOM     25  C   UNL     1       1.920   3.118  18.194  0.00  0.00    +0.000 A 
ATOM     26  C   UNL     1       1.840   2.001  19.028  0.00  0.00    +0.000 A 
ATOM     27  C   UNL     1       1.564   2.187  20.380  0.00  0.00    +0.000 A 
ATOM     28  N   UNL     1       1.375   3.401  20.927  0.00  0.00    +0.000 NA
ATOM     29  C   UNL     1       1.450   4.465  20.091  0.00  0.00    +0.000 A 
ENDBRANCH  23  24
ENDBRANCH   1  23
TORSDOF 8
ENDMDL
MODEL 5
REMARK VINA RESULT:      -7.9      4.213      7.779
REMARK  Name = 
REMARK  10 active torsions:
REMARK  status: ('A' for Active; 'I' for Inactive)
REMARK    1  A    between atoms: C_1  and  C_2
REMARK    2  A    between atoms: C_2  and  C_3
REMARK    3  A    between atoms: C_6  and  C_7
REMARK    4  A    between atoms: C_7  and  N_8
REMARK    5  A    between atoms: N_8  and  C_9
REMARK    6  A    between atoms: C_9  and  C_10
REMARK    7  A    between atoms: C_16  and  C_18
REMARK    8  A    between atoms: C_19  and  C_20
REMARK    9  A    between atoms: C_23  and  O_24
REMARK   10  A    between atoms: O_24  and  C_25
REMARK                            x       y       z     vdW  Elec       q    Type
REMARK                         _______ _______ _______ _____ _____    ______ ____
ROOT
ATOM      1  N   UNL     1       5.556   5.908  16.984  0.00  0.00    +0.000 N 
ATOM      2  C   UNL     1       6.868   6.284  17.247  0.00  0.00    +0.000 C 
ATOM      3  O   UNL     1       7.812   5.497  17.274  0.00  0.00    +0.000 OA
ENDROOT
BRANCH   2   4
ATOM      4  C   UNL     1       7.102   7.718  17.539  0.00  0.00    +0.000 C 
ATOM      5  C   UNL     1       8.275   8.126  18.049  0.00  0.00    +0.000 C 
BRANCH   5   6
ATOM      6  C   UNL     1       8.580   9.531  18.355  0.00  0.00    +0.000 A 
ATOM      7  C   UNL     1       8.190  10.586  17.519  0.00  0.00    +0.000 A 
ATOM      8  C   UNL     1       8.512  11.907  17.845  0.00  0.00    +0.000 A 
ATOM      9  C   UNL     1       9.200  12.201  19.022  0.00  0.00    +0.000 A 
ATOM     10  C   UNL     1       9.586  11.160  19.865  0.00  0.00    +0.000 A 
ATOM     11  C   UNL     1       9.272   9.835  19.531  0.00  0.00    +0.000 A 
BRANCH   9  12
ATOM     12  O   UNL     1       9.474  13.526  19.217  0.00  0.00    +0.000 OA
ATOM     13  C   UNL     1      10.467  14.084  18.364  0.00  0.00    +0.000 C 
ENDBRANCH   9  12
ENDBRANCH   5   6
ENDBRANCH   2   4
BRANCH   1  14
ATOM     14  C   UNL     1       5.295   4.468  16.838  0.00  0.00    +0.000 C 
BRANCH  14  18
ATOM     15  C   UNL     1       2.142   2.960  19.452  0.00  0.00    +0.000 A 
ATOM     16  C   UNL     1       1.875   3.123  18.087  0.00  0.00    +0.000 A 
ATOM     17  C   UNL     1       2.884   3.569  17.200  0.00  0.00    +0.000 A 
ATOM     18  C   UNL     1       4.174   3.858  17.665  0.00  0.00    +0.000 A 
ATOM     19  C   UNL     1       4.468   3.523  18.996  0.00  0.00    +0.000 A 
ATOM     20  C   UNL     1       3.467   3.112  19.876  0.00  0.00    +0.000 A 
BRANCH  15  22
ATOM     21  C   UNL     1       1.584   2.445  21.962  0.00  0.00    +0.000 C 
ATOM     22  C   UNL     1       1.121   2.662  20.529  0.00  0.00    +0.000 C 
ENDBRANCH  15  22
ENDBRANCH  14  18
ENDBRANCH   1  14
BRANCH   1  23
ATOM     23  C   UNL     1       4.506   6.851  16.559  0.00  0.00    +0.000 C 
BRANCH  23  24
ATOM     24  C   UNL     1       3.477   7.313  17.574  0.00  0.00    +0.000 A 
ATOM     25  C   UNL     1       2.649   8.425  17.424  0.00  0.00    +0.000 A 
ATOM     26  C   UNL     1       1.820   8.823  18.475  0.00  0.00    +0.000 A 
ATOM     27  C   UNL     1       1.838   8.093  19.662  0.00  0.00    +0.000 A 
ATOM     28  N   UNL     1       2.617   7.012  19.843  0.00  0.00    +0.000 NA
ATOM     29  C   UNL     1       3.416   6.656  18.808  0.00  0.00    +0.000 A 
ENDBRANCH  23  24
ENDBRANCH   1  23
TORSDOF 8
ENDMDL
MODEL 6
REMARK VINA RESULT:      -7.8      0.853      1.412
REMARK  Name = 
REMARK  10 active torsions:
REMARK  status: ('A' for Active; 'I' for Inactive)
REMARK    1  A    between atoms: C_1  and  C_2
REMARK    2  A    between atoms: C_2  and  C_3
REMARK    3  A    between atoms: C_6  and  C_7
REMARK    4  A    between atoms: C_7  and  N_8
REMARK    5  A    between atoms: N_8  and  C_9
REMARK    6  A    between atoms: C_9  and  C_10
REMARK    7  A    between atoms: C_16  and  C_18
REMARK    8  A    between atoms: C_19  and  C_20
REMARK    9  A    between atoms: C_23  and  O_24
REMARK   10  A    between atoms: O_24  and  C_25
REMARK                            x       y       z     vdW  Elec       q    Type
REMARK                         _______ _______ _______ _____ _____    ______ ____
ROOT
ATOM      1  N   UNL     1       2.949   6.489  18.182  0.00  0.00    +0.000 N 
ATOM      2  C   UNL     1       2.741   7.852  18.005  0.00  0.00    +0.000 C 
ATOM      3  O   UNL     1       3.629   8.644  17.696  0.00  0.00    +0.000 OA
ENDROOT
BRANCH   2   4
ATOM      4  C   UNL     1       1.364   8.350  18.238  0.00  0.00    +0.000 C 
ATOM      5  C   UNL     1       1.046   9.624  17.963  0.00  0.00    +0.000 C 
BRANCH   5   6
ATOM      6  C   UNL     1      -0.299  10.184  18.161  0.00  0.00    +0.000 A 
ATOM      7  C   UNL     1      -1.388   9.833  17.351  0.00  0.00    +0.000 A 
ATOM      8  C   UNL     1      -2.648  10.398  17.570  0.00  0.00    +0.000 A 
ATOM      9  C   UNL     1      -2.850  11.299  18.615  0.00  0.00    +0.000 A 
ATOM     10  C   UNL     1      -1.777  11.649  19.433  0.00  0.00    +0.000 A 
ATOM     11  C   UNL     1      -0.511  11.089  19.205  0.00  0.00    +0.000 A 
BRANCH   9  12
ATOM     12  O   UNL     1      -4.119  11.798  18.712  0.00  0.00    +0.000 OA
ATOM     13  C   UNL     1      -4.390  12.580  19.870  0.00  0.00    +0.000 C 
ENDBRANCH   9  12
ENDBRANCH   5   6
ENDBRANCH   2   4
BRANCH   1  14
ATOM     14  C   UNL     1       4.338   6.014  18.095  0.00  0.00    +0.000 C 
BRANCH  14  18
ATOM     15  C   UNL     1       5.891   4.296  14.395  0.00  0.00    +0.000 A 
ATOM     16  C   UNL     1       5.428   3.440  15.402  0.00  0.00    +0.000 A 
ATOM     17  C   UNL     1       4.879   3.959  16.599  0.00  0.00    +0.000 A 
ATOM     18  C   UNL     1       4.783   5.343  16.805  0.00  0.00    +0.000 A 
ATOM     19  C   UNL     1       5.088   6.177  15.720  0.00  0.00    +0.000 A 
ATOM     20  C   UNL     1       5.657   5.668  14.553  0.00  0.00    +0.000 A 
BRANCH  15  22
ATOM     21  C   UNL     1       5.957   3.056  12.085  0.00  0.00    +0.000 C 
ATOM     22  C   UNL     1       6.654   3.882  13.156  0.00  0.00    +0.000 C 
ENDBRANCH  15  22
ENDBRANCH  14  18
ENDBRANCH   1  14
BRANCH   1  23
ATOM     23  C   UNL     1       1.868   5.488  18.154  0.00  0.00    +0.000 C 
BRANCH  23  24
ATOM     24  C   UNL     1       1.815   4.431  19.242  0.00  0.00    +0.000 A 
ATOM     25  C   UNL     1       1.343   3.130  19.071  0.00  0.00    +0.000 A 
ATOM     26  C   UNL     1       1.233   2.278  20.172  0.00  0.00    +0.000 A 
ATOM     27  C   UNL     1       1.601   2.751  21.429  0.00  0.00    +0.000 A 
ATOM     28  N   UNL     1       2.067   3.996  21.634  0.00  0.00    +0.000 NA
ATOM     29  C   UNL     1       2.155   4.801  20.548  0.00  0.00    +0.000 A 
ENDBRANCH  23  24
ENDBRANCH   1  23
TORSDOF 8
ENDMDL
MODEL 7
REMARK VINA RESULT:      -7.6      5.217      8.565
REMARK  Name = 
REMARK  10 active torsions:
REMARK  status: ('A' for Active; 'I' for Inactive)
REMARK    1  A    between atoms: C_1  and  C_2
REMARK    2  A    between atoms: C_2  and  C_3
REMARK    3  A    between atoms: C_6  and  C_7
REMARK    4  A    between atoms: C_7  and  N_8
REMARK    5  A    between atoms: N_8  and  C_9
REMARK    6  A    between atoms: C_9  and  C_10
REMARK    7  A    between atoms: C_16  and  C_18
REMARK    8  A    between atoms: C_19  and  C_20
REMARK    9  A    between atoms: C_23  and  O_24
REMARK   10  A    between atoms: O_24  and  C_25
REMARK                            x       y       z     vdW  Elec       q    Type
REMARK                         _______ _______ _______ _____ _____    ______ ____
ROOT
ATOM      1  N   UNL     1       6.700   6.039  17.605  0.00  0.00    +0.000 N 
ATOM      2  C   UNL     1       7.707   6.692  18.306  0.00  0.00    +0.000 C 
ATOM      3  O   UNL     1       8.324   6.189  19.243  0.00  0.00    +0.000 OA
ENDROOT
BRANCH   2   4
ATOM      4  C   UNL     1       8.007   8.084  17.895  0.00  0.00    +0.000 C 
ATOM      5  C   UNL     1       8.677   8.907  18.717  0.00  0.00    +0.000 C 
BRANCH   5   6
ATOM      6  C   UNL     1       9.017  10.295  18.373  0.00  0.00    +0.000 A 
ATOM      7  C   UNL     1       8.099  11.171  17.777  0.00  0.00    +0.000 A 
ATOM      8  C   UNL     1       8.471  12.480  17.459  0.00  0.00    +0.000 A 
ATOM      9  C   UNL     1       9.751  12.947  17.754  0.00  0.00    +0.000 A 
ATOM     10  C   UNL     1      10.670  12.088  18.353  0.00  0.00    +0.000 A 
ATOM     11  C   UNL     1      10.299  10.771  18.662  0.00  0.00    +0.000 A 
BRANCH   9  12
ATOM     12  O   UNL     1       9.999  14.237  17.373  0.00  0.00    +0.000 OA
ATOM     13  C   UNL     1      11.357  14.655  17.454  0.00  0.00    +0.000 C 
ENDBRANCH   9  12
ENDBRANCH   5   6
ENDBRANCH   2   4
BRANCH   1  14
ATOM     14  C   UNL     1       6.298   4.714  18.101  0.00  0.00    +0.000 C 
BRANCH  14  18
ATOM     15  C   UNL     1       2.388   4.029  19.915  0.00  0.00    +0.000 A 
ATOM     16  C   UNL     1       2.805   5.344  19.672  0.00  0.00    +0.000 A 
ATOM     17  C   UNL     1       4.048   5.606  19.047  0.00  0.00    +0.000 A 
ATOM     18  C   UNL     1       4.891   4.556  18.655  0.00  0.00    +0.000 A 
ATOM     19  C   UNL     1       4.380   3.253  18.747  0.00  0.00    +0.000 A 
ATOM     20  C   UNL     1       3.169   2.994  19.390  0.00  0.00    +0.000 A 
BRANCH  15  22
ATOM     21  C   UNL     1       1.321   2.539  21.791  0.00  0.00    +0.000 C 
ATOM     22  C   UNL     1       1.178   3.615  20.724  0.00  0.00    +0.000 C 
ENDBRANCH  15  22
ENDBRANCH  14  18
ENDBRANCH   1  14
BRANCH   1  23
ATOM     23  C   UNL     1       6.239   6.449  16.267  0.00  0.00    +0.000 C 
BRANCH  23  24
ATOM     24  C   UNL     1       6.315   5.452  15.125  0.00  0.00    +0.000 A 
ATOM     25  C   UNL     1       7.398   5.311  14.257  0.00  0.00    +0.000 A 
ATOM     26  C   UNL     1       7.310   4.440  13.169  0.00  0.00    +0.000 A 
ATOM     27  C   UNL     1       6.132   3.723  12.972  0.00  0.00    +0.000 A 
ATOM     28  N   UNL     1       5.069   3.826  13.790  0.00  0.00    +0.000 NA
ATOM     29  C   UNL     1       5.182   4.686  14.832  0.00  0.00    +0.000 A 
ENDBRANCH  23  24
ENDBRANCH   1  23
TORSDOF 8
ENDMDL
MODEL 8
REMARK VINA RESULT:      -7.6      4.159      7.733
REMARK  Name = 
REMARK  10 active torsions:
REMARK  status: ('A' for Active; 'I' for Inactive)
REMARK    1  A    between atoms: C_1  and  C_2
REMARK    2  A    between atoms: C_2  and  C_3
REMARK    3  A    between atoms: C_6  and  C_7
REMARK    4  A    between atoms: C_7  and  N_8
REMARK    5  A    between atoms: N_8  and  C_9
REMARK    6  A    between atoms: C_9  and  C_10
REMARK    7  A    between atoms: C_16  and  C_18
REMARK    8  A    between atoms: C_19  and  C_20
REMARK    9  A    between atoms: C_23  and  O_24
REMARK   10  A    between atoms: O_24  and  C_25
REMARK                            x       y       z     vdW  Elec       q    Type
REMARK                         _______ _______ _______ _____ _____    ______ ____
ROOT
ATOM      1  N   UNL     1       5.681   5.896  17.121  0.00  0.00    +0.000 N 
ATOM      2  C   UNL     1       6.988   5.996  17.583  0.00  0.00    +0.000 C 
ATOM      3  O   UNL     1       7.811   5.085  17.510  0.00  0.00    +0.000 OA
ENDROOT
BRANCH   2   4
ATOM      4  C   UNL     1       7.370   7.278  18.223  0.00  0.00    +0.000 C 
ATOM      5  C   UNL     1       8.089   8.188  17.547  0.00  0.00    +0.000 C 
BRANCH   5   6
ATOM      6  C   UNL     1       8.495   9.482  18.114  0.00  0.00    +0.000 A 
ATOM      7  C   UNL     1       9.189   9.589  19.328  0.00  0.00    +0.000 A 
ATOM      8  C   UNL     1       9.546  10.843  19.833  0.00  0.00    +0.000 A 
ATOM      9  C   UNL     1       9.244  12.006  19.125  0.00  0.00    +0.000 A 
ATOM     10  C   UNL     1       8.562  11.912  17.914  0.00  0.00    +0.000 A 
ATOM     11  C   UNL     1       8.195  10.654  17.414  0.00  0.00    +0.000 A 
BRANCH   9  12
ATOM     12  O   UNL     1       9.626  13.170  19.734  0.00  0.00    +0.000 OA
ATOM     13  C   UNL     1       9.552  13.177  21.156  0.00  0.00    +0.000 C 
ENDBRANCH   9  12
ENDBRANCH   5   6
ENDBRANCH   2   4
BRANCH   1  14
ATOM     14  C   UNL     1       5.255   4.581  16.619  0.00  0.00    +0.000 C 
BRANCH  14  18
ATOM     15  C   UNL     1       2.304   2.606  19.157  0.00  0.00    +0.000 A 
ATOM     16  C   UNL     1       1.938   2.994  17.862  0.00  0.00    +0.000 A 
ATOM     17  C   UNL     1       2.878   3.599  16.994  0.00  0.00    +0.000 A 
ATOM     18  C   UNL     1       4.199   3.824  17.409  0.00  0.00    +0.000 A 
ATOM     19  C   UNL     1       4.589   3.272  18.638  0.00  0.00    +0.000 A 
ATOM     20  C   UNL     1       3.656   2.704  19.505  0.00  0.00    +0.000 A 
BRANCH  15  22
ATOM     21  C   UNL     1       1.394   2.771  21.611  0.00  0.00    +0.000 C 
ATOM     22  C   UNL     1       1.365   2.116  20.239  0.00  0.00    +0.000 C 
ENDBRANCH  15  22
ENDBRANCH  14  18
ENDBRANCH   1  14
BRANCH   1  23
ATOM     23  C   UNL     1       4.825   7.060  16.835  0.00  0.00    +0.000 C 
BRANCH  23  24
ATOM     24  C   UNL     1       3.662   7.363  17.762  0.00  0.00    +0.000 A 
ATOM     25  C   UNL     1       2.769   8.424  17.606  0.00  0.00    +0.000 A 
ATOM     26  C   UNL     1       1.806   8.674  18.586  0.00  0.00    +0.000 A 
ATOM     27  C   UNL     1       1.757   7.852  19.708  0.00  0.00    +0.000 A 
ATOM     28  N   UNL     1       2.594   6.815  19.892  0.00  0.00    +0.000 NA
ATOM     29  C   UNL     1       3.523   6.603  18.928  0.00  0.00    +0.000 A 
ENDBRANCH  23  24
ENDBRANCH   1  23
TORSDOF 8
ENDMDL
MODEL 9
REMARK VINA RESULT:      -7.5      1.519      1.983
REMARK  Name = 
REMARK  10 active torsions:
REMARK  status: ('A' for Active; 'I' for Inactive)
REMARK    1  A    between atoms: C_1  and  C_2
REMARK    2  A    between atoms: C_2  and  C_3
REMARK    3  A    between atoms: C_6  and  C_7
REMARK    4  A    between atoms: C_7  and  N_8
REMARK    5  A    between atoms: N_8  and  C_9
REMARK    6  A    between atoms: C_9  and  C_10
REMARK    7  A    between atoms: C_16  and  C_18
REMARK    8  A    between atoms: C_19  and  C_20
REMARK    9  A    between atoms: C_23  and  O_24
REMARK   10  A    between atoms: O_24  and  C_25
REMARK                            x       y       z     vdW  Elec       q    Type
REMARK                         _______ _______ _______ _____ _____    ______ ____
ROOT
ATOM      1  N   UNL     1       3.734   5.825  17.817  0.00  0.00    +0.000 N 
ATOM      2  C   UNL     1       3.880   7.174  17.515  0.00  0.00    +0.000 C 
ATOM      3  O   UNL     1       4.942   7.684  17.163  0.00  0.00    +0.000 OA
ENDROOT
BRANCH   2   4
ATOM      4  C   UNL     1       2.675   8.023  17.666  0.00  0.00    +0.000 C 
ATOM      5  C   UNL     1       2.280   8.435  18.881  0.00  0.00    +0.000 C 
BRANCH   5   6
ATOM      6  C   UNL     1       1.102   9.285  19.105  0.00  0.00    +0.000 A 
ATOM      7  C   UNL     1       0.676   9.660  20.387  0.00  0.00    +0.000 A 
ATOM      8  C   UNL     1      -0.457  10.462  20.552  0.00  0.00    +0.000 A 
ATOM      9  C   UNL     1      -1.166  10.927  19.444  0.00  0.00    +0.000 A 
ATOM     10  C   UNL     1      -0.748  10.567  18.165  0.00  0.00    +0.000 A 
ATOM     11  C   UNL     1       0.383   9.753  18.001  0.00  0.00    +0.000 A 
BRANCH   9  12
ATOM     12  O   UNL     1      -2.267  11.683  19.738  0.00  0.00    +0.000 OA
ATOM     13  C   UNL     1      -2.004  12.971  20.285  0.00  0.00    +0.000 C 
ENDBRANCH   9  12
ENDBRANCH   5   6
ENDBRANCH   2   4
BRANCH   1  14
ATOM     14  C   UNL     1       4.957   5.008  17.810  0.00  0.00    +0.000 C 
BRANCH  14  18
ATOM     15  C   UNL     1       6.551   4.291  13.811  0.00  0.00    +0.000 A 
ATOM     16  C   UNL     1       7.371   4.896  14.772  0.00  0.00    +0.000 A 
ATOM     17  C   UNL     1       6.904   5.106  16.092  0.00  0.00    +0.000 A 
ATOM     18  C   UNL     1       5.612   4.715  16.469  0.00  0.00    +0.000 A 
ATOM     19  C   UNL     1       4.874   3.958  15.547  0.00  0.00    +0.000 A 
ATOM     20  C   UNL     1       5.321   3.776  14.238  0.00  0.00    +0.000 A 
BRANCH  15  22
ATOM     21  C   UNL     1       6.781   2.802  11.664  0.00  0.00    +0.000 C 
ATOM     22  C   UNL     1       6.855   4.167  12.333  0.00  0.00    +0.000 C 
ENDBRANCH  15  22
ENDBRANCH  14  18
ENDBRANCH   1  14
BRANCH   1  23
ATOM     23  C   UNL     1       2.434   5.132  17.847  0.00  0.00    +0.000 C 
BRANCH  23  24
ATOM     24  C   UNL     1       2.027   4.386  19.105  0.00  0.00    +0.000 A 
ATOM     25  C   UNL     1       2.416   4.730  20.400  0.00  0.00    +0.000 A 
ATOM     26  C   UNL     1       2.076   3.903  21.472  0.00  0.00    +0.000 A 
ATOM     27  C   UNL     1       1.349   2.741  21.224  0.00  0.00    +0.000 A 
ATOM     28  N   UNL     1       0.950   2.378  19.991  0.00  0.00    +0.000 NA
ATOM     29  C   UNL     1       1.302   3.197  18.971  0.00  0.00    +0.000 A 
ENDBRANCH  23  24
ENDBRANCH   1  23
TORSDOF 8
ENDMDL
