MODEL 1
REMARK VINA RESULT:      -7.8      0.000      0.000
REMARK  Name = 
REMARK  6 active torsions:
REMARK  status: ('A' for Active; 'I' for Inactive)
REMARK    1  A    between atoms: C_2  and  C_5
REMARK    2  A    between atoms: N_3  and  O_4
REMARK    3  A    between atoms: C_10  and  C_12
REMARK    4  A    between atoms: C_13  and  C_14
REMARK    5  A    between atoms: C_17  and  O_18
REMARK    6  A    between atoms: C_19  and  O_20
REMARK                            x       y       z     vdW  Elec       q    Type
REMARK                         _______ _______ _______ _____ _____    ______ ____
ROOT
ATOM      1  C   UNL     1       0.274  10.127  19.566  0.00  0.00    +0.000 C 
ATOM      2  C   UNL     1       0.189  10.427  21.073  0.00  0.00    +0.000 C 
ATOM      3  C   UNL     1       0.360   9.073  21.732  0.00  0.00    +0.000 C 
ATOM      4  C   UNL     1       1.272   8.309  20.786  0.00  0.00    +0.000 C 
ATOM      5  N   UNL     1       1.298   9.065  19.534  0.00  0.00    +0.000 N 
ATOM      6  C   UNL     1       1.894   8.590  18.383  0.00  0.00    +0.000 C 
ATOM      7  O   UNL     1       1.944   9.208  17.326  0.00  0.00    +0.000 OA
ENDROOT
BRANCH   1   9
ATOM      8  O   UNL     1       1.207  12.321  19.030  0.00  0.00    +0.000 OA
ATOM      9  C   UNL     1       0.322  11.482  18.820  0.00  0.00    +0.000 C 
ATOM     10  N   UNL     1      -0.789  11.833  18.108  0.00  0.00    +0.000 N 
ATOM     11  H   UNL     1      -1.446  11.143  17.733  0.00  0.00    +0.000 HD
BRANCH  10  12
ATOM     12  O   UNL     1      -0.785  13.121  17.524  0.00  0.00    +0.000 OA
ATOM     13  H   UNL     1       0.175  13.325  17.490  0.00  0.00    +0.000 HD
ENDBRANCH  10  12
ENDBRANCH   1   9
BRANCH   6  14
ATOM     14  C   UNL     1       2.484   7.234  18.481  0.00  0.00    +0.000 C 
ATOM     15  C   UNL     1       1.940   6.178  17.863  0.00  0.00    +0.000 C 
BRANCH  15  16
ATOM     16  C   UNL     1       2.568   4.862  18.000  0.00  0.00    +0.000 A 
ATOM     17  C   UNL     1       1.825   3.699  17.742  0.00  0.00    +0.000 A 
ATOM     18  C   UNL     1       2.385   2.434  17.936  0.00  0.00    +0.000 A 
ATOM     19  C   UNL     1       3.695   2.338  18.392  0.00  0.00    +0.000 A 
ATOM     20  C   UNL     1       4.438   3.489  18.644  0.00  0.00    +0.000 A 
ATOM     21  C   UNL     1       3.891   4.750  18.452  0.00  0.00    +0.000 A 
BRANCH  19  22
ATOM     22  O   UNL     1       4.299   1.132  18.616  0.00  0.00    +0.000 OA
ATOM     23  H   UNL     1       4.703   1.155  19.501  0.00  0.00    +0.000 HD
ENDBRANCH  19  22
BRANCH  20  24
ATOM     24  O   UNL     1       5.722   3.381  19.098  0.00  0.00    +0.000 OA
ATOM     25  H   UNL     1       6.171   4.181  18.759  0.00  0.00    +0.000 HD
ENDBRANCH  20  24
ENDBRANCH  15  16
ENDBRANCH   6  14
TORSDOF 6
ENDMDL
MODEL 2
REMARK VINA RESULT:      -7.6      0.995      1.009
REMARK  Name = 
REMARK  6 active torsions:
REMARK  status: ('A' for Active; 'I' for Inactive)
REMARK    1  A    between atoms: C_2  and  C_5
REMARK    2  A    between atoms: N_3  and  O_4
REMARK    3  A    between atoms: C_10  and  C_12
REMARK    4  A    between atoms: C_13  and  C_14
REMARK    5  A    between atoms: C_17  and  O_18
REMARK    6  A    between atoms: C_19  and  O_20
REMARK                            x       y       z     vdW  Elec       q    Type
REMARK                         _______ _______ _______ _____ _____    ______ ____
ROOT
ATOM      1  C   UNL     1      -0.269  10.288  20.007  0.00  0.00    +0.000 C 
ATOM      2  C   UNL     1      -0.465  10.678  21.482  0.00  0.00    +0.000 C 
ATOM      3  C   UNL     1      -0.195   9.397  22.245  0.00  0.00    +0.000 C 
ATOM      4  C   UNL     1       0.838   8.669  21.401  0.00  0.00    +0.000 C 
ATOM      5  N   UNL     1       0.856   9.338  20.100  0.00  0.00    +0.000 N 
ATOM      6  C   UNL     1       1.558   8.850  19.016  0.00  0.00    +0.000 C 
ATOM      7  O   UNL     1       1.603   9.397  17.920  0.00  0.00    +0.000 OA
ENDROOT
BRANCH   1   9
ATOM      8  O   UNL     1      -0.051  12.695  19.650  0.00  0.00    +0.000 OA
ATOM      9  C   UNL     1      -0.315  11.587  19.168  0.00  0.00    +0.000 C 
ATOM     10  N   UNL     1      -0.909  11.508  17.941  0.00  0.00    +0.000 N 
ATOM     11  H   UNL     1      -0.965  10.633  17.410  0.00  0.00    +0.000 HD
BRANCH  10  12
ATOM     12  O   UNL     1      -1.052  12.720  17.227  0.00  0.00    +0.000 OA
ATOM     13  H   UNL     1      -0.974  12.418  16.297  0.00  0.00    +0.000 HD
ENDBRANCH  10  12
ENDBRANCH   1   9
BRANCH   6  14
ATOM     14  C   UNL     1       2.274   7.572  19.240  0.00  0.00    +0.000 C 
ATOM     15  C   UNL     1       2.274   6.591  18.328  0.00  0.00    +0.000 C 
BRANCH  15  16
ATOM     16  C   UNL     1       2.998   5.349  18.608  0.00  0.00    +0.000 A 
ATOM     17  C   UNL     1       2.311   4.238  19.123  0.00  0.00    +0.000 A 
ATOM     18  C   UNL     1       2.996   3.068  19.463  0.00  0.00    +0.000 A 
ATOM     19  C   UNL     1       4.375   3.017  19.287  0.00  0.00    +0.000 A 
ATOM     20  C   UNL     1       5.059   4.115  18.771  0.00  0.00    +0.000 A 
ATOM     21  C   UNL     1       4.387   5.281  18.429  0.00  0.00    +0.000 A 
BRANCH  19  22
ATOM     22  O   UNL     1       5.107   1.909  19.613  0.00  0.00    +0.000 OA
ATOM     23  H   UNL     1       5.052   1.782  20.577  0.00  0.00    +0.000 HD
ENDBRANCH  19  22
BRANCH  20  24
ATOM     24  O   UNL     1       6.414   4.055  18.609  0.00  0.00    +0.000 OA
ATOM     25  H   UNL     1       6.759   4.806  19.131  0.00  0.00    +0.000 HD
ENDBRANCH  20  24
ENDBRANCH  15  16
ENDBRANCH   6  14
TORSDOF 6
ENDMDL
MODEL 3
REMARK VINA RESULT:      -7.6      7.823      8.489
REMARK  Name = 
REMARK  6 active torsions:
REMARK  status: ('A' for Active; 'I' for Inactive)
REMARK    1  A    between atoms: C_2  and  C_5
REMARK    2  A    between atoms: N_3  and  O_4
REMARK    3  A    between atoms: C_10  and  C_12
REMARK    4  A    between atoms: C_13  and  C_14
REMARK    5  A    between atoms: C_17  and  O_18
REMARK    6  A    between atoms: C_19  and  O_20
REMARK                            x       y       z     vdW  Elec       q    Type
REMARK                         _______ _______ _______ _____ _____    ______ ____
ROOT
ATOM      1  C   UNL     1      10.538  13.467  18.990  0.00  0.00    +0.000 C 
ATOM      2  C   UNL     1      12.051  13.487  19.273  0.00  0.00    +0.000 C 
ATOM      3  C   UNL     1      12.333  12.131  19.889  0.00  0.00    +0.000 C 
ATOM      4  C   UNL     1      11.323  11.205  19.232  0.00  0.00    +0.000 C 
ATOM      5  N   UNL     1      10.334  12.064  18.580  0.00  0.00    +0.000 N 
ATOM      6  C   UNL     1       9.172  11.576  18.018  0.00  0.00    +0.000 C 
ATOM      7  O   UNL     1       8.335  12.270  17.453  0.00  0.00    +0.000 OA
ENDROOT
BRANCH   1   9
ATOM      8  O   UNL     1       9.233  15.455  18.434  0.00  0.00    +0.000 OA
ATOM      9  C   UNL     1      10.198  14.730  18.165  0.00  0.00    +0.000 C 
ATOM     10  N   UNL     1      10.844  14.878  16.970  0.00  0.00    +0.000 N 
ATOM     11  H   UNL     1      11.757  14.455  16.780  0.00  0.00    +0.000 HD
BRANCH  10  12
ATOM     12  O   UNL     1      10.446  15.972  16.168  0.00  0.00    +0.000 OA
ATOM     13  H   UNL     1      11.258  16.144  15.643  0.00  0.00    +0.000 HD
ENDBRANCH  10  12
ENDBRANCH   1   9
BRANCH   6  14
ATOM     14  C   UNL     1       8.964  10.115  18.145  0.00  0.00    +0.000 C 
ATOM     15  C   UNL     1       7.918   9.496  17.581  0.00  0.00    +0.000 C 
BRANCH  15  16
ATOM     16  C   UNL     1       7.765   8.048  17.745  0.00  0.00    +0.000 A 
ATOM     17  C   UNL     1       7.078   7.302  16.774  0.00  0.00    +0.000 A 
ATOM     18  C   UNL     1       6.860   5.933  16.947  0.00  0.00    +0.000 A 
ATOM     19  C   UNL     1       7.333   5.313  18.099  0.00  0.00    +0.000 A 
ATOM     20  C   UNL     1       8.020   6.049  19.062  0.00  0.00    +0.000 A 
ATOM     21  C   UNL     1       8.243   7.410  18.897  0.00  0.00    +0.000 A 
BRANCH  19  22
ATOM     22  O   UNL     1       7.142   3.981  18.337  0.00  0.00    +0.000 OA
ATOM     23  H   UNL     1       8.001   3.530  18.250  0.00  0.00    +0.000 HD
ENDBRANCH  19  22
BRANCH  20  24
ATOM     24  O   UNL     1       8.475   5.431  20.192  0.00  0.00    +0.000 OA
ATOM     25  H   UNL     1       7.762   5.563  20.848  0.00  0.00    +0.000 HD
ENDBRANCH  20  24
ENDBRANCH  15  16
ENDBRANCH   6  14
TORSDOF 6
ENDMDL
MODEL 4
REMARK VINA RESULT:      -7.5      7.476      7.992
REMARK  Name = 
REMARK  6 active torsions:
REMARK  status: ('A' for Active; 'I' for Inactive)
REMARK    1  A    between atoms: C_2  and  C_5
REMARK    2  A    between atoms: N_3  and  O_4
REMARK    3  A    between atoms: C_10  and  C_12
REMARK    4  A    between atoms: C_13  and  C_14
REMARK    5  A    between atoms: C_17  and  O_18
REMARK    6  A    between atoms: C_19  and  O_20
REMARK                            x       y       z     vdW  Elec       q    Type
REMARK                         _______ _______ _______ _____ _____    ______ ____
ROOT
ATOM      1  C   UNL     1       9.545  13.448  19.764  0.00  0.00    +0.000 C 
ATOM      2  C   UNL     1       9.961  13.696  21.224  0.00  0.00    +0.000 C 
ATOM      3  C   UNL     1       9.301  12.570  21.996  0.00  0.00    +0.000 C 
ATOM      4  C   UNL     1       9.274  11.411  21.015  0.00  0.00    +0.000 C 
ATOM      5  N   UNL     1       9.568  11.974  19.697  0.00  0.00    +0.000 N 
ATOM      6  C   UNL     1       9.469  11.244  18.530  0.00  0.00    +0.000 C 
ATOM      7  O   UNL     1       9.723  11.686  17.415  0.00  0.00    +0.000 OA
ENDROOT
BRANCH   1   9
ATOM      8  O   UNL     1      11.256  15.135  19.325  0.00  0.00    +0.000 OA
ATOM      9  C   UNL     1      10.348  14.427  18.874  0.00  0.00    +0.000 C 
ATOM     10  N   UNL     1       9.850  14.676  17.627  0.00  0.00    +0.000 N 
ATOM     11  H   UNL     1       9.252  14.011  17.128  0.00  0.00    +0.000 HD
BRANCH  10  12
ATOM     12  O   UNL     1      10.522  15.657  16.863  0.00  0.00    +0.000 OA
ATOM     13  H   UNL     1       9.842  15.895  16.196  0.00  0.00    +0.000 HD
ENDBRANCH  10  12
ENDBRANCH   1   9
BRANCH   6  14
ATOM     14  C   UNL     1       9.007   9.845  18.688  0.00  0.00    +0.000 C 
ATOM     15  C   UNL     1       8.276   9.230  17.748  0.00  0.00    +0.000 C 
BRANCH  15  16
ATOM     16  C   UNL     1       7.846   7.846  17.964  0.00  0.00    +0.000 A 
ATOM     17  C   UNL     1       6.945   7.245  17.071  0.00  0.00    +0.000 A 
ATOM     18  C   UNL     1       6.468   5.951  17.298  0.00  0.00    +0.000 A 
ATOM     19  C   UNL     1       6.898   5.261  18.426  0.00  0.00    +0.000 A 
ATOM     20  C   UNL     1       7.797   5.852  19.312  0.00  0.00    +0.000 A 
ATOM     21  C   UNL     1       8.277   7.136  19.093  0.00  0.00    +0.000 A 
BRANCH  19  22
ATOM     22  O   UNL     1       6.460   3.999  18.715  0.00  0.00    +0.000 OA
ATOM     23  H   UNL     1       6.208   3.973  19.655  0.00  0.00    +0.000 HD
ENDBRANCH  19  22
BRANCH  20  24
ATOM     24  O   UNL     1       8.207   5.166  20.420  0.00  0.00    +0.000 OA
ATOM     25  H   UNL     1       9.183   5.226  20.400  0.00  0.00    +0.000 HD
ENDBRANCH  20  24
ENDBRANCH  15  16
ENDBRANCH   6  14
TORSDOF 6
ENDMDL
MODEL 5
REMARK VINA RESULT:      -7.5      1.119      1.779
REMARK  Name = 
REMARK  6 active torsions:
REMARK  status: ('A' for Active; 'I' for Inactive)
REMARK    1  A    between atoms: C_2  and  C_5
REMARK    2  A    between atoms: N_3  and  O_4
REMARK    3  A    between atoms: C_10  and  C_12
REMARK    4  A    between atoms: C_13  and  C_14
REMARK    5  A    between atoms: C_17  and  O_18
REMARK    6  A    between atoms: C_19  and  O_20
REMARK                            x       y       z     vdW  Elec       q    Type
REMARK                         _______ _______ _______ _____ _____    ______ ____
ROOT
ATOM      1  C   UNL     1       0.593  10.210  19.584  0.00  0.00    +0.000 C 
ATOM      2  C   UNL     1       0.523  10.574  21.077  0.00  0.00    +0.000 C 
ATOM      3  C   UNL     1       0.536   9.235  21.788  0.00  0.00    +0.000 C 
ATOM      4  C   UNL     1       1.368   8.341  20.885  0.00  0.00    +0.000 C 
ATOM      5  N   UNL     1       1.493   9.042  19.607  0.00  0.00    +0.000 N 
ATOM      6  C   UNL     1       2.047   8.461  18.484  0.00  0.00    +0.000 C 
ATOM      7  O   UNL     1       2.177   9.029  17.406  0.00  0.00    +0.000 OA
ENDROOT
BRANCH   1   9
ATOM      8  O   UNL     1      -0.147  12.230  18.426  0.00  0.00    +0.000 OA
ATOM      9  C   UNL     1       0.799  11.522  18.790  0.00  0.00    +0.000 C 
ATOM     10  N   UNL     1       2.046  11.742  18.278  0.00  0.00    +0.000 N 
ATOM     11  H   UNL     1       2.891  11.331  18.685  0.00  0.00    +0.000 HD
BRANCH  10  12
ATOM     12  O   UNL     1       2.200  12.884  17.457  0.00  0.00    +0.000 OA
ATOM     13  H   UNL     1       2.635  12.505  16.663  0.00  0.00    +0.000 HD
ENDBRANCH  10  12
ENDBRANCH   1   9
BRANCH   6  14
ATOM     14  C   UNL     1       2.482   7.053  18.640  0.00  0.00    +0.000 C 
ATOM     15  C   UNL     1       2.191   6.116  17.729  0.00  0.00    +0.000 C 
BRANCH  15  16
ATOM     16  C   UNL     1       2.647   4.740  17.941  0.00  0.00    +0.000 A 
ATOM     17  C   UNL     1       4.003   4.417  17.772  0.00  0.00    +0.000 A 
ATOM     18  C   UNL     1       4.444   3.097  17.900  0.00  0.00    +0.000 A 
ATOM     19  C   UNL     1       3.521   2.101  18.199  0.00  0.00    +0.000 A 
ATOM     20  C   UNL     1       2.176   2.419  18.373  0.00  0.00    +0.000 A 
ATOM     21  C   UNL     1       1.728   3.727  18.249  0.00  0.00    +0.000 A 
BRANCH  19  22
ATOM     22  O   UNL     1       3.885   0.789  18.324  0.00  0.00    +0.000 OA
ATOM     23  H   UNL     1       3.586   0.474  19.196  0.00  0.00    +0.000 HD
ENDBRANCH  19  22
BRANCH  20  24
ATOM     24  O   UNL     1       1.278   1.430  18.659  0.00  0.00    +0.000 OA
ATOM     25  H   UNL     1       1.053   1.567  19.601  0.00  0.00    +0.000 HD
ENDBRANCH  20  24
ENDBRANCH  15  16
ENDBRANCH   6  14
TORSDOF 6
ENDMDL
MODEL 6
REMARK VINA RESULT:      -7.4      2.852      8.268
REMARK  Name = 
REMARK  6 active torsions:
REMARK  status: ('A' for Active; 'I' for Inactive)
REMARK    1  A    between atoms: C_2  and  C_5
REMARK    2  A    between atoms: N_3  and  O_4
REMARK    3  A    between atoms: C_10  and  C_12
REMARK    4  A    between atoms: C_13  and  C_14
REMARK    5  A    between atoms: C_17  and  O_18
REMARK    6  A    between atoms: C_19  and  O_20
REMARK                            x       y       z     vdW  Elec       q    Type
REMARK                         _______ _______ _______ _____ _____    ______ ____
ROOT
ATOM      1  C   UNL     1       3.868   3.827  17.895  0.00  0.00    +0.000 C 
ATOM      2  C   UNL     1       5.051   4.157  16.968  0.00  0.00    +0.000 C 
ATOM      3  C   UNL     1       4.749   5.552  16.459  0.00  0.00    +0.000 C 
ATOM      4  C   UNL     1       3.997   6.212  17.603  0.00  0.00    +0.000 C 
ATOM      5  N   UNL     1       3.607   5.139  18.518  0.00  0.00    +0.000 N 
ATOM      6  C   UNL     1       2.765   5.339  19.593  0.00  0.00    +0.000 C 
ATOM      7  O   UNL     1       2.435   4.462  20.383  0.00  0.00    +0.000 OA
ENDROOT
BRANCH   1   9
ATOM      8  O   UNL     1       3.538   1.473  18.459  0.00  0.00    +0.000 OA
ATOM      9  C   UNL     1       4.199   2.505  18.626  0.00  0.00    +0.000 C 
ATOM     10  N   UNL     1       5.086   2.579  19.662  0.00  0.00    +0.000 N 
ATOM     11  H   UNL     1       5.797   3.315  19.729  0.00  0.00    +0.000 HD
BRANCH  10  12
ATOM     12  O   UNL     1       5.298   1.392  20.400  0.00  0.00    +0.000 OA
ATOM     13  H   UNL     1       6.015   1.660  21.014  0.00  0.00    +0.000 HD
ENDBRANCH  10  12
ENDBRANCH   1   9
BRANCH   6  14
ATOM     14  C   UNL     1       2.242   6.717  19.749  0.00  0.00    +0.000 C 
ATOM     15  C   UNL     1       1.527   7.086  20.819  0.00  0.00    +0.000 C 
BRANCH  15  16
ATOM     16  C   UNL     1       1.035   8.463  20.915  0.00  0.00    +0.000 A 
ATOM     17  C   UNL     1       1.176   9.335  19.823  0.00  0.00    +0.000 A 
ATOM     18  C   UNL     1       0.777  10.671  19.920  0.00  0.00    +0.000 A 
ATOM     19  C   UNL     1       0.237  11.131  21.116  0.00  0.00    +0.000 A 
ATOM     20  C   UNL     1       0.090  10.267  22.199  0.00  0.00    +0.000 A 
ATOM     21  C   UNL     1       0.482   8.938  22.112  0.00  0.00    +0.000 A 
BRANCH  19  22
ATOM     22  O   UNL     1      -0.160  12.428  21.281  0.00  0.00    +0.000 OA
ATOM     23  H   UNL     1      -0.231  12.838  20.401  0.00  0.00    +0.000 HD
ENDBRANCH  19  22
BRANCH  20  24
ATOM     24  O   UNL     1      -0.436  10.732  23.371  0.00  0.00    +0.000 OA
ATOM     25  H   UNL     1      -0.539   9.935  23.928  0.00  0.00    +0.000 HD
ENDBRANCH  20  24
ENDBRANCH  15  16
ENDBRANCH   6  14
TORSDOF 6
ENDMDL
MODEL 7
REMARK VINA RESULT:      -7.3      2.143      2.552
REMARK  Name = 
REMARK  6 active torsions:
REMARK  status: ('A' for Active; 'I' for Inactive)
REMARK    1  A    between atoms: C_2  and  C_5
REMARK    2  A    between atoms: N_3  and  O_4
REMARK    3  A    between atoms: C_10  and  C_12
REMARK    4  A    between atoms: C_13  and  C_14
REMARK    5  A    between atoms: C_17  and  O_18
REMARK    6  A    between atoms: C_19  and  O_20
REMARK                            x       y       z     vdW  Elec       q    Type
REMARK                         _______ _______ _______ _____ _____    ______ ____
ROOT
ATOM      1  C   UNL     1      -0.269   9.720  19.695  0.00  0.00    +0.000 C 
ATOM      2  C   UNL     1      -0.371   9.965  21.211  0.00  0.00    +0.000 C 
ATOM      3  C   UNL     1       0.357   8.787  21.828  0.00  0.00    +0.000 C 
ATOM      4  C   UNL     1       1.433   8.439  20.814  0.00  0.00    +0.000 C 
ATOM      5  N   UNL     1       1.084   9.143  19.580  0.00  0.00    +0.000 N 
ATOM      6  C   UNL     1       1.746   8.938  18.386  0.00  0.00    +0.000 C 
ATOM      7  O   UNL     1       1.484   9.524  17.342  0.00  0.00    +0.000 OA
ENDROOT
BRANCH   1   9
ATOM      8  O   UNL     1      -1.138  12.001  19.598  0.00  0.00    +0.000 OA
ATOM      9  C   UNL     1      -0.800  10.984  18.979  0.00  0.00    +0.000 C 
ATOM     10  N   UNL     1      -1.130  10.853  17.661  0.00  0.00    +0.000 N 
ATOM     11  H   UNL     1      -0.710  10.142  17.054  0.00  0.00    +0.000 HD
BRANCH  10  12
ATOM     12  O   UNL     1      -1.722  11.978  17.042  0.00  0.00    +0.000 OA
ATOM     13  H   UNL     1      -1.370  12.717  17.584  0.00  0.00    +0.000 HD
ENDBRANCH  10  12
ENDBRANCH   1   9
BRANCH   6  14
ATOM     14  C   UNL     1       2.824   7.921  18.419  0.00  0.00    +0.000 C 
ATOM     15  C   UNL     1       3.577   7.652  17.344  0.00  0.00    +0.000 C 
BRANCH  15  16
ATOM     16  C   UNL     1       4.626   6.634  17.438  0.00  0.00    +0.000 A 
ATOM     17  C   UNL     1       4.704   5.810  18.572  0.00  0.00    +0.000 A 
ATOM     18  C   UNL     1       5.739   4.882  18.712  0.00  0.00    +0.000 A 
ATOM     19  C   UNL     1       6.697   4.782  17.709  0.00  0.00    +0.000 A 
ATOM     20  C   UNL     1       6.620   5.594  16.580  0.00  0.00    +0.000 A 
ATOM     21  C   UNL     1       5.595   6.518  16.431  0.00  0.00    +0.000 A 
BRANCH  19  22
ATOM     22  O   UNL     1       7.743   3.905  17.790  0.00  0.00    +0.000 OA
ATOM     23  H   UNL     1       7.402   3.010  17.616  0.00  0.00    +0.000 HD
ENDBRANCH  19  22
BRANCH  20  24
ATOM     24  O   UNL     1       7.572   5.491  15.605  0.00  0.00    +0.000 OA
ATOM     25  H   UNL     1       7.635   4.533  15.422  0.00  0.00    +0.000 HD
ENDBRANCH  20  24
ENDBRANCH  15  16
ENDBRANCH   6  14
TORSDOF 6
ENDMDL
MODEL 8
REMARK VINA RESULT:      -7.3      0.836      1.515
REMARK  Name = 
REMARK  6 active torsions:
REMARK  status: ('A' for Active; 'I' for Inactive)
REMARK    1  A    between atoms: C_2  and  C_5
REMARK    2  A    between atoms: N_3  and  O_4
REMARK    3  A    between atoms: C_10  and  C_12
REMARK    4  A    between atoms: C_13  and  C_14
REMARK    5  A    between atoms: C_17  and  O_18
REMARK    6  A    between atoms: C_19  and  O_20
REMARK                            x       y       z     vdW  Elec       q    Type
REMARK                         _______ _______ _______ _____ _____    ______ ____
ROOT
ATOM      1  C   UNL     1       0.042  10.264  19.881  0.00  0.00    +0.000 C 
ATOM      2  C   UNL     1       0.060  10.491  21.403  0.00  0.00    +0.000 C 
ATOM      3  C   UNL     1       0.312   9.112  21.982  0.00  0.00    +0.000 C 
ATOM      4  C   UNL     1       1.169   8.419  20.937  0.00  0.00    +0.000 C 
ATOM      5  N   UNL     1       1.085   9.233  19.724  0.00  0.00    +0.000 N 
ATOM      6  C   UNL     1       1.606   8.827  18.512  0.00  0.00    +0.000 C 
ATOM      7  O   UNL     1       1.564   9.495  17.485  0.00  0.00    +0.000 OA
ENDROOT
BRANCH   1   9
ATOM      8  O   UNL     1       0.340  12.687  19.790  0.00  0.00    +0.000 OA
ATOM      9  C   UNL     1       0.004  11.652  19.201  0.00  0.00    +0.000 C 
ATOM     10  N   UNL     1      -0.660  11.737  18.010  0.00  0.00    +0.000 N 
ATOM     11  H   UNL     1      -0.782  10.933  17.387  0.00  0.00    +0.000 HD
BRANCH  10  12
ATOM     12  O   UNL     1      -0.792  13.028  17.449  0.00  0.00    +0.000 OA
ATOM     13  H   UNL     1      -1.567  12.914  16.858  0.00  0.00    +0.000 HD
ENDBRANCH  10  12
ENDBRANCH   1   9
BRANCH   6  14
ATOM     14  C   UNL     1       2.234   7.485  18.502  0.00  0.00    +0.000 C 
ATOM     15  C   UNL     1       1.568   6.395  18.100  0.00  0.00    +0.000 C 
BRANCH  15  16
ATOM     16  C   UNL     1       2.242   5.094  18.115  0.00  0.00    +0.000 A 
ATOM     17  C   UNL     1       3.605   5.007  17.791  0.00  0.00    +0.000 A 
ATOM     18  C   UNL     1       4.248   3.768  17.731  0.00  0.00    +0.000 A 
ATOM     19  C   UNL     1       3.519   2.614  17.996  0.00  0.00    +0.000 A 
ATOM     20  C   UNL     1       2.167   2.697  18.323  0.00  0.00    +0.000 A 
ATOM     21  C   UNL     1       1.520   3.924  18.387  0.00  0.00    +0.000 A 
BRANCH  19  22
ATOM     22  O   UNL     1       4.083   1.371  17.940  0.00  0.00    +0.000 OA
ATOM     23  H   UNL     1       4.148   1.026  18.849  0.00  0.00    +0.000 HD
ENDBRANCH  19  22
BRANCH  20  24
ATOM     24  O   UNL     1       1.460   1.556  18.575  0.00  0.00    +0.000 OA
ATOM     25  H   UNL     1       2.135   0.902  18.846  0.00  0.00    +0.000 HD
ENDBRANCH  20  24
ENDBRANCH  15  16
ENDBRANCH   6  14
TORSDOF 6
ENDMDL
MODEL 9
REMARK VINA RESULT:      -7.3      3.005      7.926
REMARK  Name = 
REMARK  6 active torsions:
REMARK  status: ('A' for Active; 'I' for Inactive)
REMARK    1  A    between atoms: C_2  and  C_5
REMARK    2  A    between atoms: N_3  and  O_4
REMARK    3  A    between atoms: C_10  and  C_12
REMARK    4  A    between atoms: C_13  and  C_14
REMARK    5  A    between atoms: C_17  and  O_18
REMARK    6  A    between atoms: C_19  and  O_20
REMARK                            x       y       z     vdW  Elec       q    Type
REMARK                         _______ _______ _______ _____ _____    ______ ____
ROOT
ATOM      1  C   UNL     1       3.660   3.622  19.573  0.00  0.00    +0.000 C 
ATOM      2  C   UNL     1       2.923   2.401  20.151  0.00  0.00    +0.000 C 
ATOM      3  C   UNL     1       2.282   2.920  21.423  0.00  0.00    +0.000 C 
ATOM      4  C   UNL     1       1.980   4.378  21.121  0.00  0.00    +0.000 C 
ATOM      5  N   UNL     1       2.727   4.715  19.909  0.00  0.00    +0.000 N 
ATOM      6  C   UNL     1       2.827   6.003  19.423  0.00  0.00    +0.000 C 
ATOM      7  O   UNL     1       3.433   6.311  18.403  0.00  0.00    +0.000 OA
ENDROOT
BRANCH   1   9
ATOM      8  O   UNL     1       3.738   2.252  17.552  0.00  0.00    +0.000 OA
ATOM      9  C   UNL     1       4.166   3.239  18.163  0.00  0.00    +0.000 C 
ATOM     10  N   UNL     1       5.290   3.876  17.718  0.00  0.00    +0.000 N 
ATOM     11  H   UNL     1       5.571   4.801  18.055  0.00  0.00    +0.000 HD
BRANCH  10  12
ATOM     12  O   UNL     1       5.815   3.441  16.479  0.00  0.00    +0.000 OA
ATOM     13  H   UNL     1       5.032   3.017  16.064  0.00  0.00    +0.000 HD
ENDBRANCH  10  12
ENDBRANCH   1   9
BRANCH   6  14
ATOM     14  C   UNL     1       2.152   7.046  20.231  0.00  0.00    +0.000 C 
ATOM     15  C   UNL     1       1.594   8.126  19.670  0.00  0.00    +0.000 C 
BRANCH  15  16
ATOM     16  C   UNL     1       0.943   9.125  20.522  0.00  0.00    +0.000 A 
ATOM     17  C   UNL     1       0.652  10.400  20.011  0.00  0.00    +0.000 A 
ATOM     18  C   UNL     1       0.097  11.387  20.829  0.00  0.00    +0.000 A 
ATOM     19  C   UNL     1      -0.164  11.093  22.163  0.00  0.00    +0.000 A 
ATOM     20  C   UNL     1       0.118   9.827  22.672  0.00  0.00    +0.000 A 
ATOM     21  C   UNL     1       0.668   8.839  21.867  0.00  0.00    +0.000 A 
BRANCH  19  22
ATOM     22  O   UNL     1      -0.693  12.018  23.020  0.00  0.00    +0.000 OA
ATOM     23  H   UNL     1      -1.472  11.622  23.450  0.00  0.00    +0.000 HD
ENDBRANCH  19  22
BRANCH  20  24
ATOM     24  O   UNL     1      -0.137   9.552  23.986  0.00  0.00    +0.000 OA
ATOM     25  H   UNL     1      -0.969  10.028  24.179  0.00  0.00    +0.000 HD
ENDBRANCH  20  24
ENDBRANCH  15  16
ENDBRANCH   6  14
TORSDOF 6
ENDMDL
