MODEL 1
REMARK VINA RESULT:      -7.2      0.000      0.000
REMARK  Name = 
REMARK  5 active torsions:
REMARK  status: ('A' for Active; 'I' for Inactive)
REMARK    1  A    between atoms: C_1  and  O_2
REMARK    2  A    between atoms: O_2  and  N_3
REMARK    3  A    between atoms: N_5  and  C_6
REMARK    4  A    between atoms: C_6  and  C_7
REMARK    5  A    between atoms: C_21  and  C_23
REMARK                            x       y       z     vdW  Elec       q    Type
REMARK                         _______ _______ _______ _____ _____    ______ ____
ROOT
ATOM      1  N   UNL     1       4.096   5.229  18.475  0.00  0.00    +0.000 N 
ATOM      2  C   UNL     1       4.437   6.132  17.491  0.00  0.00    +0.000 A 
ATOM      3  N   UNL     1       5.376   5.759  16.562  0.00  0.00    +0.000 N 
ATOM      4  N   UNL     1       3.871   7.294  17.431  0.00  0.00    +0.000 NA
ATOM      5  C   UNL     1       2.943   7.614  18.383  0.00  0.00    +0.000 A 
ATOM      6  C   UNL     1       2.589   6.830  19.422  0.00  0.00    +0.000 A 
ATOM      7  C   UNL     1       3.211   5.489  19.503  0.00  0.00    +0.000 A 
ATOM      8  O   UNL     1       2.867   4.691  20.369  0.00  0.00    +0.000 OA
ATOM      9  C   UNL     1       1.573   7.192  20.466  0.00  0.00    +0.000 C 
ATOM     10  N   UNL     1       1.141   8.593  20.318  0.00  0.00    +0.000 N 
ATOM     11  C   UNL     1       1.098   9.397  21.460  0.00  0.00    +0.000 C 
ATOM     12  O   UNL     1       1.441   8.988  22.569  0.00  0.00    +0.000 OA
ATOM     13  C   UNL     1       0.965   9.028  18.930  0.00  0.00    +0.000 C 
ATOM     14  C   UNL     1       2.276   8.942  18.171  0.00  0.00    +0.000 C 
ATOM     15  H   UNL     1       5.721   4.811  16.675  0.00  0.00    +0.000 HD
ENDROOT
BRANCH  11  16
ATOM     16  C   UNL     1       0.644  10.817  21.383  0.00  0.00    +0.000 A 
ATOM     17  C   UNL     1       1.348  11.791  20.665  0.00  0.00    +0.000 A 
ATOM     18  C   UNL     1       0.931  13.123  20.681  0.00  0.00    +0.000 A 
ATOM     19  C   UNL     1      -0.257  13.467  21.319  0.00  0.00    +0.000 A 
ATOM     20 CL   UNL     1      -0.792  15.101  21.293  0.00  0.00    +0.000 Cl
ATOM     21  C   UNL     1      -1.023  12.491  21.954  0.00  0.00    +0.000 A 
ATOM     22  C   UNL     1      -0.568  11.169  21.997  0.00  0.00    +0.000 A 
ENDBRANCH  11  16
BRANCH   1  24
ATOM     23  C   UNL     1       3.725   3.116  17.639  0.00  0.00    +0.000 C 
ATOM     24  O   UNL     1       4.642   3.932  18.368  0.00  0.00    +0.000 OA
ENDBRANCH   1  24
BRANCH   3  25
ATOM     25  C   UNL     1       5.303   6.233  15.199  0.00  0.00    +0.000 C 
BRANCH  25  26
ATOM     26  C   UNL     1       5.826   5.189  14.245  0.00  0.00    +0.000 A 
ATOM     27  C   UNL     1       4.991   4.166  13.772  0.00  0.00    +0.000 A 
ATOM     28  C   UNL     1       5.466   3.241  12.840  0.00  0.00    +0.000 A 
ATOM     29  C   UNL     1       6.777   3.331  12.377  0.00  0.00    +0.000 A 
ATOM     30 CL   UNL     1       7.353   2.198  11.217  0.00  0.00    +0.000 Cl
ATOM     31  C   UNL     1       7.621   4.338  12.841  0.00  0.00    +0.000 A 
ATOM     32  C   UNL     1       7.147   5.264  13.771  0.00  0.00    +0.000 A 
ENDBRANCH  25  26
ENDBRANCH   3  25
TORSDOF 4
ENDMDL
MODEL 2
REMARK VINA RESULT:      -6.9      8.152     11.037
REMARK  Name = 
REMARK  5 active torsions:
REMARK  status: ('A' for Active; 'I' for Inactive)
REMARK    1  A    between atoms: C_1  and  O_2
REMARK    2  A    between atoms: O_2  and  N_3
REMARK    3  A    between atoms: N_5  and  C_6
REMARK    4  A    between atoms: C_6  and  C_7
REMARK    5  A    between atoms: C_21  and  C_23
REMARK                            x       y       z     vdW  Elec       q    Type
REMARK                         _______ _______ _______ _____ _____    ______ ____
ROOT
ATOM      1  N   UNL     1       0.166  16.302  18.587  0.00  0.00    +0.000 N 
ATOM      2  C   UNL     1       0.217  14.957  18.884  0.00  0.00    +0.000 A 
ATOM      3  N   UNL     1      -0.959  14.304  19.157  0.00  0.00    +0.000 N 
ATOM      4  N   UNL     1       1.344  14.320  18.884  0.00  0.00    +0.000 NA
ATOM      5  C   UNL     1       2.485  15.020  18.606  0.00  0.00    +0.000 A 
ATOM      6  C   UNL     1       2.549  16.345  18.368  0.00  0.00    +0.000 A 
ATOM      7  C   UNL     1       1.271  17.094  18.347  0.00  0.00    +0.000 A 
ATOM      8  O   UNL     1       1.247  18.283  18.048  0.00  0.00    +0.000 OA
ATOM      9  C   UNL     1       3.807  17.106  18.070  0.00  0.00    +0.000 C 
ATOM     10  N   UNL     1       4.995  16.253  18.249  0.00  0.00    +0.000 N 
ATOM     11  C   UNL     1       6.074  16.762  18.977  0.00  0.00    +0.000 C 
ATOM     12  O   UNL     1       6.050  17.876  19.501  0.00  0.00    +0.000 OA
ATOM     13  C   UNL     1       4.829  14.878  17.770  0.00  0.00    +0.000 C 
ATOM     14  C   UNL     1       3.724  14.174  18.535  0.00  0.00    +0.000 C 
ATOM     15  H   UNL     1      -1.786  14.888  19.084  0.00  0.00    +0.000 HD
ENDROOT
BRANCH  11  16
ATOM     16  C   UNL     1       7.316  15.959  19.172  0.00  0.00    +0.000 A 
ATOM     17  C   UNL     1       8.375  15.981  18.256  0.00  0.00    +0.000 A 
ATOM     18  C   UNL     1       9.487  15.157  18.438  0.00  0.00    +0.000 A 
ATOM     19  C   UNL     1       9.598  14.393  19.596  0.00  0.00    +0.000 A 
ATOM     20 CL   UNL     1      10.993  13.417  19.838  0.00  0.00    +0.000 Cl
ATOM     21  C   UNL     1       8.599  14.435  20.566  0.00  0.00    +0.000 A 
ATOM     22  C   UNL     1       7.453  15.208  20.350  0.00  0.00    +0.000 A 
ENDBRANCH  11  16
BRANCH   1  24
ATOM     23  C   UNL     1      -1.449  17.531  19.677  0.00  0.00    +0.000 C 
ATOM     24  O   UNL     1      -1.117  16.876  18.452  0.00  0.00    +0.000 OA
ENDBRANCH   1  24
BRANCH   3  25
ATOM     25  C   UNL     1      -1.144  12.919  18.790  0.00  0.00    +0.000 C 
BRANCH  25  26
ATOM     26  C   UNL     1      -0.913  12.019  19.977  0.00  0.00    +0.000 A 
ATOM     27  C   UNL     1      -0.420  10.717  19.806  0.00  0.00    +0.000 A 
ATOM     28  C   UNL     1      -0.150   9.912  20.915  0.00  0.00    +0.000 A 
ATOM     29  C   UNL     1      -0.372  10.402  22.200  0.00  0.00    +0.000 A 
ATOM     30 CL   UNL     1      -0.023   9.413  23.564  0.00  0.00    +0.000 Cl
ATOM     31  C   UNL     1      -0.867  11.691  22.387  0.00  0.00    +0.000 A 
ATOM     32  C   UNL     1      -1.136  12.497  21.279  0.00  0.00    +0.000 A 
ENDBRANCH  25  26
ENDBRANCH   3  25
TORSDOF 4
ENDMDL
MODEL 3
REMARK VINA RESULT:      -6.9      4.757      7.471
REMARK  Name = 
REMARK  5 active torsions:
REMARK  status: ('A' for Active; 'I' for Inactive)
REMARK    1  A    between atoms: C_1  and  O_2
REMARK    2  A    between atoms: O_2  and  N_3
REMARK    3  A    between atoms: N_5  and  C_6
REMARK    4  A    between atoms: C_6  and  C_7
REMARK    5  A    between atoms: C_21  and  C_23
REMARK                            x       y       z     vdW  Elec       q    Type
REMARK                         _______ _______ _______ _____ _____    ______ ____
ROOT
ATOM      1  N   UNL     1      -2.044  10.918  18.775  0.00  0.00    +0.000 N 
ATOM      2  C   UNL     1      -0.738  10.760  19.186  0.00  0.00    +0.000 A 
ATOM      3  N   UNL     1      -0.010   9.724  18.656  0.00  0.00    +0.000 N 
ATOM      4  N   UNL     1      -0.205  11.579  20.034  0.00  0.00    +0.000 NA
ATOM      5  C   UNL     1      -0.977  12.592  20.530  0.00  0.00    +0.000 A 
ATOM      6  C   UNL     1      -2.279  12.794  20.243  0.00  0.00    +0.000 A 
ATOM      7  C   UNL     1      -2.908  11.879  19.263  0.00  0.00    +0.000 A 
ATOM      8  O   UNL     1      -4.061  12.060  18.888  0.00  0.00    +0.000 OA
ATOM      9  C   UNL     1      -3.120  13.905  20.798  0.00  0.00    +0.000 C 
ATOM     10  N   UNL     1      -2.392  14.647  21.843  0.00  0.00    +0.000 N 
ATOM     11  C   UNL     1      -3.053  14.922  23.044  0.00  0.00    +0.000 C 
ATOM     12  O   UNL     1      -4.200  14.535  23.270  0.00  0.00    +0.000 OA
ATOM     13  C   UNL     1      -0.973  14.866  21.552  0.00  0.00    +0.000 C 
ATOM     14  C   UNL     1      -0.241  13.542  21.430  0.00  0.00    +0.000 C 
ATOM     15  H   UNL     1      -0.510   9.172  17.966  0.00  0.00    +0.000 HD
ENDROOT
BRANCH  11  16
ATOM     16  C   UNL     1      -2.381  15.691  24.132  0.00  0.00    +0.000 A 
ATOM     17  C   UNL     1      -1.674  15.066  25.165  0.00  0.00    +0.000 A 
ATOM     18  C   UNL     1      -1.124  15.818  26.205  0.00  0.00    +0.000 A 
ATOM     19  C   UNL     1      -1.179  17.208  26.154  0.00  0.00    +0.000 A 
ATOM     20 CL   UNL     1      -0.457  18.131  27.413  0.00  0.00    +0.000 Cl
ATOM     21  C   UNL     1      -1.793  17.850  25.081  0.00  0.00    +0.000 A 
ATOM     22  C   UNL     1      -2.404  17.093  24.076  0.00  0.00    +0.000 A 
ENDBRANCH  11  16
BRANCH   1  24
ATOM     23  C   UNL     1      -2.366  10.791  16.497  0.00  0.00    +0.000 C 
ATOM     24  O   UNL     1      -2.491  10.080  17.730  0.00  0.00    +0.000 OA
ENDBRANCH   1  24
BRANCH   3  25
ATOM     25  C   UNL     1       1.412   9.853  18.432  0.00  0.00    +0.000 C 
BRANCH  25  26
ATOM     26  C   UNL     1       2.104   8.528  18.634  0.00  0.00    +0.000 A 
ATOM     27  C   UNL     1       1.883   7.772  19.794  0.00  0.00    +0.000 A 
ATOM     28  C   UNL     1       2.479   6.517  19.944  0.00  0.00    +0.000 A 
ATOM     29  C   UNL     1       3.300   6.014  18.938  0.00  0.00    +0.000 A 
ATOM     30 CL   UNL     1       4.020   4.462  19.121  0.00  0.00    +0.000 Cl
ATOM     31  C   UNL     1       3.535   6.755  17.782  0.00  0.00    +0.000 A 
ATOM     32  C   UNL     1       2.938   8.008  17.631  0.00  0.00    +0.000 A 
ENDBRANCH  25  26
ENDBRANCH   3  25
TORSDOF 4
ENDMDL
MODEL 4
REMARK VINA RESULT:      -6.9      1.310     10.021
REMARK  Name = 
REMARK  5 active torsions:
REMARK  status: ('A' for Active; 'I' for Inactive)
REMARK    1  A    between atoms: C_1  and  O_2
REMARK    2  A    between atoms: O_2  and  N_3
REMARK    3  A    between atoms: N_5  and  C_6
REMARK    4  A    between atoms: C_6  and  C_7
REMARK    5  A    between atoms: C_21  and  C_23
REMARK                            x       y       z     vdW  Elec       q    Type
REMARK                         _______ _______ _______ _____ _____    ______ ____
ROOT
ATOM      1  N   UNL     1       1.158   7.945  20.383  0.00  0.00    +0.000 N 
ATOM      2  C   UNL     1       1.173   8.931  19.419  0.00  0.00    +0.000 A 
ATOM      3  N   UNL     1       0.318   9.995  19.562  0.00  0.00    +0.000 N 
ATOM      4  N   UNL     1       1.989   8.866  18.417  0.00  0.00    +0.000 NA
ATOM      5  C   UNL     1       2.818   7.783  18.324  0.00  0.00    +0.000 A 
ATOM      6  C   UNL     1       2.835   6.738  19.175  0.00  0.00    +0.000 A 
ATOM      7  C   UNL     1       1.922   6.796  20.340  0.00  0.00    +0.000 A 
ATOM      8  O   UNL     1       1.950   5.923  21.201  0.00  0.00    +0.000 OA
ATOM      9  C   UNL     1       3.745   5.550  19.062  0.00  0.00    +0.000 C 
ATOM     10  N   UNL     1       4.498   5.581  17.795  0.00  0.00    +0.000 N 
ATOM     11  C   UNL     1       4.557   4.413  17.030  0.00  0.00    +0.000 C 
ATOM     12  O   UNL     1       3.974   3.379  17.358  0.00  0.00    +0.000 OA
ATOM     13  C   UNL     1       4.964   6.913  17.402  0.00  0.00    +0.000 C 
ATOM     14  C   UNL     1       3.790   7.849  17.182  0.00  0.00    +0.000 C 
ATOM     15  H   UNL     1      -0.244   9.968  20.407  0.00  0.00    +0.000 HD
ENDROOT
BRANCH  11  16
ATOM     16  C   UNL     1       5.324   4.370  15.752  0.00  0.00    +0.000 A 
ATOM     17  C   UNL     1       6.678   4.717  15.678  0.00  0.00    +0.000 A 
ATOM     18  C   UNL     1       7.339   4.737  14.448  0.00  0.00    +0.000 A 
ATOM     19  C   UNL     1       6.681   4.297  13.303  0.00  0.00    +0.000 A 
ATOM     20 CL   UNL     1       7.516   4.277  11.800  0.00  0.00    +0.000 Cl
ATOM     21  C   UNL     1       5.362   3.854  13.376  0.00  0.00    +0.000 A 
ATOM     22  C   UNL     1       4.679   3.901  14.596  0.00  0.00    +0.000 A 
ENDBRANCH  11  16
BRANCH   1  24
ATOM     23  C   UNL     1       1.096   8.985  22.438  0.00  0.00    +0.000 C 
ATOM     24  O   UNL     1       0.355   8.178  21.521  0.00  0.00    +0.000 OA
ENDBRANCH   1  24
BRANCH   3  25
ATOM     25  C   UNL     1       0.690  11.314  19.107  0.00  0.00    +0.000 C 
BRANCH  25  26
ATOM     26  C   UNL     1       0.357  12.350  20.152  0.00  0.00    +0.000 A 
ATOM     27  C   UNL     1      -0.475  12.036  21.235  0.00  0.00    +0.000 A 
ATOM     28  C   UNL     1      -0.728  12.983  22.231  0.00  0.00    +0.000 A 
ATOM     29  C   UNL     1      -0.151  14.248  22.148  0.00  0.00    +0.000 A 
ATOM     30 CL   UNL     1      -0.452  15.406  23.385  0.00  0.00    +0.000 Cl
ATOM     31  C   UNL     1       0.673  14.578  21.075  0.00  0.00    +0.000 A 
ATOM     32  C   UNL     1       0.927  13.633  20.080  0.00  0.00    +0.000 A 
ENDBRANCH  25  26
ENDBRANCH   3  25
TORSDOF 4
ENDMDL
MODEL 5
REMARK VINA RESULT:      -6.9      2.901      9.763
REMARK  Name = 
REMARK  5 active torsions:
REMARK  status: ('A' for Active; 'I' for Inactive)
REMARK    1  A    between atoms: C_1  and  O_2
REMARK    2  A    between atoms: O_2  and  N_3
REMARK    3  A    between atoms: N_5  and  C_6
REMARK    4  A    between atoms: C_6  and  C_7
REMARK    5  A    between atoms: C_21  and  C_23
REMARK                            x       y       z     vdW  Elec       q    Type
REMARK                         _______ _______ _______ _____ _____    ______ ____
ROOT
ATOM      1  N   UNL     1      -0.871  10.869  20.883  0.00  0.00    +0.000 N 
ATOM      2  C   UNL     1      -0.695  11.266  19.574  0.00  0.00    +0.000 A 
ATOM      3  N   UNL     1      -1.417  12.340  19.117  0.00  0.00    +0.000 N 
ATOM      4  N   UNL     1       0.145  10.655  18.803  0.00  0.00    +0.000 NA
ATOM      5  C   UNL     1       0.837   9.590  19.311  0.00  0.00    +0.000 A 
ATOM      6  C   UNL     1       0.689   9.084  20.552  0.00  0.00    +0.000 A 
ATOM      7  C   UNL     1      -0.255   9.776  21.459  0.00  0.00    +0.000 A 
ATOM      8  O   UNL     1      -0.370   9.425  22.629  0.00  0.00    +0.000 OA
ATOM      9  C   UNL     1       1.448   7.911  21.099  0.00  0.00    +0.000 C 
ATOM     10  N   UNL     1       2.249   7.263  20.045  0.00  0.00    +0.000 N 
ATOM     11  C   UNL     1       2.192   5.871  19.931  0.00  0.00    +0.000 C 
ATOM     12  O   UNL     1       1.473   5.178  20.652  0.00  0.00    +0.000 OA
ATOM     13  C   UNL     1       2.893   8.194  19.116  0.00  0.00    +0.000 C 
ATOM     14  C   UNL     1       1.854   9.011  18.370  0.00  0.00    +0.000 C 
ATOM     15  H   UNL     1      -2.010  12.773  19.817  0.00  0.00    +0.000 HD
ENDROOT
BRANCH  11  16
ATOM     16  C   UNL     1       2.998   5.151  18.903  0.00  0.00    +0.000 A 
ATOM     17  C   UNL     1       4.394   5.063  18.971  0.00  0.00    +0.000 A 
ATOM     18  C   UNL     1       5.116   4.446  17.947  0.00  0.00    +0.000 A 
ATOM     19  C   UNL     1       4.439   3.811  16.910  0.00  0.00    +0.000 A 
ATOM     20 CL   UNL     1       5.333   3.010  15.679  0.00  0.00    +0.000 Cl
ATOM     21  C   UNL     1       3.046   3.804  16.880  0.00  0.00    +0.000 A 
ATOM     22  C   UNL     1       2.325   4.482  17.868  0.00  0.00    +0.000 A 
ENDBRANCH  11  16
BRANCH   1  24
ATOM     23  C   UNL     1      -0.849  12.655  22.338  0.00  0.00    +0.000 C 
ATOM     24  O   UNL     1      -1.683  11.690  21.694  0.00  0.00    +0.000 OA
ENDBRANCH   1  24
BRANCH   3  25
ATOM     25  C   UNL     1      -0.866  13.240  18.130  0.00  0.00    +0.000 C 
BRANCH  25  26
ATOM     26  C   UNL     1       0.033  14.260  18.784  0.00  0.00    +0.000 A 
ATOM     27  C   UNL     1       1.427  14.124  18.737  0.00  0.00    +0.000 A 
ATOM     28  C   UNL     1       2.253  15.105  19.290  0.00  0.00    +0.000 A 
ATOM     29  C   UNL     1       1.689  16.226  19.896  0.00  0.00    +0.000 A 
ATOM     30 CL   UNL     1       2.710  17.440  20.563  0.00  0.00    +0.000 Cl
ATOM     31  C   UNL     1       0.305  16.374  19.957  0.00  0.00    +0.000 A 
ATOM     32  C   UNL     1      -0.520  15.394  19.402  0.00  0.00    +0.000 A 
ENDBRANCH  25  26
ENDBRANCH   3  25
TORSDOF 4
ENDMDL
MODEL 6
REMARK VINA RESULT:      -6.9      2.288      9.813
REMARK  Name = 
REMARK  5 active torsions:
REMARK  status: ('A' for Active; 'I' for Inactive)
REMARK    1  A    between atoms: C_1  and  O_2
REMARK    2  A    between atoms: O_2  and  N_3
REMARK    3  A    between atoms: N_5  and  C_6
REMARK    4  A    between atoms: C_6  and  C_7
REMARK    5  A    between atoms: C_21  and  C_23
REMARK                            x       y       z     vdW  Elec       q    Type
REMARK                         _______ _______ _______ _____ _____    ______ ____
ROOT
ATOM      1  N   UNL     1      -0.644  10.550  20.611  0.00  0.00    +0.000 N 
ATOM      2  C   UNL     1      -0.537  11.093  19.348  0.00  0.00    +0.000 A 
ATOM      3  N   UNL     1      -1.332  12.165  19.030  0.00  0.00    +0.000 N 
ATOM      4  N   UNL     1       0.309  10.618  18.491  0.00  0.00    +0.000 NA
ATOM      5  C   UNL     1       1.076   9.548  18.861  0.00  0.00    +0.000 A 
ATOM      6  C   UNL     1       1.001   8.906  20.044  0.00  0.00    +0.000 A 
ATOM      7  C   UNL     1       0.053   9.441  21.048  0.00  0.00    +0.000 A 
ATOM      8  O   UNL     1      -0.001   8.962  22.176  0.00  0.00    +0.000 OA
ATOM      9  C   UNL     1       1.843   7.729  20.439  0.00  0.00    +0.000 C 
ATOM     10  N   UNL     1       2.640   7.244  19.298  0.00  0.00    +0.000 N 
ATOM     11  C   UNL     1       2.657   5.871  19.037  0.00  0.00    +0.000 C 
ATOM     12  O   UNL     1       2.004   5.065  19.699  0.00  0.00    +0.000 OA
ATOM     13  C   UNL     1       3.198   8.305  18.456  0.00  0.00    +0.000 C 
ATOM     14  C   UNL     1       2.089   9.133  17.834  0.00  0.00    +0.000 C 
ATOM     15  H   UNL     1      -1.924  12.485  19.790  0.00  0.00    +0.000 HD
ENDROOT
BRANCH  11  16
ATOM     16  C   UNL     1       3.465   5.313  17.913  0.00  0.00    +0.000 A 
ATOM     17  C   UNL     1       3.339   3.986  17.486  0.00  0.00    +0.000 A 
ATOM     18  C   UNL     1       4.168   3.482  16.482  0.00  0.00    +0.000 A 
ATOM     19  C   UNL     1       5.046   4.336  15.819  0.00  0.00    +0.000 A 
ATOM     20 CL   UNL     1       6.028   3.721  14.549  0.00  0.00    +0.000 Cl
ATOM     21  C   UNL     1       5.112   5.684  16.164  0.00  0.00    +0.000 A 
ATOM     22  C   UNL     1       4.331   6.171  17.218  0.00  0.00    +0.000 A 
ENDBRANCH  11  16
BRANCH   1  24
ATOM     23  C   UNL     1      -0.671  12.177  22.242  0.00  0.00    +0.000 C 
ATOM     24  O   UNL     1      -1.471  11.232  21.530  0.00  0.00    +0.000 OA
ENDBRANCH   1  24
BRANCH   3  25
ATOM     25  C   UNL     1      -0.868  13.196  18.131  0.00  0.00    +0.000 C 
BRANCH  25  26
ATOM     26  C   UNL     1      -0.014  14.198  18.866  0.00  0.00    +0.000 A 
ATOM     27  C   UNL     1       1.376  14.224  18.690  0.00  0.00    +0.000 A 
ATOM     28  C   UNL     1       2.152  15.196  19.326  0.00  0.00    +0.000 A 
ATOM     29  C   UNL     1       1.542  16.145  20.144  0.00  0.00    +0.000 A 
ATOM     30 CL   UNL     1       2.499  17.350  20.914  0.00  0.00    +0.000 Cl
ATOM     31  C   UNL     1       0.162  16.129  20.335  0.00  0.00    +0.000 A 
ATOM     32  C   UNL     1      -0.613  15.159  19.698  0.00  0.00    +0.000 A 
ENDBRANCH  25  26
ENDBRANCH   3  25
TORSDOF 4
ENDMDL
MODEL 7
REMARK VINA RESULT:      -6.9      4.881      7.683
REMARK  Name = 
REMARK  5 active torsions:
REMARK  status: ('A' for Active; 'I' for Inactive)
REMARK    1  A    between atoms: C_1  and  O_2
REMARK    2  A    between atoms: O_2  and  N_3
REMARK    3  A    between atoms: N_5  and  C_6
REMARK    4  A    between atoms: C_6  and  C_7
REMARK    5  A    between atoms: C_21  and  C_23
REMARK                            x       y       z     vdW  Elec       q    Type
REMARK                         _______ _______ _______ _____ _____    ______ ____
ROOT
ATOM      1  N   UNL     1      -2.168  11.098  18.893  0.00  0.00    +0.000 N 
ATOM      2  C   UNL     1      -0.870  10.914  19.319  0.00  0.00    +0.000 A 
ATOM      3  N   UNL     1      -0.155   9.867  18.793  0.00  0.00    +0.000 N 
ATOM      4  N   UNL     1      -0.332  11.719  20.177  0.00  0.00    +0.000 NA
ATOM      5  C   UNL     1      -1.091  12.744  20.669  0.00  0.00    +0.000 A 
ATOM      6  C   UNL     1      -2.386  12.971  20.368  0.00  0.00    +0.000 A 
ATOM      7  C   UNL     1      -3.020  12.073  19.376  0.00  0.00    +0.000 A 
ATOM      8  O   UNL     1      -4.165  12.277  18.988  0.00  0.00    +0.000 OA
ATOM      9  C   UNL     1      -3.213  14.096  20.918  0.00  0.00    +0.000 C 
ATOM     10  N   UNL     1      -2.484  14.819  21.975  0.00  0.00    +0.000 N 
ATOM     11  C   UNL     1      -3.154  15.101  23.169  0.00  0.00    +0.000 C 
ATOM     12  O   UNL     1      -4.311  14.735  23.379  0.00  0.00    +0.000 OA
ATOM     13  C   UNL     1      -1.058  15.013  21.701  0.00  0.00    +0.000 C 
ATOM     14  C   UNL     1      -0.349  13.677  21.582  0.00  0.00    +0.000 C 
ATOM     15  H   UNL     1      -0.657   9.327  18.095  0.00  0.00    +0.000 HD
ENDROOT
BRANCH  11  16
ATOM     16  C   UNL     1      -2.481  15.853  24.268  0.00  0.00    +0.000 A 
ATOM     17  C   UNL     1      -2.575  17.244  24.391  0.00  0.00    +0.000 A 
ATOM     18  C   UNL     1      -1.868  17.917  25.389  0.00  0.00    +0.000 A 
ATOM     19  C   UNL     1      -1.158  17.191  26.341  0.00  0.00    +0.000 A 
ATOM     20 CL   UNL     1      -0.329  18.023  27.597  0.00  0.00    +0.000 Cl
ATOM     21  C   UNL     1      -1.136  15.798  26.292  0.00  0.00    +0.000 A 
ATOM     22  C   UNL     1      -1.787  15.129  25.250  0.00  0.00    +0.000 A 
ENDBRANCH  11  16
BRANCH   1  24
ATOM     23  C   UNL     1      -2.482  10.994  16.614  0.00  0.00    +0.000 C 
ATOM     24  O   UNL     1      -2.617  10.273  17.840  0.00  0.00    +0.000 OA
ENDBRANCH   1  24
BRANCH   3  25
ATOM     25  C   UNL     1       1.271   9.970  18.587  0.00  0.00    +0.000 C 
BRANCH  25  26
ATOM     26  C   UNL     1       1.927   8.618  18.717  0.00  0.00    +0.000 A 
ATOM     27  C   UNL     1       2.790   8.140  17.721  0.00  0.00    +0.000 A 
ATOM     28  C   UNL     1       3.441   6.914  17.878  0.00  0.00    +0.000 A 
ATOM     29  C   UNL     1       3.231   6.159  19.031  0.00  0.00    +0.000 A 
ATOM     30 CL   UNL     1       4.048   4.658  19.228  0.00  0.00    +0.000 Cl
ATOM     31  C   UNL     1       2.372   6.618  20.027  0.00  0.00    +0.000 A 
ATOM     32  C   UNL     1       1.722   7.843  19.871  0.00  0.00    +0.000 A 
ENDBRANCH  25  26
ENDBRANCH   3  25
TORSDOF 4
ENDMDL
MODEL 8
REMARK VINA RESULT:      -6.8      4.622      7.143
REMARK  Name = 
REMARK  5 active torsions:
REMARK  status: ('A' for Active; 'I' for Inactive)
REMARK    1  A    between atoms: C_1  and  O_2
REMARK    2  A    between atoms: O_2  and  N_3
REMARK    3  A    between atoms: N_5  and  C_6
REMARK    4  A    between atoms: C_6  and  C_7
REMARK    5  A    between atoms: C_21  and  C_23
REMARK                            x       y       z     vdW  Elec       q    Type
REMARK                         _______ _______ _______ _____ _____    ______ ____
ROOT
ATOM      1  N   UNL     1      -1.981  10.533  18.163  0.00  0.00    +0.000 N 
ATOM      2  C   UNL     1      -0.690  10.425  18.633  0.00  0.00    +0.000 A 
ATOM      3  N   UNL     1       0.108   9.431  18.123  0.00  0.00    +0.000 N 
ATOM      4  N   UNL     1      -0.234  11.253  19.518  0.00  0.00    +0.000 NA
ATOM      5  C   UNL     1      -1.073  12.222  19.992  0.00  0.00    +0.000 A 
ATOM      6  C   UNL     1      -2.367  12.371  19.646  0.00  0.00    +0.000 A 
ATOM      7  C   UNL     1      -2.908  11.447  18.624  0.00  0.00    +0.000 A 
ATOM      8  O   UNL     1      -4.050  11.583  18.198  0.00  0.00    +0.000 OA
ATOM      9  C   UNL     1      -3.282  13.436  20.177  0.00  0.00    +0.000 C 
ATOM     10  N   UNL     1      -2.638  14.191  21.266  0.00  0.00    +0.000 N 
ATOM     11  C   UNL     1      -3.366  14.416  22.438  0.00  0.00    +0.000 C 
ATOM     12  O   UNL     1      -4.503  13.976  22.603  0.00  0.00    +0.000 OA
ATOM     13  C   UNL     1      -1.218  14.477  21.046  0.00  0.00    +0.000 C 
ATOM     14  C   UNL     1      -0.423  13.189  20.939  0.00  0.00    +0.000 C 
ATOM     15  H   UNL     1      -0.334   8.869  17.403  0.00  0.00    +0.000 HD
ENDROOT
BRANCH  11  16
ATOM     16  C   UNL     1      -2.780  15.196  23.567  0.00  0.00    +0.000 A 
ATOM     17  C   UNL     1      -3.220  16.483  23.897  0.00  0.00    +0.000 A 
ATOM     18  C   UNL     1      -2.594  17.208  24.913  0.00  0.00    +0.000 A 
ATOM     19  C   UNL     1      -1.603  16.605  25.681  0.00  0.00    +0.000 A 
ATOM     20 CL   UNL     1      -0.869  17.486  26.963  0.00  0.00    +0.000 Cl
ATOM     21  C   UNL     1      -1.222  15.288  25.431  0.00  0.00    +0.000 A 
ATOM     22  C   UNL     1      -1.801  14.587  24.368  0.00  0.00    +0.000 A 
ENDBRANCH  11  16
BRANCH   1  24
ATOM     23  C   UNL     1      -2.484  10.499  15.916  0.00  0.00    +0.000 C 
ATOM     24  O   UNL     1      -2.340   9.694  17.086  0.00  0.00    +0.000 OA
ENDBRANCH   1  24
BRANCH   3  25
ATOM     25  C   UNL     1       1.531   9.625  17.969  0.00  0.00    +0.000 C 
BRANCH  25  26
ATOM     26  C   UNL     1       2.281   8.366  18.324  0.00  0.00    +0.000 A 
ATOM     27  C   UNL     1       2.009   7.680  19.517  0.00  0.00    +0.000 A 
ATOM     28  C   UNL     1       2.664   6.481  19.807  0.00  0.00    +0.000 A 
ATOM     29  C   UNL     1       3.596   5.963  18.910  0.00  0.00    +0.000 A 
ATOM     30 CL   UNL     1       4.389   4.478  19.265  0.00  0.00    +0.000 Cl
ATOM     31  C   UNL     1       3.882   6.636  17.724  0.00  0.00    +0.000 A 
ATOM     32  C   UNL     1       3.227   7.833  17.432  0.00  0.00    +0.000 A 
ENDBRANCH  25  26
ENDBRANCH   3  25
TORSDOF 4
ENDMDL
MODEL 9
REMARK VINA RESULT:      -6.8      2.782      9.858
REMARK  Name = 
REMARK  5 active torsions:
REMARK  status: ('A' for Active; 'I' for Inactive)
REMARK    1  A    between atoms: C_1  and  O_2
REMARK    2  A    between atoms: O_2  and  N_3
REMARK    3  A    between atoms: N_5  and  C_6
REMARK    4  A    between atoms: C_6  and  C_7
REMARK    5  A    between atoms: C_21  and  C_23
REMARK                            x       y       z     vdW  Elec       q    Type
REMARK                         _______ _______ _______ _____ _____    ______ ____
ROOT
ATOM      1  N   UNL     1      -0.842  10.843  20.869  0.00  0.00    +0.000 N 
ATOM      2  C   UNL     1      -0.674  11.279  19.571  0.00  0.00    +0.000 A 
ATOM      3  N   UNL     1      -1.393  12.370  19.152  0.00  0.00    +0.000 N 
ATOM      4  N   UNL     1       0.157  10.687  18.775  0.00  0.00    +0.000 NA
ATOM      5  C   UNL     1       0.847   9.604  19.245  0.00  0.00    +0.000 A 
ATOM      6  C   UNL     1       0.707   9.062  20.471  0.00  0.00    +0.000 A 
ATOM      7  C   UNL     1      -0.226   9.730  21.407  0.00  0.00    +0.000 A 
ATOM      8  O   UNL     1      -0.334   9.345  22.566  0.00  0.00    +0.000 OA
ATOM      9  C   UNL     1       1.464   7.869  20.976  0.00  0.00    +0.000 C 
ATOM     10  N   UNL     1       2.252   7.248  19.896  0.00  0.00    +0.000 N 
ATOM     11  C   UNL     1       2.188   5.861  19.741  0.00  0.00    +0.000 C 
ATOM     12  O   UNL     1       1.471   5.151  20.446  0.00  0.00    +0.000 OA
ATOM     13  C   UNL     1       2.894   8.205  18.990  0.00  0.00    +0.000 C 
ATOM     14  C   UNL     1       1.853   9.049  18.279  0.00  0.00    +0.000 C 
ATOM     15  H   UNL     1      -1.979  12.784  19.870  0.00  0.00    +0.000 HD
ENDROOT
BRANCH  11  16
ATOM     16  C   UNL     1       2.981   5.169  18.684  0.00  0.00    +0.000 A 
ATOM     17  C   UNL     1       2.406   4.258  17.791  0.00  0.00    +0.000 A 
ATOM     18  C   UNL     1       3.199   3.575  16.866  0.00  0.00    +0.000 A 
ATOM     19  C   UNL     1       4.551   3.886  16.753  0.00  0.00    +0.000 A 
ATOM     20 CL   UNL     1       5.512   3.077  15.578  0.00  0.00    +0.000 Cl
ATOM     21  C   UNL     1       5.119   4.863  17.567  0.00  0.00    +0.000 A 
ATOM     22  C   UNL     1       4.339   5.497  18.541  0.00  0.00    +0.000 A 
ENDBRANCH  11  16
BRANCH   1  24
ATOM     23  C   UNL     1      -0.794  12.565  22.398  0.00  0.00    +0.000 C 
ATOM     24  O   UNL     1      -1.643  11.644  21.711  0.00  0.00    +0.000 OA
ENDBRANCH   1  24
BRANCH   3  25
ATOM     25  C   UNL     1      -0.846  13.297  18.189  0.00  0.00    +0.000 C 
BRANCH  25  26
ATOM     26  C   UNL     1      -0.051  14.375  18.882  0.00  0.00    +0.000 A 
ATOM     27  C   UNL     1      -0.685  15.323  19.697  0.00  0.00    +0.000 A 
ATOM     28  C   UNL     1       0.066  16.280  20.384  0.00  0.00    +0.000 A 
ATOM     29  C   UNL     1       1.453  16.296  20.258  0.00  0.00    +0.000 A 
ATOM     30 CL   UNL     1       2.375  17.467  21.118  0.00  0.00    +0.000 Cl
ATOM     31  C   UNL     1       2.098  15.365  19.447  0.00  0.00    +0.000 A 
ATOM     32  C   UNL     1       1.349  14.408  18.761  0.00  0.00    +0.000 A 
ENDBRANCH  25  26
ENDBRANCH   3  25
TORSDOF 4
ENDMDL
