MODEL 1
REMARK VINA RESULT:      -7.5      0.000      0.000
REMARK  Name = 
REMARK  7 active torsions:
REMARK  status: ('A' for Active; 'I' for Inactive)
REMARK    1  A    between atoms: C_1  and  C_2
REMARK    2  A    between atoms: C_2  and  O_4
REMARK    3  A    between atoms: O_4  and  C_5
REMARK    4  A    between atoms: C_9  and  C_10
REMARK    5  A    between atoms: N_12  and  C_13
REMARK    6  A    between atoms: C_16  and  O_17
REMARK    7  A    between atoms: C_19  and  O_20
REMARK                            x       y       z     vdW  Elec       q    Type
REMARK                         _______ _______ _______ _____ _____    ______ ____
ROOT
ATOM      1  C   UNL     1       8.520   9.164  18.434  0.00  0.00    +0.000 C 
ATOM      2  O   UNL     1       7.709   9.541  17.595  0.00  0.00    +0.000 OA
ATOM      3  N   UNL     1       8.637   7.872  18.905  0.00  0.00    +0.000 N 
ATOM      4  H   UNL     1       9.196   7.686  19.732  0.00  0.00    +0.000 HD
ENDROOT
BRANCH   1   9
ATOM      5  C   UNL     1      11.097  11.885  18.910  0.00  0.00    +0.000 A 
ATOM      6  C   UNL     1      10.890  12.217  20.252  0.00  0.00    +0.000 A 
ATOM      7  C   UNL     1       9.917  11.543  20.989  0.00  0.00    +0.000 A 
ATOM      8  C   UNL     1       9.163  10.541  20.380  0.00  0.00    +0.000 A 
ATOM      9  C   UNL     1       9.398  10.190  19.042  0.00  0.00    +0.000 A 
ATOM     10  C   UNL     1      10.377  10.855  18.303  0.00  0.00    +0.000 A 
BRANCH   5  11
ATOM     11  O   UNL     1      12.110  12.605  18.244  0.00  0.00    +0.000 OA
BRANCH  11  13
ATOM     12  C   UNL     1      12.029  14.938  17.932  0.00  0.00    +0.000 C 
ATOM     13  C   UNL     1      11.781  13.594  17.317  0.00  0.00    +0.000 C 
ATOM     14  O   UNL     1      11.355  13.424  16.183  0.00  0.00    +0.000 OA
ENDBRANCH  11  13
ENDBRANCH   5  11
ENDBRANCH   1   9
BRANCH   3  15
ATOM     15  C   UNL     1       7.857   6.786  18.437  0.00  0.00    +0.000 A 
ATOM     16  C   UNL     1       7.280   6.687  17.188  0.00  0.00    +0.000 A 
ATOM     17  N   UNL     1       6.523   5.642  16.785  0.00  0.00    +0.000 NA
ATOM     18  C   UNL     1       6.356   4.682  17.693  0.00  0.00    +0.000 A 
ATOM     19  N   UNL     1       6.859   4.629  18.928  0.00  0.00    +0.000 NA
ATOM     20  C   UNL     1       7.603   5.694  19.250  0.00  0.00    +0.000 A 
BRANCH  18  21
ATOM     21  O   UNL     1       5.576   3.652  17.278  0.00  0.00    +0.000 OA
ATOM     22  H   UNL     1       6.015   2.937  17.768  0.00  0.00    +0.000 HD
ENDBRANCH  18  21
BRANCH  20  23
ATOM     23  O   UNL     1       8.091   5.643  20.522  0.00  0.00    +0.000 OA
ATOM     24  H   UNL     1       7.274   5.398  21.000  0.00  0.00    +0.000 HD
ENDBRANCH  20  23
ENDBRANCH   3  15
TORSDOF 6
ENDMDL
MODEL 2
REMARK VINA RESULT:      -7.5      4.278      7.401
REMARK  Name = 
REMARK  7 active torsions:
REMARK  status: ('A' for Active; 'I' for Inactive)
REMARK    1  A    between atoms: C_1  and  C_2
REMARK    2  A    between atoms: C_2  and  O_4
REMARK    3  A    between atoms: O_4  and  C_5
REMARK    4  A    between atoms: C_9  and  C_10
REMARK    5  A    between atoms: N_12  and  C_13
REMARK    6  A    between atoms: C_16  and  O_17
REMARK    7  A    between atoms: C_19  and  O_20
REMARK                            x       y       z     vdW  Elec       q    Type
REMARK                         _______ _______ _______ _____ _____    ______ ____
ROOT
ATOM      1  C   UNL     1       4.210   3.570  17.584  0.00  0.00    +0.000 C 
ATOM      2  O   UNL     1       3.508   2.669  17.140  0.00  0.00    +0.000 OA
ATOM      3  N   UNL     1       4.109   4.108  18.852  0.00  0.00    +0.000 N 
ATOM      4  H   UNL     1       4.592   4.974  19.072  0.00  0.00    +0.000 HD
ENDROOT
BRANCH   1   9
ATOM      5  C   UNL     1       6.951   5.747  16.162  0.00  0.00    +0.000 A 
ATOM      6  C   UNL     1       7.143   5.151  14.912  0.00  0.00    +0.000 A 
ATOM      7  C   UNL     1       6.371   4.051  14.544  0.00  0.00    +0.000 A 
ATOM      8  C   UNL     1       5.410   3.558  15.426  0.00  0.00    +0.000 A 
ATOM      9  C   UNL     1       5.198   4.180  16.666  0.00  0.00    +0.000 A 
ATOM     10  C   UNL     1       5.963   5.289  17.035  0.00  0.00    +0.000 A 
BRANCH   5  11
ATOM     11  O   UNL     1       7.763   6.863  16.447  0.00  0.00    +0.000 OA
BRANCH  11  13
ATOM     12  C   UNL     1       7.795   8.822  17.755  0.00  0.00    +0.000 C 
ATOM     13  C   UNL     1       7.895   7.326  17.756  0.00  0.00    +0.000 C 
ATOM     14  O   UNL     1       8.068   6.649  18.760  0.00  0.00    +0.000 OA
ENDBRANCH  11  13
ENDBRANCH   5  11
ENDBRANCH   1   9
BRANCH   3  15
ATOM     15  C   UNL     1       3.202   3.647  19.837  0.00  0.00    +0.000 A 
ATOM     16  C   UNL     1       1.912   4.100  20.021  0.00  0.00    +0.000 A 
ATOM     17  N   UNL     1       1.083   3.650  20.988  0.00  0.00    +0.000 NA
ATOM     18  C   UNL     1       1.598   2.714  21.784  0.00  0.00    +0.000 A 
ATOM     19  N   UNL     1       2.815   2.169  21.723  0.00  0.00    +0.000 NA
ATOM     20  C   UNL     1       3.573   2.660  20.735  0.00  0.00    +0.000 A 
BRANCH  18  21
ATOM     21  O   UNL     1       0.759   2.290  22.762  0.00  0.00    +0.000 OA
ATOM     22  H   UNL     1       0.867   3.037  23.374  0.00  0.00    +0.000 HD
ENDBRANCH  18  21
BRANCH  20  23
ATOM     23  O   UNL     1       4.823   2.116  20.697  0.00  0.00    +0.000 OA
ATOM     24  H   UNL     1       5.186   2.484  21.527  0.00  0.00    +0.000 HD
ENDBRANCH  20  23
ENDBRANCH   3  15
TORSDOF 6
ENDMDL
MODEL 3
REMARK VINA RESULT:      -7.4      5.936      9.074
REMARK  Name = 
REMARK  7 active torsions:
REMARK  status: ('A' for Active; 'I' for Inactive)
REMARK    1  A    between atoms: C_1  and  C_2
REMARK    2  A    between atoms: C_2  and  O_4
REMARK    3  A    between atoms: O_4  and  C_5
REMARK    4  A    between atoms: C_9  and  C_10
REMARK    5  A    between atoms: N_12  and  C_13
REMARK    6  A    between atoms: C_16  and  O_17
REMARK    7  A    between atoms: C_19  and  O_20
REMARK                            x       y       z     vdW  Elec       q    Type
REMARK                         _______ _______ _______ _____ _____    ______ ____
ROOT
ATOM      1  C   UNL     1       2.134   6.395  20.093  0.00  0.00    +0.000 C 
ATOM      2  O   UNL     1       1.376   5.786  20.839  0.00  0.00    +0.000 OA
ATOM      3  N   UNL     1       2.197   7.769  19.969  0.00  0.00    +0.000 N 
ATOM      4  H   UNL     1       2.710   8.182  19.196  0.00  0.00    +0.000 HD
ENDROOT
BRANCH   1   9
ATOM      5  C   UNL     1       5.102   4.557  18.649  0.00  0.00    +0.000 A 
ATOM      6  C   UNL     1       4.517   3.933  17.542  0.00  0.00    +0.000 A 
ATOM      7  C   UNL     1       3.162   4.127  17.276  0.00  0.00    +0.000 A 
ATOM      8  C   UNL     1       2.405   4.944  18.114  0.00  0.00    +0.000 A 
ATOM      9  C   UNL     1       3.005   5.593  19.203  0.00  0.00    +0.000 A 
ATOM     10  C   UNL     1       4.363   5.411  19.469  0.00  0.00    +0.000 A 
BRANCH   5  11
ATOM     11  O   UNL     1       6.479   4.319  18.836  0.00  0.00    +0.000 OA
BRANCH  11  13
ATOM     12  C   UNL     1       7.654   6.318  18.423  0.00  0.00    +0.000 C 
ATOM     13  C   UNL     1       7.419   4.903  17.987  0.00  0.00    +0.000 C 
ATOM     14  O   UNL     1       7.974   4.375  17.033  0.00  0.00    +0.000 OA
ENDBRANCH  11  13
ENDBRANCH   5  11
ENDBRANCH   1   9
BRANCH   3  15
ATOM     15  C   UNL     1       1.416   8.668  20.736  0.00  0.00    +0.000 A 
ATOM     16  C   UNL     1       1.412   8.762  22.112  0.00  0.00    +0.000 A 
ATOM     17  N   UNL     1       0.634   9.619  22.809  0.00  0.00    +0.000 NA
ATOM     18  C   UNL     1      -0.157  10.394  22.070  0.00  0.00    +0.000 A 
ATOM     19  N   UNL     1      -0.254  10.430  20.739  0.00  0.00    +0.000 NA
ATOM     20  C   UNL     1       0.552   9.559  20.120  0.00  0.00    +0.000 A 
BRANCH  18  21
ATOM     21  O   UNL     1      -0.944  11.234  22.788  0.00  0.00    +0.000 OA
ATOM     22  H   UNL     1      -1.735  11.203  22.223  0.00  0.00    +0.000 HD
ENDBRANCH  18  21
BRANCH  20  23
ATOM     23  O   UNL     1       0.428   9.584  18.762  0.00  0.00    +0.000 OA
ATOM     24  H   UNL     1      -0.075   8.756  18.629  0.00  0.00    +0.000 HD
ENDBRANCH  20  23
ENDBRANCH   3  15
TORSDOF 6
ENDMDL
MODEL 4
REMARK VINA RESULT:      -7.4      7.132      8.885
REMARK  Name = 
REMARK  7 active torsions:
REMARK  status: ('A' for Active; 'I' for Inactive)
REMARK    1  A    between atoms: C_1  and  C_2
REMARK    2  A    between atoms: C_2  and  O_4
REMARK    3  A    between atoms: O_4  and  C_5
REMARK    4  A    between atoms: C_9  and  C_10
REMARK    5  A    between atoms: N_12  and  C_13
REMARK    6  A    between atoms: C_16  and  O_17
REMARK    7  A    between atoms: C_19  and  O_20
REMARK                            x       y       z     vdW  Elec       q    Type
REMARK                         _______ _______ _______ _____ _____    ______ ____
ROOT
ATOM      1  C   UNL     1       4.408   3.730  16.893  0.00  0.00    +0.000 C 
ATOM      2  O   UNL     1       3.270   3.534  16.482  0.00  0.00    +0.000 OA
ATOM      3  N   UNL     1       4.782   3.754  18.222  0.00  0.00    +0.000 N 
ATOM      4  H   UNL     1       5.696   4.113  18.482  0.00  0.00    +0.000 HD
ENDROOT
BRANCH   1   9
ATOM      5  C   UNL     1       6.265   4.142  13.629  0.00  0.00    +0.000 A 
ATOM      6  C   UNL     1       7.422   4.798  14.061  0.00  0.00    +0.000 A 
ATOM      7  C   UNL     1       7.587   5.090  15.414  0.00  0.00    +0.000 A 
ATOM      8  C   UNL     1       6.596   4.722  16.324  0.00  0.00    +0.000 A 
ATOM      9  C   UNL     1       5.453   4.035  15.889  0.00  0.00    +0.000 A 
ATOM     10  C   UNL     1       5.288   3.731  14.537  0.00  0.00    +0.000 A 
BRANCH   5  11
ATOM     11  O   UNL     1       6.187   3.871  12.248  0.00  0.00    +0.000 OA
BRANCH  11  13
ATOM     12  C   UNL     1       4.092   3.299  11.336  0.00  0.00    +0.000 C 
ATOM     13  C   UNL     1       5.432   2.796  11.780  0.00  0.00    +0.000 C 
ATOM     14  O   UNL     1       5.778   1.623  11.730  0.00  0.00    +0.000 OA
ENDBRANCH  11  13
ENDBRANCH   5  11
ENDBRANCH   1   9
BRANCH   3  15
ATOM     15  C   UNL     1       3.896   3.501  19.298  0.00  0.00    +0.000 A 
ATOM     16  C   UNL     1       2.754   4.218  19.587  0.00  0.00    +0.000 A 
ATOM     17  N   UNL     1       1.944   3.960  20.638  0.00  0.00    +0.000 NA
ATOM     18  C   UNL     1       2.324   2.942  21.407  0.00  0.00    +0.000 A 
ATOM     19  N   UNL     1       3.388   2.151  21.249  0.00  0.00    +0.000 NA
ATOM     20  C   UNL     1       4.135   2.464  20.184  0.00  0.00    +0.000 A 
BRANCH  18  21
ATOM     21  O   UNL     1       1.511   2.711  22.468  0.00  0.00    +0.000 OA
ATOM     22  H   UNL     1       1.109   3.593  22.532  0.00  0.00    +0.000 HD
ENDBRANCH  18  21
BRANCH  20  23
ATOM     23  O   UNL     1       5.233   1.667  20.046  0.00  0.00    +0.000 OA
ATOM     24  H   UNL     1       5.276   1.617  19.070  0.00  0.00    +0.000 HD
ENDBRANCH  20  23
ENDBRANCH   3  15
TORSDOF 6
ENDMDL
MODEL 5
REMARK VINA RESULT:      -7.3      7.640      8.748
REMARK  Name = 
REMARK  7 active torsions:
REMARK  status: ('A' for Active; 'I' for Inactive)
REMARK    1  A    between atoms: C_1  and  C_2
REMARK    2  A    between atoms: C_2  and  O_4
REMARK    3  A    between atoms: O_4  and  C_5
REMARK    4  A    between atoms: C_9  and  C_10
REMARK    5  A    between atoms: N_12  and  C_13
REMARK    6  A    between atoms: C_16  and  O_17
REMARK    7  A    between atoms: C_19  and  O_20
REMARK                            x       y       z     vdW  Elec       q    Type
REMARK                         _______ _______ _______ _____ _____    ______ ____
ROOT
ATOM      1  C   UNL     1       2.634   6.746  18.742  0.00  0.00    +0.000 C 
ATOM      2  O   UNL     1       3.535   6.774  17.912  0.00  0.00    +0.000 OA
ATOM      3  N   UNL     1       2.140   5.606  19.344  0.00  0.00    +0.000 N 
ATOM      4  H   UNL     1       1.271   5.650  19.868  0.00  0.00    +0.000 HD
ENDROOT
BRANCH   1   9
ATOM      5  C   UNL     1       1.212   9.687  20.639  0.00  0.00    +0.000 A 
ATOM      6  C   UNL     1       0.861  10.539  19.587  0.00  0.00    +0.000 A 
ATOM      7  C   UNL     1       1.085  10.141  18.271  0.00  0.00    +0.000 A 
ATOM      8  C   UNL     1       1.654   8.893  18.016  0.00  0.00    +0.000 A 
ATOM      9  C   UNL     1       1.973   8.029  19.074  0.00  0.00    +0.000 A 
ATOM     10  C   UNL     1       1.741   8.420  20.394  0.00  0.00    +0.000 A 
BRANCH   5  11
ATOM     11  O   UNL     1       0.937  10.163  21.938  0.00  0.00    +0.000 OA
BRANCH  11  13
ATOM     12  C   UNL     1      -0.969  11.255  22.787  0.00  0.00    +0.000 C 
ATOM     13  C   UNL     1      -0.307   9.935  22.525  0.00  0.00    +0.000 C 
ATOM     14  O   UNL     1      -0.803   8.851  22.798  0.00  0.00    +0.000 OA
ENDBRANCH  11  13
ENDBRANCH   5  11
ENDBRANCH   1   9
BRANCH   3  15
ATOM     15  C   UNL     1       2.653   4.306  19.116  0.00  0.00    +0.000 A 
ATOM     16  C   UNL     1       3.675   3.707  19.823  0.00  0.00    +0.000 A 
ATOM     17  N   UNL     1       4.153   2.470  19.560  0.00  0.00    +0.000 NA
ATOM     18  C   UNL     1       3.565   1.841  18.545  0.00  0.00    +0.000 A 
ATOM     19  N   UNL     1       2.562   2.281  17.781  0.00  0.00    +0.000 NA
ATOM     20  C   UNL     1       2.138   3.508  18.108  0.00  0.00    +0.000 A 
BRANCH  18  21
ATOM     21  O   UNL     1       4.072   0.610  18.283  0.00  0.00    +0.000 OA
ATOM     22  H   UNL     1       4.760   0.873  17.649  0.00  0.00    +0.000 HD
ENDBRANCH  18  21
BRANCH  20  23
ATOM     23  O   UNL     1       1.132   3.959  17.306  0.00  0.00    +0.000 OA
ATOM     24  H   UNL     1       0.946   3.142  16.803  0.00  0.00    +0.000 HD
ENDBRANCH  20  23
ENDBRANCH   3  15
TORSDOF 6
ENDMDL
MODEL 6
REMARK VINA RESULT:      -7.2      7.793      8.696
REMARK  Name = 
REMARK  7 active torsions:
REMARK  status: ('A' for Active; 'I' for Inactive)
REMARK    1  A    between atoms: C_1  and  C_2
REMARK    2  A    between atoms: C_2  and  O_4
REMARK    3  A    between atoms: O_4  and  C_5
REMARK    4  A    between atoms: C_9  and  C_10
REMARK    5  A    between atoms: N_12  and  C_13
REMARK    6  A    between atoms: C_16  and  O_17
REMARK    7  A    between atoms: C_19  and  O_20
REMARK                            x       y       z     vdW  Elec       q    Type
REMARK                         _______ _______ _______ _____ _____    ______ ____
ROOT
ATOM      1  C   UNL     1       2.556   6.589  19.339  0.00  0.00    +0.000 C 
ATOM      2  O   UNL     1       3.527   6.727  18.604  0.00  0.00    +0.000 OA
ATOM      3  N   UNL     1       2.023   5.380  19.738  0.00  0.00    +0.000 N 
ATOM      4  H   UNL     1       1.111   5.354  20.184  0.00  0.00    +0.000 HD
ENDROOT
BRANCH   1   9
ATOM      5  C   UNL     1       0.760   9.913  19.344  0.00  0.00    +0.000 A 
ATOM      6  C   UNL     1       0.395  10.017  20.690  0.00  0.00    +0.000 A 
ATOM      7  C   UNL     1       0.746   9.005  21.582  0.00  0.00    +0.000 A 
ATOM      8  C   UNL     1       1.463   7.900  21.123  0.00  0.00    +0.000 A 
ATOM      9  C   UNL     1       1.855   7.817  19.778  0.00  0.00    +0.000 A 
ATOM     10  C   UNL     1       1.513   8.833  18.883  0.00  0.00    +0.000 A 
BRANCH   5  11
ATOM     11  O   UNL     1       0.377  10.987  18.515  0.00  0.00    +0.000 OA
BRANCH  11  13
ATOM     12  C   UNL     1      -1.652  10.221  17.596  0.00  0.00    +0.000 C 
ATOM     13  C   UNL     1      -0.970  11.316  18.360  0.00  0.00    +0.000 C 
ATOM     14  O   UNL     1      -1.530  12.325  18.766  0.00  0.00    +0.000 OA
ENDBRANCH  11  13
ENDBRANCH   5  11
ENDBRANCH   1   9
BRANCH   3  15
ATOM     15  C   UNL     1       2.568   4.121  19.386  0.00  0.00    +0.000 A 
ATOM     16  C   UNL     1       3.536   3.435  20.090  0.00  0.00    +0.000 A 
ATOM     17  N   UNL     1       4.048   2.244  19.709  0.00  0.00    +0.000 NA
ATOM     18  C   UNL     1       3.552   1.753  18.575  0.00  0.00    +0.000 A 
ATOM     19  N   UNL     1       2.610   2.288  17.795  0.00  0.00    +0.000 NA
ATOM     20  C   UNL     1       2.147   3.461  18.243  0.00  0.00    +0.000 A 
BRANCH  18  21
ATOM     21  O   UNL     1       4.093   0.567  18.198  0.00  0.00    +0.000 OA
ATOM     22  H   UNL     1       3.514  -0.021  18.711  0.00  0.00    +0.000 HD
ENDBRANCH  18  21
BRANCH  20  23
ATOM     23  O   UNL     1       1.204   4.013  17.426  0.00  0.00    +0.000 OA
ATOM     24  H   UNL     1       1.545   3.716  16.560  0.00  0.00    +0.000 HD
ENDBRANCH  20  23
ENDBRANCH   3  15
TORSDOF 6
ENDMDL
MODEL 7
REMARK VINA RESULT:      -7.2      6.791      8.808
REMARK  Name = 
REMARK  7 active torsions:
REMARK  status: ('A' for Active; 'I' for Inactive)
REMARK    1  A    between atoms: C_1  and  C_2
REMARK    2  A    between atoms: C_2  and  O_4
REMARK    3  A    between atoms: O_4  and  C_5
REMARK    4  A    between atoms: C_9  and  C_10
REMARK    5  A    between atoms: N_12  and  C_13
REMARK    6  A    between atoms: C_16  and  O_17
REMARK    7  A    between atoms: C_19  and  O_20
REMARK                            x       y       z     vdW  Elec       q    Type
REMARK                         _______ _______ _______ _____ _____    ______ ____
ROOT
ATOM      1  C   UNL     1       4.581   4.387  17.976  0.00  0.00    +0.000 C 
ATOM      2  O   UNL     1       4.511   5.413  18.642  0.00  0.00    +0.000 OA
ATOM      3  N   UNL     1       3.997   3.181  18.306  0.00  0.00    +0.000 N 
ATOM      4  H   UNL     1       4.263   2.338  17.805  0.00  0.00    +0.000 HD
ENDROOT
BRANCH   1   9
ATOM      5  C   UNL     1       5.717   4.237  14.376  0.00  0.00    +0.000 A 
ATOM      6  C   UNL     1       7.038   4.681  14.494  0.00  0.00    +0.000 A 
ATOM      7  C   UNL     1       7.545   5.016  15.748  0.00  0.00    +0.000 A 
ATOM      8  C   UNL     1       6.730   4.901  16.874  0.00  0.00    +0.000 A 
ATOM      9  C   UNL     1       5.417   4.424  16.753  0.00  0.00    +0.000 A 
ATOM     10  C   UNL     1       4.907   4.077  15.501  0.00  0.00    +0.000 A 
BRANCH   5  11
ATOM     11  O   UNL     1       5.291   3.905  13.074  0.00  0.00    +0.000 OA
BRANCH  11  13
ATOM     12  C   UNL     1       5.775   2.086  11.658  0.00  0.00    +0.000 C 
ATOM     13  C   UNL     1       6.205   3.443  12.126  0.00  0.00    +0.000 C 
ATOM     14  O   UNL     1       7.204   4.026  11.726  0.00  0.00    +0.000 OA
ENDBRANCH  11  13
ENDBRANCH   5  11
ENDBRANCH   1   9
BRANCH   3  15
ATOM     15  C   UNL     1       3.186   2.982  19.450  0.00  0.00    +0.000 A 
ATOM     16  C   UNL     1       3.641   2.694  20.720  0.00  0.00    +0.000 A 
ATOM     17  N   UNL     1       2.833   2.487  21.784  0.00  0.00    +0.000 NA
ATOM     18  C   UNL     1       1.529   2.578  21.529  0.00  0.00    +0.000 A 
ATOM     19  N   UNL     1       0.941   2.861  20.365  0.00  0.00    +0.000 NA
ATOM     20  C   UNL     1       1.806   3.061  19.363  0.00  0.00    +0.000 A 
BRANCH  18  21
ATOM     21  O   UNL     1       0.734   2.348  22.604  0.00  0.00    +0.000 OA
ATOM     22  H   UNL     1       0.974   1.419  22.760  0.00  0.00    +0.000 HD
ENDBRANCH  18  21
BRANCH  20  23
ATOM     23  O   UNL     1       1.196   3.324  18.172  0.00  0.00    +0.000 OA
ATOM     24  H   UNL     1       1.807   4.002  17.822  0.00  0.00    +0.000 HD
ENDBRANCH  20  23
ENDBRANCH   3  15
TORSDOF 6
ENDMDL
MODEL 8
REMARK VINA RESULT:      -7.2      7.394      8.725
REMARK  Name = 
REMARK  7 active torsions:
REMARK  status: ('A' for Active; 'I' for Inactive)
REMARK    1  A    between atoms: C_1  and  C_2
REMARK    2  A    between atoms: C_2  and  O_4
REMARK    3  A    between atoms: O_4  and  C_5
REMARK    4  A    between atoms: C_9  and  C_10
REMARK    5  A    between atoms: N_12  and  C_13
REMARK    6  A    between atoms: C_16  and  O_17
REMARK    7  A    between atoms: C_19  and  O_20
REMARK                            x       y       z     vdW  Elec       q    Type
REMARK                         _______ _______ _______ _____ _____    ______ ____
ROOT
ATOM      1  C   UNL     1       2.342   7.281  19.022  0.00  0.00    +0.000 C 
ATOM      2  O   UNL     1       2.605   7.035  17.851  0.00  0.00    +0.000 OA
ATOM      3  N   UNL     1       2.606   6.447  20.091  0.00  0.00    +0.000 N 
ATOM      4  H   UNL     1       2.184   6.639  20.995  0.00  0.00    +0.000 HD
ENDROOT
BRANCH   1   9
ATOM      5  C   UNL     1       0.839  10.254  20.804  0.00  0.00    +0.000 A 
ATOM      6  C   UNL     1       0.384  11.012  19.721  0.00  0.00    +0.000 A 
ATOM      7  C   UNL     1       0.565  10.540  18.422  0.00  0.00    +0.000 A 
ATOM      8  C   UNL     1       1.195   9.314  18.216  0.00  0.00    +0.000 A 
ATOM      9  C   UNL     1       1.621   8.542  19.308  0.00  0.00    +0.000 A 
ATOM     10  C   UNL     1       1.433   9.006  20.611  0.00  0.00    +0.000 A 
BRANCH   5  11
ATOM     11  O   UNL     1       0.602  10.798  22.083  0.00  0.00    +0.000 OA
BRANCH  11  13
ATOM     12  C   UNL     1      -1.503  11.382  22.962  0.00  0.00    +0.000 C 
ATOM     13  C   UNL     1      -0.446  10.323  22.870  0.00  0.00    +0.000 C 
ATOM     14  O   UNL     1      -0.520   9.228  23.412  0.00  0.00    +0.000 OA
ENDBRANCH  11  13
ENDBRANCH   5  11
ENDBRANCH   1   9
BRANCH   3  15
ATOM     15  C   UNL     1       3.270   5.202  19.977  0.00  0.00    +0.000 A 
ATOM     16  C   UNL     1       4.538   5.008  19.471  0.00  0.00    +0.000 A 
ATOM     17  N   UNL     1       5.131   3.798  19.357  0.00  0.00    +0.000 NA
ATOM     18  C   UNL     1       4.397   2.768  19.773  0.00  0.00    +0.000 A 
ATOM     19  N   UNL     1       3.169   2.798  20.295  0.00  0.00    +0.000 NA
ATOM     20  C   UNL     1       2.653   4.030  20.383  0.00  0.00    +0.000 A 
BRANCH  18  21
ATOM     21  O   UNL     1       4.999   1.561  19.632  0.00  0.00    +0.000 OA
ATOM     22  H   UNL     1       5.894   1.875  19.415  0.00  0.00    +0.000 HD
ENDBRANCH  18  21
BRANCH  20  23
ATOM     23  O   UNL     1       1.389   4.048  20.893  0.00  0.00    +0.000 OA
ATOM     24  H   UNL     1       1.591   3.878  21.835  0.00  0.00    +0.000 HD
ENDBRANCH  20  23
ENDBRANCH   3  15
TORSDOF 6
ENDMDL
MODEL 9
REMARK VINA RESULT:      -7.2      6.894      8.890
REMARK  Name = 
REMARK  7 active torsions:
REMARK  status: ('A' for Active; 'I' for Inactive)
REMARK    1  A    between atoms: C_1  and  C_2
REMARK    2  A    between atoms: C_2  and  O_4
REMARK    3  A    between atoms: O_4  and  C_5
REMARK    4  A    between atoms: C_9  and  C_10
REMARK    5  A    between atoms: N_12  and  C_13
REMARK    6  A    between atoms: C_16  and  O_17
REMARK    7  A    between atoms: C_19  and  O_20
REMARK                            x       y       z     vdW  Elec       q    Type
REMARK                         _______ _______ _______ _____ _____    ______ ____
ROOT
ATOM      1  C   UNL     1       4.661   4.493  16.545  0.00  0.00    +0.000 C 
ATOM      2  O   UNL     1       4.172   5.561  16.895  0.00  0.00    +0.000 OA
ATOM      3  N   UNL     1       4.387   3.267  17.116  0.00  0.00    +0.000 N 
ATOM      4  H   UNL     1       4.975   2.467  16.898  0.00  0.00    +0.000 HD
ENDROOT
BRANCH   1   9
ATOM      5  C   UNL     1       6.379   4.207  13.192  0.00  0.00    +0.000 A 
ATOM      6  C   UNL     1       7.618   4.789  13.477  0.00  0.00    +0.000 A 
ATOM      7  C   UNL     1       7.882   5.260  14.762  0.00  0.00    +0.000 A 
ATOM      8  C   UNL     1       6.907   5.143  15.752  0.00  0.00    +0.000 A 
ATOM      9  C   UNL     1       5.678   4.529  15.469  0.00  0.00    +0.000 A 
ATOM     10  C   UNL     1       5.412   4.046  14.186  0.00  0.00    +0.000 A 
BRANCH   5  11
ATOM     11  O   UNL     1       6.201   3.745  11.872  0.00  0.00    +0.000 OA
BRANCH  11  13
ATOM     12  C   UNL     1       5.875   1.451  11.446  0.00  0.00    +0.000 C 
ATOM     13  C   UNL     1       5.223   2.794  11.582  0.00  0.00    +0.000 C 
ATOM     14  O   UNL     1       4.023   2.993  11.450  0.00  0.00    +0.000 OA
ENDBRANCH  11  13
ENDBRANCH   5  11
ENDBRANCH   1   9
BRANCH   3  15
ATOM     15  C   UNL     1       3.455   3.073  18.164  0.00  0.00    +0.000 A 
ATOM     16  C   UNL     1       2.082   3.118  18.040  0.00  0.00    +0.000 A 
ATOM     17  N   UNL     1       1.223   2.950  19.070  0.00  0.00    +0.000 NA
ATOM     18  C   UNL     1       1.795   2.733  20.253  0.00  0.00    +0.000 A 
ATOM     19  N   UNL     1       3.098   2.648  20.527  0.00  0.00    +0.000 NA
ATOM     20  C   UNL     1       3.883   2.817  19.456  0.00  0.00    +0.000 A 
BRANCH  18  21
ATOM     21  O   UNL     1       0.918   2.588  21.278  0.00  0.00    +0.000 OA
ATOM     22  H   UNL     1       1.367   3.153  21.929  0.00  0.00    +0.000 HD
ENDBRANCH  18  21
BRANCH  20  23
ATOM     23  O   UNL     1       5.213   2.755  19.750  0.00  0.00    +0.000 OA
ATOM     24  H   UNL     1       5.434   3.706  19.711  0.00  0.00    +0.000 HD
ENDBRANCH  20  23
ENDBRANCH   3  15
TORSDOF 6
ENDMDL
