MODEL 1
REMARK VINA RESULT:      -8.7      0.000      0.000
REMARK  Name = 
REMARK  9 active torsions:
REMARK  status: ('A' for Active; 'I' for Inactive)
REMARK    1  A    between atoms: C_1  and  C_2
REMARK    2  A    between atoms: C_2  and  C_3
REMARK    3  A    between atoms: C_5  and  N_6
REMARK    4  A    between atoms: C_12  and  C_13
REMARK    5  A    between atoms: C_24  and  O_25
REMARK    6  A    between atoms: O_25  and  C_26
REMARK    7  A    between atoms: C_26  and  C_27
REMARK    8  A    between atoms: C_27  and  N_28
REMARK    9  A    between atoms: C_31  and  O_32
REMARK                            x       y       z     vdW  Elec       q    Type
REMARK                         _______ _______ _______ _____ _____    ______ ____
ROOT
ATOM      1  C   UNL     1       2.043   8.588  18.668  0.00  0.00    +0.000 A 
ATOM      2  C   UNL     1       2.186   7.386  19.369  0.00  0.00    +0.000 A 
ATOM      3  C   UNL     1       1.538   7.171  20.595  0.00  0.00    +0.000 A 
ATOM      4  C   UNL     1       0.755   8.195  21.135  0.00  0.00    +0.000 A 
ATOM      5  C   UNL     1       0.607   9.407  20.446  0.00  0.00    +0.000 A 
ATOM      6  C   UNL     1       1.250   9.595  19.221  0.00  0.00    +0.000 A 
ENDROOT
BRANCH   3   7
ATOM      7  N   UNL     1       1.631   5.930  21.244  0.00  0.00    +0.000 N 
ATOM      8  C   UNL     1       2.376   4.834  20.807  0.00  0.00    +0.000 A 
ATOM      9  N   UNL     1       1.998   3.620  21.235  0.00  0.00    +0.000 NA
ATOM     10  C   UNL     1       2.744   2.576  20.822  0.00  0.00    +0.000 A 
ATOM     11  C   UNL     1       3.883   2.704  20.072  0.00  0.00    +0.000 A 
ATOM     12  F   UNL     1       4.632   1.627  19.814  0.00  0.00    +0.000 F 
ATOM     13  C   UNL     1       4.214   3.988  19.699  0.00  0.00    +0.000 A 
ATOM     14  N   UNL     1       3.460   5.050  20.047  0.00  0.00    +0.000 NA
ATOM     15  H   UNL     1       1.640   5.947  22.250  0.00  0.00    +0.000 HD
BRANCH  13  16
ATOM     16  C   UNL     1       5.413   4.372  18.969  0.00  0.00    +0.000 A 
ATOM     17  C   UNL     1       6.609   4.893  19.436  0.00  0.00    +0.000 A 
ATOM     18  N   UNL     1       7.504   5.112  18.418  0.00  0.00    +0.000 NA
ATOM     19  C   UNL     1       6.858   4.769  17.326  0.00  0.00    +0.000 A 
ATOM     20  C   UNL     1       7.256   4.786  15.973  0.00  0.00    +0.000 A 
ATOM     21  C   UNL     1       6.399   4.384  15.029  0.00  0.00    +0.000 A 
ATOM     22  C   UNL     1       5.059   3.954  15.475  0.00  0.00    +0.000 A 
ATOM     23  N   UNL     1       4.629   3.939  16.692  0.00  0.00    +0.000 NA
ATOM     24  N   UNL     1       5.571   4.331  17.605  0.00  0.00    +0.000 N 
ENDBRANCH  13  16
ENDBRANCH   3   7
BRANCH   1  26
ATOM     25  C   UNL     1       3.760   7.687  17.081  0.00  0.00    +0.000 C 
ATOM     26  C   UNL     1       2.760   8.799  17.361  0.00  0.00    +0.000 C 
ENDBRANCH   1  26
BRANCH   5  27
ATOM     27  O   UNL     1      -0.152  10.355  21.083  0.00  0.00    +0.000 OA
BRANCH  27  28
ATOM     28  C   UNL     1      -0.328  11.559  20.326  0.00  0.00    +0.000 C 
BRANCH  28  29
ATOM     29  C   UNL     1      -1.825  11.822  20.132  0.00  0.00    +0.000 C 
BRANCH  29  30
ATOM     30  N   UNL     1      -2.446  11.182  18.963  0.00  0.00    +0.000 NA
ATOM     31  C   UNL     1      -1.510  11.019  17.847  0.00  0.00    +0.000 C 
ATOM     32  C   UNL     1      -2.107  10.076  16.809  0.00  0.00    +0.000 C 
ATOM     33  C   UNL     1      -3.475  10.557  16.329  0.00  0.00    +0.000 C 
ATOM     34  C   UNL     1      -4.389  10.930  17.497  0.00  0.00    +0.000 C 
ATOM     35  C   UNL     1      -3.686  11.827  18.521  0.00  0.00    +0.000 C 
BRANCH  33  36
ATOM     36  O   UNL     1      -3.327  11.664  15.439  0.00  0.00    +0.000 OA
ATOM     37  H   UNL     1      -3.730  12.448  15.845  0.00  0.00    +0.000 HD
ENDBRANCH  33  36
ENDBRANCH  29  30
ENDBRANCH  28  29
ENDBRANCH  27  28
ENDBRANCH   5  27
TORSDOF 8
ENDMDL
MODEL 2
REMARK VINA RESULT:      -8.6      4.029     10.922
REMARK  Name = 
REMARK  9 active torsions:
REMARK  status: ('A' for Active; 'I' for Inactive)
REMARK    1  A    between atoms: C_1  and  C_2
REMARK    2  A    between atoms: C_2  and  C_3
REMARK    3  A    between atoms: C_5  and  N_6
REMARK    4  A    between atoms: C_12  and  C_13
REMARK    5  A    between atoms: C_24  and  O_25
REMARK    6  A    between atoms: O_25  and  C_26
REMARK    7  A    between atoms: C_26  and  C_27
REMARK    8  A    between atoms: C_27  and  N_28
REMARK    9  A    between atoms: C_31  and  O_32
REMARK                            x       y       z     vdW  Elec       q    Type
REMARK                         _______ _______ _______ _____ _____    ______ ____
ROOT
ATOM      1  C   UNL     1      -0.044   9.779  20.819  0.00  0.00    +0.000 A 
ATOM      2  C   UNL     1      -0.695  10.319  19.706  0.00  0.00    +0.000 A 
ATOM      3  C   UNL     1      -0.258  10.051  18.399  0.00  0.00    +0.000 A 
ATOM      4  C   UNL     1       0.871   9.248  18.215  0.00  0.00    +0.000 A 
ATOM      5  C   UNL     1       1.538   8.704  19.322  0.00  0.00    +0.000 A 
ATOM      6  C   UNL     1       1.077   8.972  20.612  0.00  0.00    +0.000 A 
ENDROOT
BRANCH   3   7
ATOM      7  N   UNL     1      -0.971  10.538  17.293  0.00  0.00    +0.000 N 
ATOM      8  C   UNL     1      -2.316  10.910  17.288  0.00  0.00    +0.000 A 
ATOM      9  N   UNL     1      -2.959  10.886  16.112  0.00  0.00    +0.000 NA
ATOM     10  C   UNL     1      -4.251  11.272  16.122  0.00  0.00    +0.000 A 
ATOM     11  C   UNL     1      -4.894  11.748  17.235  0.00  0.00    +0.000 A 
ATOM     12  F   UNL     1      -6.137  12.227  17.127  0.00  0.00    +0.000 F 
ATOM     13  C   UNL     1      -4.151  11.765  18.395  0.00  0.00    +0.000 A 
ATOM     14  N   UNL     1      -2.874  11.334  18.432  0.00  0.00    +0.000 NA
ATOM     15  H   UNL     1      -0.468  11.137  16.660  0.00  0.00    +0.000 HD
BRANCH  13  16
ATOM     16  C   UNL     1      -4.597  12.295  19.674  0.00  0.00    +0.000 A 
ATOM     17  C   UNL     1      -3.979  13.196  20.527  0.00  0.00    +0.000 A 
ATOM     18  N   UNL     1      -4.741  13.451  21.640  0.00  0.00    +0.000 NA
ATOM     19  C   UNL     1      -5.801  12.687  21.502  0.00  0.00    +0.000 A 
ATOM     20  C   UNL     1      -6.927  12.509  22.333  0.00  0.00    +0.000 A 
ATOM     21  C   UNL     1      -7.888  11.655  21.967  0.00  0.00    +0.000 A 
ATOM     22  C   UNL     1      -7.694  10.928  20.696  0.00  0.00    +0.000 A 
ATOM     23  N   UNL     1      -6.678  11.029  19.908  0.00  0.00    +0.000 NA
ATOM     24  N   UNL     1      -5.752  11.945  20.330  0.00  0.00    +0.000 N 
ENDBRANCH  13  16
ENDBRANCH   3   7
BRANCH   1  26
ATOM     25  C   UNL     1      -0.801  11.578  22.390  0.00  0.00    +0.000 C 
ATOM     26  C   UNL     1      -0.524  10.093  22.211  0.00  0.00    +0.000 C 
ENDBRANCH   1  26
BRANCH   5  27
ATOM     27  O   UNL     1       2.652   7.962  19.030  0.00  0.00    +0.000 OA
BRANCH  27  28
ATOM     28  C   UNL     1       2.460   6.549  19.172  0.00  0.00    +0.000 C 
BRANCH  28  29
ATOM     29  C   UNL     1       3.242   5.817  18.077  0.00  0.00    +0.000 C 
BRANCH  29  30
ATOM     30  N   UNL     1       4.707   5.930  18.146  0.00  0.00    +0.000 NA
ATOM     31  C   UNL     1       5.353   5.662  16.859  0.00  0.00    +0.000 C 
ATOM     32  C   UNL     1       6.811   6.104  16.914  0.00  0.00    +0.000 C 
ATOM     33  C   UNL     1       7.560   5.441  18.068  0.00  0.00    +0.000 C 
ATOM     34  C   UNL     1       6.783   5.537  19.381  0.00  0.00    +0.000 C 
ATOM     35  C   UNL     1       5.314   5.133  19.217  0.00  0.00    +0.000 C 
BRANCH  33  36
ATOM     36  O   UNL     1       7.843   4.076  17.755  0.00  0.00    +0.000 OA
ATOM     37  H   UNL     1       7.080   3.696  17.290  0.00  0.00    +0.000 HD
ENDBRANCH  33  36
ENDBRANCH  29  30
ENDBRANCH  28  29
ENDBRANCH  27  28
ENDBRANCH   5  27
TORSDOF 8
ENDMDL
MODEL 3
REMARK VINA RESULT:      -8.6      0.862      1.564
REMARK  Name = 
REMARK  9 active torsions:
REMARK  status: ('A' for Active; 'I' for Inactive)
REMARK    1  A    between atoms: C_1  and  C_2
REMARK    2  A    between atoms: C_2  and  C_3
REMARK    3  A    between atoms: C_5  and  N_6
REMARK    4  A    between atoms: C_12  and  C_13
REMARK    5  A    between atoms: C_24  and  O_25
REMARK    6  A    between atoms: O_25  and  C_26
REMARK    7  A    between atoms: C_26  and  C_27
REMARK    8  A    between atoms: C_27  and  N_28
REMARK    9  A    between atoms: C_31  and  O_32
REMARK                            x       y       z     vdW  Elec       q    Type
REMARK                         _______ _______ _______ _____ _____    ______ ____
ROOT
ATOM      1  C   UNL     1       2.006   8.688  18.744  0.00  0.00    +0.000 A 
ATOM      2  C   UNL     1       2.079   7.472  19.429  0.00  0.00    +0.000 A 
ATOM      3  C   UNL     1       1.417   7.277  20.651  0.00  0.00    +0.000 A 
ATOM      4  C   UNL     1       0.690   8.336  21.202  0.00  0.00    +0.000 A 
ATOM      5  C   UNL     1       0.613   9.564  20.529  0.00  0.00    +0.000 A 
ATOM      6  C   UNL     1       1.269   9.731  19.308  0.00  0.00    +0.000 A 
ENDROOT
BRANCH   3   7
ATOM      7  N   UNL     1       1.438   6.025  21.284  0.00  0.00    +0.000 N 
ATOM      8  C   UNL     1       1.843   4.823  20.703  0.00  0.00    +0.000 A 
ATOM      9  N   UNL     1       1.367   3.688  21.235  0.00  0.00    +0.000 NA
ATOM     10  C   UNL     1       1.788   2.536  20.677  0.00  0.00    +0.000 A 
ATOM     11  C   UNL     1       2.715   2.473  19.669  0.00  0.00    +0.000 A 
ATOM     12  F   UNL     1       3.170   1.285  19.260  0.00  0.00    +0.000 F 
ATOM     13  C   UNL     1       3.172   3.685  19.199  0.00  0.00    +0.000 A 
ATOM     14  N   UNL     1       2.731   4.857  19.698  0.00  0.00    +0.000 NA
ATOM     15  H   UNL     1       1.694   6.016  22.257  0.00  0.00    +0.000 HD
BRANCH  13  16
ATOM     16  C   UNL     1       4.207   3.863  18.192  0.00  0.00    +0.000 A 
ATOM     17  C   UNL     1       4.244   3.441  16.872  0.00  0.00    +0.000 A 
ATOM     18  N   UNL     1       5.405   3.824  16.246  0.00  0.00    +0.000 NA
ATOM     19  C   UNL     1       6.098   4.441  17.177  0.00  0.00    +0.000 A 
ATOM     20  C   UNL     1       7.375   5.041  17.133  0.00  0.00    +0.000 A 
ATOM     21  C   UNL     1       7.873   5.611  18.235  0.00  0.00    +0.000 A 
ATOM     22  C   UNL     1       7.041   5.560  19.454  0.00  0.00    +0.000 A 
ATOM     23  N   UNL     1       5.881   5.006  19.563  0.00  0.00    +0.000 NA
ATOM     24  N   UNL     1       5.422   4.473  18.388  0.00  0.00    +0.000 N 
ENDBRANCH  13  16
ENDBRANCH   3   7
BRANCH   1  26
ATOM     25  C   UNL     1       3.659   7.703  17.139  0.00  0.00    +0.000 C 
ATOM     26  C   UNL     1       2.739   8.876  17.441  0.00  0.00    +0.000 C 
ENDBRANCH   1  26
BRANCH   5  27
ATOM     27  O   UNL     1      -0.094  10.544  21.175  0.00  0.00    +0.000 OA
BRANCH  27  28
ATOM     28  C   UNL     1      -0.370  11.691  20.361  0.00  0.00    +0.000 C 
BRANCH  28  29
ATOM     29  C   UNL     1      -1.885  11.833  20.181  0.00  0.00    +0.000 C 
BRANCH  29  30
ATOM     30  N   UNL     1      -2.455  11.188  18.989  0.00  0.00    +0.000 NA
ATOM     31  C   UNL     1      -1.497  11.100  17.884  0.00  0.00    +0.000 C 
ATOM     32  C   UNL     1      -2.030  10.151  16.817  0.00  0.00    +0.000 C 
ATOM     33  C   UNL     1      -3.415  10.570  16.327  0.00  0.00    +0.000 C 
ATOM     34  C   UNL     1      -4.363  10.868  17.490  0.00  0.00    +0.000 C 
ATOM     35  C   UNL     1      -3.722  11.777  18.543  0.00  0.00    +0.000 C 
BRANCH  33  36
ATOM     36  O   UNL     1      -3.313  11.703  15.464  0.00  0.00    +0.000 OA
ATOM     37  H   UNL     1      -2.605  12.282  15.789  0.00  0.00    +0.000 HD
ENDBRANCH  33  36
ENDBRANCH  29  30
ENDBRANCH  28  29
ENDBRANCH  27  28
ENDBRANCH   5  27
TORSDOF 8
ENDMDL
MODEL 4
REMARK VINA RESULT:      -8.5      3.375      9.501
REMARK  Name = 
REMARK  9 active torsions:
REMARK  status: ('A' for Active; 'I' for Inactive)
REMARK    1  A    between atoms: C_1  and  C_2
REMARK    2  A    between atoms: C_2  and  C_3
REMARK    3  A    between atoms: C_5  and  N_6
REMARK    4  A    between atoms: C_12  and  C_13
REMARK    5  A    between atoms: C_24  and  O_25
REMARK    6  A    between atoms: O_25  and  C_26
REMARK    7  A    between atoms: C_26  and  C_27
REMARK    8  A    between atoms: C_27  and  N_28
REMARK    9  A    between atoms: C_31  and  O_32
REMARK                            x       y       z     vdW  Elec       q    Type
REMARK                         _______ _______ _______ _____ _____    ______ ____
ROOT
ATOM      1  C   UNL     1       1.520   5.005  20.081  0.00  0.00    +0.000 A 
ATOM      2  C   UNL     1       1.291   6.091  20.929  0.00  0.00    +0.000 A 
ATOM      3  C   UNL     1       1.703   7.388  20.588  0.00  0.00    +0.000 A 
ATOM      4  C   UNL     1       2.382   7.587  19.383  0.00  0.00    +0.000 A 
ATOM      5  C   UNL     1       2.625   6.505  18.524  0.00  0.00    +0.000 A 
ATOM      6  C   UNL     1       2.193   5.226  18.877  0.00  0.00    +0.000 A 
ENDROOT
BRANCH   3   7
ATOM      7  N   UNL     1       1.395   8.478  21.417  0.00  0.00    +0.000 N 
ATOM      8  C   UNL     1       0.802   9.673  21.007  0.00  0.00    +0.000 A 
ATOM      9  N   UNL     1       1.009  10.758  21.767  0.00  0.00    +0.000 NA
ATOM     10  C   UNL     1       0.408  11.898  21.369  0.00  0.00    +0.000 A 
ATOM     11  C   UNL     1      -0.443  11.975  20.298  0.00  0.00    +0.000 A 
ATOM     12  F   UNL     1      -1.094  13.116  20.050  0.00  0.00    +0.000 F 
ATOM     13  C   UNL     1      -0.622  10.808  19.589  0.00  0.00    +0.000 A 
ATOM     14  N   UNL     1       0.007   9.663  19.926  0.00  0.00    +0.000 NA
ATOM     15  H   UNL     1       1.077   8.262  22.347  0.00  0.00    +0.000 HD
BRANCH  13  16
ATOM     16  C   UNL     1      -1.532  10.633  18.467  0.00  0.00    +0.000 A 
ATOM     17  C   UNL     1      -1.338   9.984  17.258  0.00  0.00    +0.000 A 
ATOM     18  N   UNL     1      -2.458  10.033  16.466  0.00  0.00    +0.000 NA
ATOM     19  C   UNL     1      -3.325  10.738  17.158  0.00  0.00    +0.000 A 
ATOM     20  C   UNL     1      -4.646  11.132  16.856  0.00  0.00    +0.000 A 
ATOM     21  C   UNL     1      -5.334  11.864  17.739  0.00  0.00    +0.000 A 
ATOM     22  C   UNL     1      -4.643  12.231  18.991  0.00  0.00    +0.000 A 
ATOM     23  N   UNL     1      -3.431  11.924  19.312  0.00  0.00    +0.000 NA
ATOM     24  N   UNL     1      -2.802  11.147  18.376  0.00  0.00    +0.000 N 
ENDBRANCH  13  16
ENDBRANCH   3   7
BRANCH   1  26
ATOM     25  C   UNL     1       1.908   3.075  21.631  0.00  0.00    +0.000 C 
ATOM     26  C   UNL     1       1.080   3.620  20.477  0.00  0.00    +0.000 C 
ENDBRANCH   1  26
BRANCH   5  27
ATOM     27  O   UNL     1       3.329   6.805  17.387  0.00  0.00    +0.000 OA
BRANCH  27  28
ATOM     28  C   UNL     1       3.903   5.661  16.743  0.00  0.00    +0.000 C 
BRANCH  28  29
ATOM     29  C   UNL     1       5.210   6.069  16.055  0.00  0.00    +0.000 C 
BRANCH  29  30
ATOM     30  N   UNL     1       6.428   5.972  16.875  0.00  0.00    +0.000 NA
ATOM     31  C   UNL     1       6.532   4.691  17.579  0.00  0.00    +0.000 C 
ATOM     32  C   UNL     1       7.940   4.526  18.138  0.00  0.00    +0.000 C 
ATOM     33  C   UNL     1       8.332   5.695  19.039  0.00  0.00    +0.000 C 
ATOM     34  C   UNL     1       8.027   7.044  18.386  0.00  0.00    +0.000 C 
ATOM     35  C   UNL     1       6.614   7.097  17.797  0.00  0.00    +0.000 C 
BRANCH  33  36
ATOM     36  O   UNL     1       7.671   5.592  20.301  0.00  0.00    +0.000 OA
ATOM     37  H   UNL     1       7.437   4.662  20.457  0.00  0.00    +0.000 HD
ENDBRANCH  33  36
ENDBRANCH  29  30
ENDBRANCH  28  29
ENDBRANCH  27  28
ENDBRANCH   5  27
TORSDOF 8
ENDMDL
MODEL 5
REMARK VINA RESULT:      -8.4      5.091      9.249
REMARK  Name = 
REMARK  9 active torsions:
REMARK  status: ('A' for Active; 'I' for Inactive)
REMARK    1  A    between atoms: C_1  and  C_2
REMARK    2  A    between atoms: C_2  and  C_3
REMARK    3  A    between atoms: C_5  and  N_6
REMARK    4  A    between atoms: C_12  and  C_13
REMARK    5  A    between atoms: C_24  and  O_25
REMARK    6  A    between atoms: O_25  and  C_26
REMARK    7  A    between atoms: C_26  and  C_27
REMARK    8  A    between atoms: C_27  and  N_28
REMARK    9  A    between atoms: C_31  and  O_32
REMARK                            x       y       z     vdW  Elec       q    Type
REMARK                         _______ _______ _______ _____ _____    ______ ____
ROOT
ATOM      1  C   UNL     1       1.010   8.745  20.612  0.00  0.00    +0.000 A 
ATOM      2  C   UNL     1       0.535   9.945  20.075  0.00  0.00    +0.000 A 
ATOM      3  C   UNL     1       0.866  10.347  18.772  0.00  0.00    +0.000 A 
ATOM      4  C   UNL     1       1.712   9.538  18.009  0.00  0.00    +0.000 A 
ATOM      5  C   UNL     1       2.201   8.335  18.537  0.00  0.00    +0.000 A 
ATOM      6  C   UNL     1       1.847   7.947  19.830  0.00  0.00    +0.000 A 
ENDROOT
BRANCH   3   7
ATOM      7  N   UNL     1       0.316  11.516  18.223  0.00  0.00    +0.000 N 
ATOM      8  C   UNL     1       0.534  12.815  18.684  0.00  0.00    +0.000 A 
ATOM      9  N   UNL     1      -0.395  13.738  18.394  0.00  0.00    +0.000 NA
ATOM     10  C   UNL     1      -0.156  14.992  18.826  0.00  0.00    +0.000 A 
ATOM     11  C   UNL     1       0.997  15.371  19.462  0.00  0.00    +0.000 A 
ATOM     12  F   UNL     1       1.205  16.661  19.744  0.00  0.00    +0.000 F 
ATOM     13  C   UNL     1       1.910  14.366  19.697  0.00  0.00    +0.000 A 
ATOM     14  N   UNL     1       1.679  13.090  19.327  0.00  0.00    +0.000 NA
ATOM     15  H   UNL     1       0.217  11.541  17.222  0.00  0.00    +0.000 HD
BRANCH  13  16
ATOM     16  C   UNL     1       3.228  14.545  20.285  0.00  0.00    +0.000 A 
ATOM     17  C   UNL     1       3.603  14.623  21.617  0.00  0.00    +0.000 A 
ATOM     18  N   UNL     1       4.959  14.783  21.758  0.00  0.00    +0.000 NA
ATOM     19  C   UNL     1       5.418  14.844  20.527  0.00  0.00    +0.000 A 
ATOM     20  C   UNL     1       6.730  15.012  20.038  0.00  0.00    +0.000 A 
ATOM     21  C   UNL     1       6.942  15.046  18.717  0.00  0.00    +0.000 A 
ATOM     22  C   UNL     1       5.759  14.916  17.843  0.00  0.00    +0.000 A 
ATOM     23  N   UNL     1       4.535  14.785  18.231  0.00  0.00    +0.000 NA
ATOM     24  N   UNL     1       4.400  14.725  19.592  0.00  0.00    +0.000 N 
ENDBRANCH  13  16
ENDBRANCH   3   7
BRANCH   1  26
ATOM     25  C   UNL     1       0.142   9.525  22.829  0.00  0.00    +0.000 C 
ATOM     26  C   UNL     1       0.651   8.343  22.018  0.00  0.00    +0.000 C 
ENDBRANCH   1  26
BRANCH   5  27
ATOM     27  O   UNL     1       3.051   7.637  17.718  0.00  0.00    +0.000 OA
BRANCH  27  28
ATOM     28  C   UNL     1       3.722   6.552  18.370  0.00  0.00    +0.000 C 
BRANCH  28  29
ATOM     29  C   UNL     1       3.526   5.270  17.554  0.00  0.00    +0.000 C 
BRANCH  29  30
ATOM     30  N   UNL     1       3.003   4.110  18.292  0.00  0.00    +0.000 NA
ATOM     31  C   UNL     1       1.562   3.925  18.102  0.00  0.00    +0.000 C 
ATOM     32  C   UNL     1       1.149   2.551  18.615  0.00  0.00    +0.000 C 
ATOM     33  C   UNL     1       1.554   2.345  20.073  0.00  0.00    +0.000 C 
ATOM     34  C   UNL     1       3.010   2.740  20.320  0.00  0.00    +0.000 C 
ATOM     35  C   UNL     1       3.352   4.106  19.716  0.00  0.00    +0.000 C 
BRANCH  33  36
ATOM     36  O   UNL     1       0.685   3.080  20.937  0.00  0.00    +0.000 OA
ATOM     37  H   UNL     1       1.187   3.366  21.717  0.00  0.00    +0.000 HD
ENDBRANCH  33  36
ENDBRANCH  29  30
ENDBRANCH  28  29
ENDBRANCH  27  28
ENDBRANCH   5  27
TORSDOF 8
ENDMDL
MODEL 6
REMARK VINA RESULT:      -8.4      5.165      9.547
REMARK  Name = 
REMARK  9 active torsions:
REMARK  status: ('A' for Active; 'I' for Inactive)
REMARK    1  A    between atoms: C_1  and  C_2
REMARK    2  A    between atoms: C_2  and  C_3
REMARK    3  A    between atoms: C_5  and  N_6
REMARK    4  A    between atoms: C_12  and  C_13
REMARK    5  A    between atoms: C_24  and  O_25
REMARK    6  A    between atoms: O_25  and  C_26
REMARK    7  A    between atoms: C_26  and  C_27
REMARK    8  A    between atoms: C_27  and  N_28
REMARK    9  A    between atoms: C_31  and  O_32
REMARK                            x       y       z     vdW  Elec       q    Type
REMARK                         _______ _______ _______ _____ _____    ______ ____
ROOT
ATOM      1  C   UNL     1       0.590   8.842  20.962  0.00  0.00    +0.000 A 
ATOM      2  C   UNL     1       0.185  10.012  20.313  0.00  0.00    +0.000 A 
ATOM      3  C   UNL     1       0.673  10.351  19.042  0.00  0.00    +0.000 A 
ATOM      4  C   UNL     1       1.605   9.510  18.428  0.00  0.00    +0.000 A 
ATOM      5  C   UNL     1       2.025   8.336  19.070  0.00  0.00    +0.000 A 
ATOM      6  C   UNL     1       1.516   8.011  20.329  0.00  0.00    +0.000 A 
ENDROOT
BRANCH   3   7
ATOM      7  N   UNL     1       0.196  11.489  18.373  0.00  0.00    +0.000 N 
ATOM      8  C   UNL     1       0.454  12.813  18.729  0.00  0.00    +0.000 A 
ATOM      9  N   UNL     1      -0.422  13.744  18.324  0.00  0.00    +0.000 NA
ATOM     10  C   UNL     1      -0.143  15.021  18.656  0.00  0.00    +0.000 A 
ATOM     11  C   UNL     1       1.003  15.406  19.302  0.00  0.00    +0.000 A 
ATOM     12  F   UNL     1       1.258  16.706  19.479  0.00  0.00    +0.000 F 
ATOM     13  C   UNL     1       1.861  14.389  19.658  0.00  0.00    +0.000 A 
ATOM     14  N   UNL     1       1.587  13.096  19.391  0.00  0.00    +0.000 NA
ATOM     15  H   UNL     1       0.133  11.430  17.371  0.00  0.00    +0.000 HD
BRANCH  13  16
ATOM     16  C   UNL     1       3.164  14.565  20.280  0.00  0.00    +0.000 A 
ATOM     17  C   UNL     1       3.503  14.661  21.621  0.00  0.00    +0.000 A 
ATOM     18  N   UNL     1       4.856  14.810  21.797  0.00  0.00    +0.000 NA
ATOM     19  C   UNL     1       5.349  14.846  20.579  0.00  0.00    +0.000 A 
ATOM     20  C   UNL     1       6.676  14.994  20.123  0.00  0.00    +0.000 A 
ATOM     21  C   UNL     1       6.925  15.005  18.809  0.00  0.00    +0.000 A 
ATOM     22  C   UNL     1       5.765  14.873  17.904  0.00  0.00    +0.000 A 
ATOM     23  N   UNL     1       4.530  14.760  18.259  0.00  0.00    +0.000 NA
ATOM     24  N   UNL     1       4.356  14.723  19.617  0.00  0.00    +0.000 N 
ENDBRANCH  13  16
ENDBRANCH   3   7
BRANCH   1  26
ATOM     25  C   UNL     1      -0.271   9.761  23.129  0.00  0.00    +0.000 C 
ATOM     26  C   UNL     1       0.063   8.508  22.333  0.00  0.00    +0.000 C 
ENDBRANCH   1  26
BRANCH   5  27
ATOM     27  O   UNL     1       2.967   7.603  18.396  0.00  0.00    +0.000 OA
BRANCH  27  28
ATOM     28  C   UNL     1       2.687   6.199  18.355  0.00  0.00    +0.000 C 
BRANCH  28  29
ATOM     29  C   UNL     1       3.781   5.440  19.113  0.00  0.00    +0.000 C 
BRANCH  29  30
ATOM     30  N   UNL     1       4.885   4.913  18.296  0.00  0.00    +0.000 NA
ATOM     31  C   UNL     1       6.158   5.585  18.569  0.00  0.00    +0.000 C 
ATOM     32  C   UNL     1       7.300   4.792  17.944  0.00  0.00    +0.000 C 
ATOM     33  C   UNL     1       7.088   4.577  16.447  0.00  0.00    +0.000 C 
ATOM     34  C   UNL     1       5.679   4.072  16.139  0.00  0.00    +0.000 C 
ATOM     35  C   UNL     1       4.599   4.887  16.858  0.00  0.00    +0.000 C 
BRANCH  33  36
ATOM     36  O   UNL     1       7.352   5.785  15.731  0.00  0.00    +0.000 OA
ATOM     37  H   UNL     1       6.530   6.297  15.666  0.00  0.00    +0.000 HD
ENDBRANCH  33  36
ENDBRANCH  29  30
ENDBRANCH  28  29
ENDBRANCH  27  28
ENDBRANCH   5  27
TORSDOF 8
ENDMDL
MODEL 7
REMARK VINA RESULT:      -8.3      4.092     10.921
REMARK  Name = 
REMARK  9 active torsions:
REMARK  status: ('A' for Active; 'I' for Inactive)
REMARK    1  A    between atoms: C_1  and  C_2
REMARK    2  A    between atoms: C_2  and  C_3
REMARK    3  A    between atoms: C_5  and  N_6
REMARK    4  A    between atoms: C_12  and  C_13
REMARK    5  A    between atoms: C_24  and  O_25
REMARK    6  A    between atoms: O_25  and  C_26
REMARK    7  A    between atoms: C_26  and  C_27
REMARK    8  A    between atoms: C_27  and  N_28
REMARK    9  A    between atoms: C_31  and  O_32
REMARK                            x       y       z     vdW  Elec       q    Type
REMARK                         _______ _______ _______ _____ _____    ______ ____
ROOT
ATOM      1  C   UNL     1       0.044   9.563  20.729  0.00  0.00    +0.000 A 
ATOM      2  C   UNL     1      -0.733  10.169  19.738  0.00  0.00    +0.000 A 
ATOM      3  C   UNL     1      -0.392  10.075  18.380  0.00  0.00    +0.000 A 
ATOM      4  C   UNL     1       0.767   9.381  18.020  0.00  0.00    +0.000 A 
ATOM      5  C   UNL     1       1.559   8.773  19.004  0.00  0.00    +0.000 A 
ATOM      6  C   UNL     1       1.193   8.867  20.348  0.00  0.00    +0.000 A 
ENDROOT
BRANCH   3   7
ATOM      7  N   UNL     1      -1.226  10.624  17.394  0.00  0.00    +0.000 N 
ATOM      8  C   UNL     1      -2.527  11.087  17.591  0.00  0.00    +0.000 A 
ATOM      9  N   UNL     1      -3.339  11.122  16.524  0.00  0.00    +0.000 NA
ATOM     10  C   UNL     1      -4.585  11.595  16.728  0.00  0.00    +0.000 A 
ATOM     11  C   UNL     1      -5.020  12.099  17.925  0.00  0.00    +0.000 A 
ATOM     12  F   UNL     1      -6.229  12.663  18.007  0.00  0.00    +0.000 F 
ATOM     13  C   UNL     1      -4.114  12.050  18.962  0.00  0.00    +0.000 A 
ATOM     14  N   UNL     1      -2.878  11.533  18.807  0.00  0.00    +0.000 NA
ATOM     15  H   UNL     1      -0.782  11.196  16.695  0.00  0.00    +0.000 HD
BRANCH  13  16
ATOM     16  C   UNL     1      -4.326  12.593  20.294  0.00  0.00    +0.000 A 
ATOM     17  C   UNL     1      -3.501  13.390  21.072  0.00  0.00    +0.000 A 
ATOM     18  N   UNL     1      -4.078  13.702  22.278  0.00  0.00    +0.000 NA
ATOM     19  C   UNL     1      -5.233  13.073  22.267  0.00  0.00    +0.000 A 
ATOM     20  C   UNL     1      -6.257  13.007  23.235  0.00  0.00    +0.000 A 
ATOM     21  C   UNL     1      -7.354  12.283  22.985  0.00  0.00    +0.000 A 
ATOM     22  C   UNL     1      -7.412  11.575  21.691  0.00  0.00    +0.000 A 
ATOM     23  N   UNL     1      -6.499  11.577  20.779  0.00  0.00    +0.000 NA
ATOM     24  N   UNL     1      -5.423  12.364  21.090  0.00  0.00    +0.000 N 
ENDBRANCH  13  16
ENDBRANCH   3   7
BRANCH   1  26
ATOM     25  C   UNL     1      -0.717  11.118  22.540  0.00  0.00    +0.000 C 
ATOM     26  C   UNL     1      -0.336   9.690  22.181  0.00  0.00    +0.000 C 
ENDBRANCH   1  26
BRANCH   5  27
ATOM     27  O   UNL     1       2.690   8.150  18.544  0.00  0.00    +0.000 OA
BRANCH  27  28
ATOM     28  C   UNL     1       2.563   6.727  18.436  0.00  0.00    +0.000 C 
BRANCH  28  29
ATOM     29  C   UNL     1       3.778   6.057  19.086  0.00  0.00    +0.000 C 
BRANCH  29  30
ATOM     30  N   UNL     1       4.727   5.412  18.167  0.00  0.00    +0.000 NA
ATOM     31  C   UNL     1       6.121   5.581  18.587  0.00  0.00    +0.000 C 
ATOM     32  C   UNL     1       7.015   4.636  17.793  0.00  0.00    +0.000 C 
ATOM     33  C   UNL     1       6.853   4.835  16.288  0.00  0.00    +0.000 C 
ATOM     34  C   UNL     1       5.382   4.868  15.873  0.00  0.00    +0.000 C 
ATOM     35  C   UNL     1       4.549   5.795  16.763  0.00  0.00    +0.000 C 
BRANCH  33  36
ATOM     36  O   UNL     1       7.516   6.030  15.872  0.00  0.00    +0.000 OA
ATOM     37  H   UNL     1       6.848   6.707  15.676  0.00  0.00    +0.000 HD
ENDBRANCH  33  36
ENDBRANCH  29  30
ENDBRANCH  28  29
ENDBRANCH  27  28
ENDBRANCH   5  27
TORSDOF 8
ENDMDL
MODEL 8
REMARK VINA RESULT:      -8.3      3.740     10.507
REMARK  Name = 
REMARK  9 active torsions:
REMARK  status: ('A' for Active; 'I' for Inactive)
REMARK    1  A    between atoms: C_1  and  C_2
REMARK    2  A    between atoms: C_2  and  C_3
REMARK    3  A    between atoms: C_5  and  N_6
REMARK    4  A    between atoms: C_12  and  C_13
REMARK    5  A    between atoms: C_24  and  O_25
REMARK    6  A    between atoms: O_25  and  C_26
REMARK    7  A    between atoms: C_26  and  C_27
REMARK    8  A    between atoms: C_27  and  N_28
REMARK    9  A    between atoms: C_31  and  O_32
REMARK                            x       y       z     vdW  Elec       q    Type
REMARK                         _______ _______ _______ _____ _____    ______ ____
ROOT
ATOM      1  C   UNL     1      -0.195  10.054  21.372  0.00  0.00    +0.000 A 
ATOM      2  C   UNL     1      -0.690  10.659  20.214  0.00  0.00    +0.000 A 
ATOM      3  C   UNL     1      -0.220  10.300  18.941  0.00  0.00    +0.000 A 
ATOM      4  C   UNL     1       0.785   9.334  18.839  0.00  0.00    +0.000 A 
ATOM      5  C   UNL     1       1.295   8.723  19.993  0.00  0.00    +0.000 A 
ATOM      6  C   UNL     1       0.803   9.085  21.248  0.00  0.00    +0.000 A 
ENDROOT
BRANCH   3   7
ATOM      7  N   UNL     1      -0.784  10.863  17.786  0.00  0.00    +0.000 N 
ATOM      8  C   UNL     1      -2.142  11.100  17.574  0.00  0.00    +0.000 A 
ATOM      9  N   UNL     1      -2.566  11.175  16.303  0.00  0.00    +0.000 NA
ATOM     10  C   UNL     1      -3.877  11.429  16.117  0.00  0.00    +0.000 A 
ATOM     11  C   UNL     1      -4.754  11.685  17.138  0.00  0.00    +0.000 A 
ATOM     12  F   UNL     1      -6.008  12.052  16.858  0.00  0.00    +0.000 F 
ATOM     13  C   UNL     1      -4.230  11.615  18.411  0.00  0.00    +0.000 A 
ATOM     14  N   UNL     1      -2.937  11.308  18.635  0.00  0.00    +0.000 NA
ATOM     15  H   UNL     1      -0.255  11.588  17.333  0.00  0.00    +0.000 HD
BRANCH  13  16
ATOM     16  C   UNL     1      -4.950  11.920  19.637  0.00  0.00    +0.000 A 
ATOM     17  C   UNL     1      -6.135  11.393  20.127  0.00  0.00    +0.000 A 
ATOM     18  N   UNL     1      -6.477  11.943  21.338  0.00  0.00    +0.000 NA
ATOM     19  C   UNL     1      -5.538  12.830  21.579  0.00  0.00    +0.000 A 
ATOM     20  C   UNL     1      -5.358  13.714  22.664  0.00  0.00    +0.000 A 
ATOM     21  C   UNL     1      -4.304  14.537  22.676  0.00  0.00    +0.000 A 
ATOM     22  C   UNL     1      -3.389  14.475  21.519  0.00  0.00    +0.000 A 
ATOM     23  N   UNL     1      -3.513  13.708  20.489  0.00  0.00    +0.000 NA
ATOM     24  N   UNL     1      -4.594  12.871  20.562  0.00  0.00    +0.000 N 
ENDBRANCH  13  16
ENDBRANCH   3   7
BRANCH   1  26
ATOM     25  C   UNL     1      -1.083  11.940  22.762  0.00  0.00    +0.000 C 
ATOM     26  C   UNL     1      -0.706  10.466  22.728  0.00  0.00    +0.000 C 
ENDBRANCH   1  26
BRANCH   5  27
ATOM     27  O   UNL     1       2.302   7.817  19.781  0.00  0.00    +0.000 OA
BRANCH  27  28
ATOM     28  C   UNL     1       2.426   7.399  18.416  0.00  0.00    +0.000 C 
BRANCH  28  29
ATOM     29  C   UNL     1       3.483   6.294  18.318  0.00  0.00    +0.000 C 
BRANCH  29  30
ATOM     30  N   UNL     1       3.035   4.939  18.672  0.00  0.00    +0.000 NA
ATOM     31  C   UNL     1       1.732   4.607  18.089  0.00  0.00    +0.000 C 
ATOM     32  C   UNL     1       1.478   3.110  18.218  0.00  0.00    +0.000 C 
ATOM     33  C   UNL     1       1.580   2.642  19.668  0.00  0.00    +0.000 C 
ATOM     34  C   UNL     1       2.846   3.165  20.347  0.00  0.00    +0.000 C 
ATOM     35  C   UNL     1       3.053   4.665  20.112  0.00  0.00    +0.000 C 
BRANCH  33  36
ATOM     36  O   UNL     1       0.420   3.040  20.400  0.00  0.00    +0.000 OA
ATOM     37  H   UNL     1       0.609   3.877  20.855  0.00  0.00    +0.000 HD
ENDBRANCH  33  36
ENDBRANCH  29  30
ENDBRANCH  28  29
ENDBRANCH  27  28
ENDBRANCH   5  27
TORSDOF 8
ENDMDL
MODEL 9
REMARK VINA RESULT:      -8.3      2.963      3.966
REMARK  Name = 
REMARK  9 active torsions:
REMARK  status: ('A' for Active; 'I' for Inactive)
REMARK    1  A    between atoms: C_1  and  C_2
REMARK    2  A    between atoms: C_2  and  C_3
REMARK    3  A    between atoms: C_5  and  N_6
REMARK    4  A    between atoms: C_12  and  C_13
REMARK    5  A    between atoms: C_24  and  O_25
REMARK    6  A    between atoms: O_25  and  C_26
REMARK    7  A    between atoms: C_26  and  C_27
REMARK    8  A    between atoms: C_27  and  N_28
REMARK    9  A    between atoms: C_31  and  O_32
REMARK                            x       y       z     vdW  Elec       q    Type
REMARK                         _______ _______ _______ _____ _____    ______ ____
ROOT
ATOM      1  C   UNL     1       1.246  10.008  19.609  0.00  0.00    +0.000 A 
ATOM      2  C   UNL     1       1.407   8.646  19.879  0.00  0.00    +0.000 A 
ATOM      3  C   UNL     1       1.066   8.101  21.127  0.00  0.00    +0.000 A 
ATOM      4  C   UNL     1       0.579   8.949  22.125  0.00  0.00    +0.000 A 
ATOM      5  C   UNL     1       0.419  10.318  21.871  0.00  0.00    +0.000 A 
ATOM      6  C   UNL     1       0.751  10.837  20.618  0.00  0.00    +0.000 A 
ENDROOT
BRANCH   3   7
ATOM      7  N   UNL     1       1.161   6.719  21.353  0.00  0.00    +0.000 N 
ATOM      8  C   UNL     1       1.718   5.785  20.478  0.00  0.00    +0.000 A 
ATOM      9  N   UNL     1       1.315   4.512  20.596  0.00  0.00    +0.000 NA
ATOM     10  C   UNL     1       1.882   3.619  19.759  0.00  0.00    +0.000 A 
ATOM     11  C   UNL     1       2.879   3.934  18.873  0.00  0.00    +0.000 A 
ATOM     12  F   UNL     1       3.472   2.964  18.171  0.00  0.00    +0.000 F 
ATOM     13  C   UNL     1       3.252   5.260  18.836  0.00  0.00    +0.000 A 
ATOM     14  N   UNL     1       2.667   6.188  19.620  0.00  0.00    +0.000 NA
ATOM     15  H   UNL     1       1.348   6.428  22.297  0.00  0.00    +0.000 HD
BRANCH  13  16
ATOM     16  C   UNL     1       4.333   5.810  18.034  0.00  0.00    +0.000 A 
ATOM     17  C   UNL     1       4.316   6.307  16.740  0.00  0.00    +0.000 A 
ATOM     18  N   UNL     1       5.555   6.748  16.345  0.00  0.00    +0.000 NA
ATOM     19  C   UNL     1       6.341   6.492  17.367  0.00  0.00    +0.000 A 
ATOM     20  C   UNL     1       7.723   6.712  17.546  0.00  0.00    +0.000 A 
ATOM     21  C   UNL     1       8.304   6.354  18.697  0.00  0.00    +0.000 A 
ATOM     22  C   UNL     1       7.442   5.725  19.718  0.00  0.00    +0.000 A 
ATOM     23  N   UNL     1       6.181   5.476  19.603  0.00  0.00    +0.000 NA
ATOM     24  N   UNL     1       5.650   5.900  18.414  0.00  0.00    +0.000 N 
ENDBRANCH  13  16
ENDBRANCH   3   7
BRANCH   1  26
ATOM     25  C   UNL     1       1.997  12.046  18.359  0.00  0.00    +0.000 C 
ATOM     26  C   UNL     1       1.633  10.572  18.267  0.00  0.00    +0.000 C 
ENDBRANCH   1  26
BRANCH   5  27
ATOM     27  O   UNL     1      -0.030  11.063  22.930  0.00  0.00    +0.000 OA
BRANCH  27  28
ATOM     28  C   UNL     1      -1.433  10.922  23.183  0.00  0.00    +0.000 C 
BRANCH  28  29
ATOM     29  C   UNL     1      -2.124  12.276  22.990  0.00  0.00    +0.000 C 
BRANCH  29  30
ATOM     30  N   UNL     1      -3.580  12.293  23.194  0.00  0.00    +0.000 NA
ATOM     31  C   UNL     1      -4.267  13.201  22.272  0.00  0.00    +0.000 C 
ATOM     32  C   UNL     1      -5.767  12.935  22.312  0.00  0.00    +0.000 C 
ATOM     33  C   UNL     1      -6.324  13.045  23.729  0.00  0.00    +0.000 C 
ATOM     34  C   UNL     1      -5.481  12.262  24.735  0.00  0.00    +0.000 C 
ATOM     35  C   UNL     1      -3.983  12.544  24.581  0.00  0.00    +0.000 C 
BRANCH  33  36
ATOM     36  O   UNL     1      -6.419  14.416  24.119  0.00  0.00    +0.000 OA
ATOM     37  H   UNL     1      -5.525  14.760  24.275  0.00  0.00    +0.000 HD
ENDBRANCH  33  36
ENDBRANCH  29  30
ENDBRANCH  28  29
ENDBRANCH  27  28
ENDBRANCH   5  27
TORSDOF 8
ENDMDL
