MODEL 1
REMARK VINA RESULT:      -8.2      0.000      0.000
REMARK  Name = 
REMARK  9 active torsions:
REMARK  status: ('A' for Active; 'I' for Inactive)
REMARK    1  A    between atoms: C_1  and  C_2
REMARK    2  A    between atoms: C_5  and  C_6
REMARK    3  A    between atoms: C_6  and  N_7
REMARK    4  A    between atoms: C_11  and  O_12
REMARK    5  A    between atoms: O_12  and  C_13
REMARK    6  A    between atoms: C_13  and  C_14
REMARK    7  A    between atoms: N_16  and  C_17
REMARK    8  A    between atoms: C_21  and  C_22
REMARK    9  A    between atoms: C_23  and  C_24
REMARK                            x       y       z     vdW  Elec       q    Type
REMARK                         _______ _______ _______ _____ _____    ______ ____
ROOT
ATOM      1  N   UNL     1       1.550   8.651  19.661  0.00  0.00    +0.000 N 
ATOM      2  C   UNL     1       1.235   9.201  20.979  0.00  0.00    +0.000 C 
ATOM      3  C   UNL     1       0.218  10.375  21.016  0.00  0.00    +0.000 C 
ATOM      4  C   UNL     1      -0.590  10.564  19.757  0.00  0.00    +0.000 A 
ATOM      5  C   UNL     1      -1.750  11.350  19.665  0.00  0.00    +0.000 A 
ATOM      6  C   UNL     1      -2.461  11.419  18.449  0.00  0.00    +0.000 A 
ATOM      7  C   UNL     1      -2.075  10.677  17.343  0.00  0.00    +0.000 A 
ATOM      8  C   UNL     1      -0.901   9.958  17.405  0.00  0.00    +0.000 A 
ATOM      9  C   UNL     1      -0.145   9.963  18.577  0.00  0.00    +0.000 A 
ATOM     10  C   UNL     1       1.160   9.306  18.519  0.00  0.00    +0.000 C 
ATOM     11  O   UNL     1       1.785   9.314  17.464  0.00  0.00    +0.000 OA
ENDROOT
BRANCH   1  12
ATOM     12  C   UNL     1       2.599   7.648  19.509  0.00  0.00    +0.000 C 
BRANCH  12  17
ATOM     13  C   UNL     1       0.833   2.123  18.882  0.00  0.00    +0.000 C 
ATOM     14  C   UNL     1       1.217   3.560  19.074  0.00  0.00    +0.000 A 
ATOM     15  C   UNL     1       1.163   4.175  20.330  0.00  0.00    +0.000 A 
ATOM     16  C   UNL     1       1.605   5.496  20.496  0.00  0.00    +0.000 A 
ATOM     17  C   UNL     1       2.129   6.215  19.412  0.00  0.00    +0.000 A 
ATOM     18  C   UNL     1       2.109   5.613  18.145  0.00  0.00    +0.000 A 
ATOM     19  C   UNL     1       1.670   4.299  17.978  0.00  0.00    +0.000 A 
ENDBRANCH  12  17
ENDBRANCH   1  12
BRANCH   5  20
ATOM     20  O   UNL     1      -2.134  12.054  20.779  0.00  0.00    +0.000 OA
BRANCH  20  21
ATOM     21  C   UNL     1      -2.453  13.427  20.527  0.00  0.00    +0.000 C 
BRANCH  21  22
ATOM     22  C   UNL     1      -1.219  14.314  20.510  0.00  0.00    +0.000 C 
ATOM     23  O   UNL     1      -0.651  14.604  21.551  0.00  0.00    +0.000 OA
ATOM     24  N   UNL     1      -0.866  14.663  19.221  0.00  0.00    +0.000 N 
ATOM     25  H   UNL     1      -1.576  14.474  18.525  0.00  0.00    +0.000 HD
BRANCH  24  26
ATOM     26  C   UNL     1       0.252  15.425  18.840  0.00  0.00    +0.000 A 
ATOM     27  C   UNL     1       0.120  16.796  18.586  0.00  0.00    +0.000 A 
ATOM     28  C   UNL     1       1.195  17.538  18.122  0.00  0.00    +0.000 A 
ATOM     29  C   UNL     1       2.416  16.913  17.909  0.00  0.00    +0.000 A 
ATOM     30  C   UNL     1       2.589  15.548  18.187  0.00  0.00    +0.000 A 
ATOM     31  C   UNL     1       3.936  14.936  17.912  0.00  0.00    +0.000 C 
ATOM     32  C   UNL     1       1.506  14.790  18.687  0.00  0.00    +0.000 A 
ATOM     33  C   UNL     1       1.663  13.328  19.030  0.00  0.00    +0.000 C 
ENDBRANCH  24  26
ENDBRANCH  21  22
ENDBRANCH  20  21
ENDBRANCH   5  20
TORSDOF 6
ENDMDL
MODEL 2
REMARK VINA RESULT:      -8.1      3.146      5.854
REMARK  Name = 
REMARK  9 active torsions:
REMARK  status: ('A' for Active; 'I' for Inactive)
REMARK    1  A    between atoms: C_1  and  C_2
REMARK    2  A    between atoms: C_5  and  C_6
REMARK    3  A    between atoms: C_6  and  N_7
REMARK    4  A    between atoms: C_11  and  O_12
REMARK    5  A    between atoms: O_12  and  C_13
REMARK    6  A    between atoms: C_13  and  C_14
REMARK    7  A    between atoms: N_16  and  C_17
REMARK    8  A    between atoms: C_21  and  C_22
REMARK    9  A    between atoms: C_23  and  C_24
REMARK                            x       y       z     vdW  Elec       q    Type
REMARK                         _______ _______ _______ _____ _____    ______ ____
ROOT
ATOM      1  N   UNL     1       2.884   6.878  19.185  0.00  0.00    +0.000 N 
ATOM      2  C   UNL     1       2.756   7.655  17.952  0.00  0.00    +0.000 C 
ATOM      3  C   UNL     1       1.701   8.796  17.959  0.00  0.00    +0.000 C 
ATOM      4  C   UNL     1       1.203   9.202  19.323  0.00  0.00    +0.000 A 
ATOM      5  C   UNL     1       0.490  10.382  19.592  0.00  0.00    +0.000 A 
ATOM      6  C   UNL     1       0.114  10.693  20.916  0.00  0.00    +0.000 A 
ATOM      7  C   UNL     1       0.483   9.885  21.980  0.00  0.00    +0.000 A 
ATOM      8  C   UNL     1       1.123   8.692  21.716  0.00  0.00    +0.000 A 
ATOM      9  C   UNL     1       1.413   8.337  20.399  0.00  0.00    +0.000 A 
ATOM     10  C   UNL     1       1.951   6.995  20.185  0.00  0.00    +0.000 C 
ATOM     11  O   UNL     1       1.604   6.086  20.933  0.00  0.00    +0.000 OA
ENDROOT
BRANCH   1  12
ATOM     12  C   UNL     1       3.740   5.697  19.228  0.00  0.00    +0.000 C 
BRANCH  12  17
ATOM     13  C   UNL     1       6.953   4.788  14.443  0.00  0.00    +0.000 C 
ATOM     14  C   UNL     1       6.065   5.033  15.627  0.00  0.00    +0.000 A 
ATOM     15  C   UNL     1       4.913   4.270  15.854  0.00  0.00    +0.000 A 
ATOM     16  C   UNL     1       4.145   4.466  17.012  0.00  0.00    +0.000 A 
ATOM     17  C   UNL     1       4.530   5.412  17.972  0.00  0.00    +0.000 A 
ATOM     18  C   UNL     1       5.644   6.221  17.697  0.00  0.00    +0.000 A 
ATOM     19  C   UNL     1       6.408   6.027  16.547  0.00  0.00    +0.000 A 
ENDBRANCH  12  17
ENDBRANCH   1  12
BRANCH   5  20
ATOM     20  O   UNL     1       0.159  11.185  18.529  0.00  0.00    +0.000 OA
BRANCH  20  21
ATOM     21  C   UNL     1      -0.859  12.150  18.814  0.00  0.00    +0.000 C 
BRANCH  21  22
ATOM     22  C   UNL     1      -2.257  11.601  18.586  0.00  0.00    +0.000 C 
ATOM     23  O   UNL     1      -2.419  10.543  17.998  0.00  0.00    +0.000 OA
ATOM     24  N   UNL     1      -3.219  12.418  19.150  0.00  0.00    +0.000 N 
ATOM     25  H   UNL     1      -2.884  13.334  19.423  0.00  0.00    +0.000 HD
BRANCH  24  26
ATOM     26  C   UNL     1      -4.604  12.180  19.175  0.00  0.00    +0.000 A 
ATOM     27  C   UNL     1      -5.277  11.807  18.006  0.00  0.00    +0.000 A 
ATOM     28  C   UNL     1      -6.656  11.659  17.999  0.00  0.00    +0.000 A 
ATOM     29  C   UNL     1      -7.373  11.882  19.166  0.00  0.00    +0.000 A 
ATOM     30  C   UNL     1      -6.724  12.224  20.362  0.00  0.00    +0.000 A 
ATOM     31  C   UNL     1      -7.570  12.470  21.581  0.00  0.00    +0.000 C 
ATOM     32  C   UNL     1      -5.316  12.349  20.385  0.00  0.00    +0.000 A 
ATOM     33  C   UNL     1      -4.579  12.682  21.660  0.00  0.00    +0.000 C 
ENDBRANCH  24  26
ENDBRANCH  21  22
ENDBRANCH  20  21
ENDBRANCH   5  20
TORSDOF 6
ENDMDL
MODEL 3
REMARK VINA RESULT:      -7.8      3.057      5.491
REMARK  Name = 
REMARK  9 active torsions:
REMARK  status: ('A' for Active; 'I' for Inactive)
REMARK    1  A    between atoms: C_1  and  C_2
REMARK    2  A    between atoms: C_5  and  C_6
REMARK    3  A    between atoms: C_6  and  N_7
REMARK    4  A    between atoms: C_11  and  O_12
REMARK    5  A    between atoms: O_12  and  C_13
REMARK    6  A    between atoms: C_13  and  C_14
REMARK    7  A    between atoms: N_16  and  C_17
REMARK    8  A    between atoms: C_21  and  C_22
REMARK    9  A    between atoms: C_23  and  C_24
REMARK                            x       y       z     vdW  Elec       q    Type
REMARK                         _______ _______ _______ _____ _____    ______ ____
ROOT
ATOM      1  N   UNL     1       3.407   6.607  18.913  0.00  0.00    +0.000 N 
ATOM      2  C   UNL     1       3.271   7.482  17.749  0.00  0.00    +0.000 C 
ATOM      3  C   UNL     1       2.112   8.517  17.792  0.00  0.00    +0.000 C 
ATOM      4  C   UNL     1       1.504   8.745  19.153  0.00  0.00    +0.000 A 
ATOM      5  C   UNL     1       0.668   9.825  19.481  0.00  0.00    +0.000 A 
ATOM      6  C   UNL     1       0.192   9.972  20.801  0.00  0.00    +0.000 A 
ATOM      7  C   UNL     1       0.579   9.104  21.810  0.00  0.00    +0.000 A 
ATOM      8  C   UNL     1       1.344   8.005  21.480  0.00  0.00    +0.000 A 
ATOM      9  C   UNL     1       1.738   7.804  20.158  0.00  0.00    +0.000 A 
ATOM     10  C   UNL     1       2.413   6.543  19.859  0.00  0.00    +0.000 C 
ATOM     11  O   UNL     1       2.115   5.540  20.500  0.00  0.00    +0.000 OA
ENDROOT
BRANCH   1  12
ATOM     12  C   UNL     1       4.368   5.509  18.905  0.00  0.00    +0.000 C 
BRANCH  12  17
ATOM     13  C   UNL     1       7.062   4.549  13.818  0.00  0.00    +0.000 C 
ATOM     14  C   UNL     1       6.434   4.770  15.162  0.00  0.00    +0.000 A 
ATOM     15  C   UNL     1       7.027   5.594  16.126  0.00  0.00    +0.000 A 
ATOM     16  C   UNL     1       6.378   5.849  17.344  0.00  0.00    +0.000 A 
ATOM     17  C   UNL     1       5.115   5.301  17.607  0.00  0.00    +0.000 A 
ATOM     18  C   UNL     1       4.565   4.418  16.665  0.00  0.00    +0.000 A 
ATOM     19  C   UNL     1       5.208   4.165  15.454  0.00  0.00    +0.000 A 
ENDBRANCH  12  17
ENDBRANCH   1  12
BRANCH   5  20
ATOM     20  O   UNL     1       0.320  10.692  18.475  0.00  0.00    +0.000 OA
BRANCH  20  21
ATOM     21  C   UNL     1      -0.073  11.991  18.928  0.00  0.00    +0.000 C 
BRANCH  21  22
ATOM     22  C   UNL     1      -1.536  12.044  19.337  0.00  0.00    +0.000 C 
ATOM     23  O   UNL     1      -2.384  11.465  18.678  0.00  0.00    +0.000 OA
ATOM     24  N   UNL     1      -1.708  12.765  20.503  0.00  0.00    +0.000 N 
ATOM     25  H   UNL     1      -0.905  13.316  20.780  0.00  0.00    +0.000 HD
BRANCH  24  26
ATOM     26  C   UNL     1      -2.919  12.964  21.190  0.00  0.00    +0.000 A 
ATOM     27  C   UNL     1      -3.970  13.658  20.579  0.00  0.00    +0.000 A 
ATOM     28  C   UNL     1      -5.134  13.940  21.278  0.00  0.00    +0.000 A 
ATOM     29  C   UNL     1      -5.256  13.525  22.597  0.00  0.00    +0.000 A 
ATOM     30  C   UNL     1      -4.234  12.796  23.226  0.00  0.00    +0.000 A 
ATOM     31  C   UNL     1      -4.430  12.399  24.663  0.00  0.00    +0.000 C 
ATOM     32  C   UNL     1      -3.056  12.481  22.511  0.00  0.00    +0.000 A 
ATOM     33  C   UNL     1      -1.949  11.671  23.142  0.00  0.00    +0.000 C 
ENDBRANCH  24  26
ENDBRANCH  21  22
ENDBRANCH  20  21
ENDBRANCH   5  20
TORSDOF 6
ENDMDL
MODEL 4
REMARK VINA RESULT:      -7.7      3.250      5.756
REMARK  Name = 
REMARK  9 active torsions:
REMARK  status: ('A' for Active; 'I' for Inactive)
REMARK    1  A    between atoms: C_1  and  C_2
REMARK    2  A    between atoms: C_5  and  C_6
REMARK    3  A    between atoms: C_6  and  N_7
REMARK    4  A    between atoms: C_11  and  O_12
REMARK    5  A    between atoms: O_12  and  C_13
REMARK    6  A    between atoms: C_13  and  C_14
REMARK    7  A    between atoms: N_16  and  C_17
REMARK    8  A    between atoms: C_21  and  C_22
REMARK    9  A    between atoms: C_23  and  C_24
REMARK                            x       y       z     vdW  Elec       q    Type
REMARK                         _______ _______ _______ _____ _____    ______ ____
ROOT
ATOM      1  N   UNL     1       3.868   6.227  18.552  0.00  0.00    +0.000 N 
ATOM      2  C   UNL     1       3.895   7.315  17.575  0.00  0.00    +0.000 C 
ATOM      3  C   UNL     1       2.758   8.369  17.680  0.00  0.00    +0.000 C 
ATOM      4  C   UNL     1       1.988   8.356  18.976  0.00  0.00    +0.000 A 
ATOM      5  C   UNL     1       1.135   9.385  19.408  0.00  0.00    +0.000 A 
ATOM      6  C   UNL     1       0.499   9.295  20.664  0.00  0.00    +0.000 A 
ATOM      7  C   UNL     1       0.742   8.233  21.521  0.00  0.00    +0.000 A 
ATOM      8  C   UNL     1       1.523   7.187  21.077  0.00  0.00    +0.000 A 
ATOM      9  C   UNL     1       2.077   7.229  19.798  0.00  0.00    +0.000 A 
ATOM     10  C   UNL     1       2.763   6.023  19.340  0.00  0.00    +0.000 C 
ATOM     11  O   UNL     1       2.369   4.928  19.731  0.00  0.00    +0.000 OA
ENDROOT
BRANCH   1  12
ATOM     12  C   UNL     1       4.804   5.113  18.443  0.00  0.00    +0.000 C 
BRANCH  12  17
ATOM     13  C   UNL     1       7.017   4.109  13.138  0.00  0.00    +0.000 C 
ATOM     14  C   UNL     1       6.388   4.404  14.467  0.00  0.00    +0.000 A 
ATOM     15  C   UNL     1       5.084   3.998  14.772  0.00  0.00    +0.000 A 
ATOM     16  C   UNL     1       4.550   4.215  16.051  0.00  0.00    +0.000 A 
ATOM     17  C   UNL     1       5.320   4.822  17.052  0.00  0.00    +0.000 A 
ATOM     18  C   UNL     1       6.598   5.292  16.714  0.00  0.00    +0.000 A 
ATOM     19  C   UNL     1       7.131   5.076  15.442  0.00  0.00    +0.000 A 
ENDBRANCH  12  17
ENDBRANCH   1  12
BRANCH   5  20
ATOM     20  O   UNL     1       0.931  10.444  18.557  0.00  0.00    +0.000 OA
BRANCH  20  21
ATOM     21  C   UNL     1       0.487  11.641  19.204  0.00  0.00    +0.000 C 
BRANCH  21  22
ATOM     22  C   UNL     1      -0.793  12.187  18.595  0.00  0.00    +0.000 C 
ATOM     23  O   UNL     1      -0.755  13.114  17.801  0.00  0.00    +0.000 OA
ATOM     24  N   UNL     1      -1.900  11.483  19.031  0.00  0.00    +0.000 N 
ATOM     25  H   UNL     1      -1.729  10.881  19.827  0.00  0.00    +0.000 HD
BRANCH  24  26
ATOM     26  C   UNL     1      -3.230  11.685  18.623  0.00  0.00    +0.000 A 
ATOM     27  C   UNL     1      -3.654  11.253  17.361  0.00  0.00    +0.000 A 
ATOM     28  C   UNL     1      -4.938  11.528  16.912  0.00  0.00    +0.000 A 
ATOM     29  C   UNL     1      -5.809  12.236  17.727  0.00  0.00    +0.000 A 
ATOM     30  C   UNL     1      -5.425  12.652  19.012  0.00  0.00    +0.000 A 
ATOM     31  C   UNL     1      -6.417  13.433  19.829  0.00  0.00    +0.000 C 
ATOM     32  C   UNL     1      -4.128  12.352  19.487  0.00  0.00    +0.000 A 
ATOM     33  C   UNL     1      -3.689  12.752  20.876  0.00  0.00    +0.000 C 
ENDBRANCH  24  26
ENDBRANCH  21  22
ENDBRANCH  20  21
ENDBRANCH   5  20
TORSDOF 6
ENDMDL
MODEL 5
REMARK VINA RESULT:      -7.6      2.882      4.308
REMARK  Name = 
REMARK  9 active torsions:
REMARK  status: ('A' for Active; 'I' for Inactive)
REMARK    1  A    between atoms: C_1  and  C_2
REMARK    2  A    between atoms: C_5  and  C_6
REMARK    3  A    between atoms: C_6  and  N_7
REMARK    4  A    between atoms: C_11  and  O_12
REMARK    5  A    between atoms: O_12  and  C_13
REMARK    6  A    between atoms: C_13  and  C_14
REMARK    7  A    between atoms: N_16  and  C_17
REMARK    8  A    between atoms: C_21  and  C_22
REMARK    9  A    between atoms: C_23  and  C_24
REMARK                            x       y       z     vdW  Elec       q    Type
REMARK                         _______ _______ _______ _____ _____    ______ ____
ROOT
ATOM      1  N   UNL     1       2.910   6.878  19.125  0.00  0.00    +0.000 N 
ATOM      2  C   UNL     1       2.800   7.699  17.919  0.00  0.00    +0.000 C 
ATOM      3  C   UNL     1       1.754   8.847  17.955  0.00  0.00    +0.000 C 
ATOM      4  C   UNL     1       1.244   9.208  19.328  0.00  0.00    +0.000 A 
ATOM      5  C   UNL     1       0.537  10.383  19.631  0.00  0.00    +0.000 A 
ATOM      6  C   UNL     1       0.148  10.649  20.961  0.00  0.00    +0.000 A 
ATOM      7  C   UNL     1       0.501   9.802  22.000  0.00  0.00    +0.000 A 
ATOM      8  C   UNL     1       1.134   8.614  21.700  0.00  0.00    +0.000 A 
ATOM      9  C   UNL     1       1.436   8.304  20.375  0.00  0.00    +0.000 A 
ATOM     10  C   UNL     1       1.967   6.966  20.119  0.00  0.00    +0.000 C 
ATOM     11  O   UNL     1       1.605   6.034  20.831  0.00  0.00    +0.000 OA
ENDROOT
BRANCH   1  12
ATOM     12  C   UNL     1       3.756   5.689  19.136  0.00  0.00    +0.000 C 
BRANCH  12  17
ATOM     13  C   UNL     1       6.984   4.771  14.363  0.00  0.00    +0.000 C 
ATOM     14  C   UNL     1       6.218   4.990  15.633  0.00  0.00    +0.000 A 
ATOM     15  C   UNL     1       6.630   5.926  16.589  0.00  0.00    +0.000 A 
ATOM     16  C   UNL     1       5.851   6.170  17.730  0.00  0.00    +0.000 A 
ATOM     17  C   UNL     1       4.635   5.498  17.921  0.00  0.00    +0.000 A 
ATOM     18  C   UNL     1       4.270   4.510  16.993  0.00  0.00    +0.000 A 
ATOM     19  C   UNL     1       5.044   4.267  15.858  0.00  0.00    +0.000 A 
ENDBRANCH  12  17
ENDBRANCH   1  12
BRANCH   5  20
ATOM     20  O   UNL     1       0.224  11.226  18.594  0.00  0.00    +0.000 OA
BRANCH  20  21
ATOM     21  C   UNL     1       0.581  12.594  18.818  0.00  0.00    +0.000 C 
BRANCH  21  22
ATOM     22  C   UNL     1       2.064  12.847  18.606  0.00  0.00    +0.000 C 
ATOM     23  O   UNL     1       2.718  12.121  17.874  0.00  0.00    +0.000 OA
ATOM     24  N   UNL     1       2.488  13.968  19.295  0.00  0.00    +0.000 N 
ATOM     25  H   UNL     1       1.833  14.309  19.987  0.00  0.00    +0.000 HD
BRANCH  24  26
ATOM     26  C   UNL     1       3.782  14.519  19.275  0.00  0.00    +0.000 A 
ATOM     27  C   UNL     1       4.422  14.771  18.056  0.00  0.00    +0.000 A 
ATOM     28  C   UNL     1       5.731  15.229  18.025  0.00  0.00    +0.000 A 
ATOM     29  C   UNL     1       6.410  15.439  19.217  0.00  0.00    +0.000 A 
ATOM     30  C   UNL     1       5.784  15.228  20.455  0.00  0.00    +0.000 A 
ATOM     31  C   UNL     1       6.590  15.458  21.704  0.00  0.00    +0.000 C 
ATOM     32  C   UNL     1       4.441  14.789  20.496  0.00  0.00    +0.000 A 
ATOM     33  C   UNL     1       3.722  14.583  21.809  0.00  0.00    +0.000 C 
ENDBRANCH  24  26
ENDBRANCH  21  22
ENDBRANCH  20  21
ENDBRANCH   5  20
TORSDOF 6
ENDMDL
MODEL 6
REMARK VINA RESULT:      -7.5      3.887      6.636
REMARK  Name = 
REMARK  9 active torsions:
REMARK  status: ('A' for Active; 'I' for Inactive)
REMARK    1  A    between atoms: C_1  and  C_2
REMARK    2  A    between atoms: C_5  and  C_6
REMARK    3  A    between atoms: C_6  and  N_7
REMARK    4  A    between atoms: C_11  and  O_12
REMARK    5  A    between atoms: O_12  and  C_13
REMARK    6  A    between atoms: C_13  and  C_14
REMARK    7  A    between atoms: N_16  and  C_17
REMARK    8  A    between atoms: C_21  and  C_22
REMARK    9  A    between atoms: C_23  and  C_24
REMARK                            x       y       z     vdW  Elec       q    Type
REMARK                         _______ _______ _______ _____ _____    ______ ____
ROOT
ATOM      1  N   UNL     1       5.352   5.161  17.591  0.00  0.00    +0.000 N 
ATOM      2  C   UNL     1       5.164   6.565  17.225  0.00  0.00    +0.000 C 
ATOM      3  C   UNL     1       3.854   7.240  17.717  0.00  0.00    +0.000 C 
ATOM      4  C   UNL     1       3.117   6.497  18.804  0.00  0.00    +0.000 A 
ATOM      5  C   UNL     1       2.095   7.049  19.594  0.00  0.00    +0.000 A 
ATOM      6  C   UNL     1       1.505   6.281  20.620  0.00  0.00    +0.000 A 
ATOM      7  C   UNL     1       1.951   5.001  20.912  0.00  0.00    +0.000 A 
ATOM      8  C   UNL     1       2.905   4.430  20.097  0.00  0.00    +0.000 A 
ATOM      9  C   UNL     1       3.424   5.152  19.023  0.00  0.00    +0.000 A 
ATOM     10  C   UNL     1       4.314   4.431  18.116  0.00  0.00    +0.000 C 
ATOM     11  O   UNL     1       4.134   3.231  17.933  0.00  0.00    +0.000 OA
ENDROOT
BRANCH   1  12
ATOM     12  C   UNL     1       6.475   4.401  17.054  0.00  0.00    +0.000 C 
BRANCH  12  17
ATOM     13  C   UNL     1       6.972   4.470  11.241  0.00  0.00    +0.000 C 
ATOM     14  C   UNL     1       6.920   4.433  12.739  0.00  0.00    +0.000 A 
ATOM     15  C   UNL     1       7.776   5.212  13.526  0.00  0.00    +0.000 A 
ATOM     16  C   UNL     1       7.651   5.219  14.923  0.00  0.00    +0.000 A 
ATOM     17  C   UNL     1       6.653   4.464  15.554  0.00  0.00    +0.000 A 
ATOM     18  C   UNL     1       5.851   3.630  14.761  0.00  0.00    +0.000 A 
ATOM     19  C   UNL     1       5.973   3.622  13.371  0.00  0.00    +0.000 A 
ENDBRANCH  12  17
ENDBRANCH   1  12
BRANCH   5  20
ATOM     20  O   UNL     1       1.688   8.329  19.309  0.00  0.00    +0.000 OA
BRANCH  20  21
ATOM     21  C   UNL     1       1.446   9.139  20.464  0.00  0.00    +0.000 C 
BRANCH  21  22
ATOM     22  C   UNL     1      -0.001   9.592  20.560  0.00  0.00    +0.000 C 
ATOM     23  O   UNL     1      -0.728   9.159  21.440  0.00  0.00    +0.000 OA
ATOM     24  N   UNL     1      -0.304  10.526  19.588  0.00  0.00    +0.000 N 
ATOM     25  H   UNL     1       0.384  10.601  18.849  0.00  0.00    +0.000 HD
BRANCH  24  26
ATOM     26  C   UNL     1      -1.531  11.193  19.425  0.00  0.00    +0.000 A 
ATOM     27  C   UNL     1      -1.956  12.129  20.375  0.00  0.00    +0.000 A 
ATOM     28  C   UNL     1      -3.204  12.726  20.274  0.00  0.00    +0.000 A 
ATOM     29  C   UNL     1      -4.037  12.390  19.216  0.00  0.00    +0.000 A 
ATOM     30  C   UNL     1      -3.625  11.482  18.228  0.00  0.00    +0.000 A 
ATOM     31  C   UNL     1      -4.592  11.152  17.123  0.00  0.00    +0.000 C 
ATOM     32  C   UNL     1      -2.344  10.891  18.309  0.00  0.00    +0.000 A 
ATOM     33  C   UNL     1      -1.852   9.935  17.248  0.00  0.00    +0.000 C 
ENDBRANCH  24  26
ENDBRANCH  21  22
ENDBRANCH  20  21
ENDBRANCH   5  20
TORSDOF 6
ENDMDL
MODEL 7
REMARK VINA RESULT:      -7.5      2.576      3.683
REMARK  Name = 
REMARK  9 active torsions:
REMARK  status: ('A' for Active; 'I' for Inactive)
REMARK    1  A    between atoms: C_1  and  C_2
REMARK    2  A    between atoms: C_5  and  C_6
REMARK    3  A    between atoms: C_6  and  N_7
REMARK    4  A    between atoms: C_11  and  O_12
REMARK    5  A    between atoms: O_12  and  C_13
REMARK    6  A    between atoms: C_13  and  C_14
REMARK    7  A    between atoms: N_16  and  C_17
REMARK    8  A    between atoms: C_21  and  C_22
REMARK    9  A    between atoms: C_23  and  C_24
REMARK                            x       y       z     vdW  Elec       q    Type
REMARK                         _______ _______ _______ _____ _____    ______ ____
ROOT
ATOM      1  N   UNL     1       3.102   6.804  19.108  0.00  0.00    +0.000 N 
ATOM      2  C   UNL     1       3.004   7.666  17.930  0.00  0.00    +0.000 C 
ATOM      3  C   UNL     1       1.912   8.771  17.968  0.00  0.00    +0.000 C 
ATOM      4  C   UNL     1       1.337   9.059  19.332  0.00  0.00    +0.000 A 
ATOM      5  C   UNL     1       0.572  10.193  19.652  0.00  0.00    +0.000 A 
ATOM      6  C   UNL     1       0.124  10.392  20.974  0.00  0.00    +0.000 A 
ATOM      7  C   UNL     1       0.471   9.519  21.994  0.00  0.00    +0.000 A 
ATOM      8  C   UNL     1       1.162   8.369  21.675  0.00  0.00    +0.000 A 
ATOM      9  C   UNL     1       1.526   8.122  20.352  0.00  0.00    +0.000 A 
ATOM     10  C   UNL     1       2.119   6.817  20.067  0.00  0.00    +0.000 C 
ATOM     11  O   UNL     1       1.768   5.845  20.729  0.00  0.00    +0.000 OA
ENDROOT
BRANCH   1  12
ATOM     12  C   UNL     1       3.994   5.650  19.107  0.00  0.00    +0.000 C 
BRANCH  12  17
ATOM     13  C   UNL     1       7.094   4.823  14.233  0.00  0.00    +0.000 C 
ATOM     14  C   UNL     1       6.359   5.011  15.527  0.00  0.00    +0.000 A 
ATOM     15  C   UNL     1       6.853   5.842  16.540  0.00  0.00    +0.000 A 
ATOM     16  C   UNL     1       6.106   6.065  17.707  0.00  0.00    +0.000 A 
ATOM     17  C   UNL     1       4.843   5.477  17.869  0.00  0.00    +0.000 A 
ATOM     18  C   UNL     1       4.393   4.589  16.880  0.00  0.00    +0.000 A 
ATOM     19  C   UNL     1       5.134   4.367  15.719  0.00  0.00    +0.000 A 
ENDBRANCH  12  17
ENDBRANCH   1  12
BRANCH   5  20
ATOM     20  O   UNL     1       0.264  11.062  18.635  0.00  0.00    +0.000 OA
BRANCH  20  21
ATOM     21  C   UNL     1      -0.986  11.740  18.798  0.00  0.00    +0.000 C 
BRANCH  21  22
ATOM     22  C   UNL     1      -0.812  13.156  19.322  0.00  0.00    +0.000 C 
ATOM     23  O   UNL     1      -1.399  13.520  20.329  0.00  0.00    +0.000 OA
ATOM     24  N   UNL     1       0.079  13.875  18.548  0.00  0.00    +0.000 N 
ATOM     25  H   UNL     1       0.303  13.447  17.658  0.00  0.00    +0.000 HD
BRANCH  24  26
ATOM     26  C   UNL     1       0.512  15.192  18.782  0.00  0.00    +0.000 A 
ATOM     27  C   UNL     1      -0.342  16.271  18.524  0.00  0.00    +0.000 A 
ATOM     28  C   UNL     1       0.104  17.577  18.663  0.00  0.00    +0.000 A 
ATOM     29  C   UNL     1       1.412  17.813  19.065  0.00  0.00    +0.000 A 
ATOM     30  C   UNL     1       2.281  16.752  19.364  0.00  0.00    +0.000 A 
ATOM     31  C   UNL     1       3.690  17.086  19.773  0.00  0.00    +0.000 C 
ATOM     32  C   UNL     1       1.826  15.419  19.252  0.00  0.00    +0.000 A 
ATOM     33  C   UNL     1       2.721  14.252  19.597  0.00  0.00    +0.000 C 
ENDBRANCH  24  26
ENDBRANCH  21  22
ENDBRANCH  20  21
ENDBRANCH   5  20
TORSDOF 6
ENDMDL
MODEL 8
REMARK VINA RESULT:      -7.5      2.913      5.444
REMARK  Name = 
REMARK  9 active torsions:
REMARK  status: ('A' for Active; 'I' for Inactive)
REMARK    1  A    between atoms: C_1  and  C_2
REMARK    2  A    between atoms: C_5  and  C_6
REMARK    3  A    between atoms: C_6  and  N_7
REMARK    4  A    between atoms: C_11  and  O_12
REMARK    5  A    between atoms: O_12  and  C_13
REMARK    6  A    between atoms: C_13  and  C_14
REMARK    7  A    between atoms: N_16  and  C_17
REMARK    8  A    between atoms: C_21  and  C_22
REMARK    9  A    between atoms: C_23  and  C_24
REMARK                            x       y       z     vdW  Elec       q    Type
REMARK                         _______ _______ _______ _____ _____    ______ ____
ROOT
ATOM      1  N   UNL     1       3.015   6.832  19.127  0.00  0.00    +0.000 N 
ATOM      2  C   UNL     1       2.843   7.646  17.924  0.00  0.00    +0.000 C 
ATOM      3  C   UNL     1       1.750   8.748  17.983  0.00  0.00    +0.000 C 
ATOM      4  C   UNL     1       1.256   9.090  19.366  0.00  0.00    +0.000 A 
ATOM      5  C   UNL     1       0.507  10.234  19.685  0.00  0.00    +0.000 A 
ATOM      6  C   UNL     1       0.138  10.486  21.023  0.00  0.00    +0.000 A 
ATOM      7  C   UNL     1       0.549   9.655  22.054  0.00  0.00    +0.000 A 
ATOM      8  C   UNL     1       1.226   8.495  21.741  0.00  0.00    +0.000 A 
ATOM      9  C   UNL     1       1.510   8.196  20.409  0.00  0.00    +0.000 A 
ATOM     10  C   UNL     1       2.092   6.882  20.142  0.00  0.00    +0.000 C 
ATOM     11  O   UNL     1       1.786   5.937  20.862  0.00  0.00    +0.000 OA
ENDROOT
BRANCH   1  12
ATOM     12  C   UNL     1       3.911   5.681  19.119  0.00  0.00    +0.000 C 
BRANCH  12  17
ATOM     13  C   UNL     1       6.931   4.797  14.205  0.00  0.00    +0.000 C 
ATOM     14  C   UNL     1       6.220   5.009  15.508  0.00  0.00    +0.000 A 
ATOM     15  C   UNL     1       6.661   5.954  16.442  0.00  0.00    +0.000 A 
ATOM     16  C   UNL     1       5.931   6.190  17.617  0.00  0.00    +0.000 A 
ATOM     17  C   UNL     1       4.736   5.499  17.865  0.00  0.00    +0.000 A 
ATOM     18  C   UNL     1       4.345   4.503  16.958  0.00  0.00    +0.000 A 
ATOM     19  C   UNL     1       5.069   4.268  15.789  0.00  0.00    +0.000 A 
ENDBRANCH  12  17
ENDBRANCH   1  12
BRANCH   5  20
ATOM     20  O   UNL     1       0.134  11.061  18.654  0.00  0.00    +0.000 OA
BRANCH  20  21
ATOM     21  C   UNL     1       0.178  12.456  18.973  0.00  0.00    +0.000 C 
BRANCH  21  22
ATOM     22  C   UNL     1      -1.142  12.963  19.531  0.00  0.00    +0.000 C 
ATOM     23  O   UNL     1      -1.195  14.030  20.121  0.00  0.00    +0.000 OA
ATOM     24  N   UNL     1      -2.179  12.097  19.240  0.00  0.00    +0.000 N 
ATOM     25  H   UNL     1      -1.886  11.186  18.910  0.00  0.00    +0.000 HD
BRANCH  24  26
ATOM     26  C   UNL     1      -3.536  12.286  19.556  0.00  0.00    +0.000 A 
ATOM     27  C   UNL     1      -3.905  12.798  20.805  0.00  0.00    +0.000 A 
ATOM     28  C   UNL     1      -5.241  12.903  21.162  0.00  0.00    +0.000 A 
ATOM     29  C   UNL     1      -6.221  12.497  20.266  0.00  0.00    +0.000 A 
ATOM     30  C   UNL     1      -5.883  12.012  18.993  0.00  0.00    +0.000 A 
ATOM     31  C   UNL     1      -7.000  11.572  18.085  0.00  0.00    +0.000 C 
ATOM     32  C   UNL     1      -4.525  11.928  18.611  0.00  0.00    +0.000 A 
ATOM     33  C   UNL     1      -4.124  11.444  17.238  0.00  0.00    +0.000 C 
ENDBRANCH  24  26
ENDBRANCH  21  22
ENDBRANCH  20  21
ENDBRANCH   5  20
TORSDOF 6
ENDMDL
MODEL 9
REMARK VINA RESULT:      -7.4      3.175      8.985
REMARK  Name = 
REMARK  9 active torsions:
REMARK  status: ('A' for Active; 'I' for Inactive)
REMARK    1  A    between atoms: C_1  and  C_2
REMARK    2  A    between atoms: C_5  and  C_6
REMARK    3  A    between atoms: C_6  and  N_7
REMARK    4  A    between atoms: C_11  and  O_12
REMARK    5  A    between atoms: O_12  and  C_13
REMARK    6  A    between atoms: C_13  and  C_14
REMARK    7  A    between atoms: N_16  and  C_17
REMARK    8  A    between atoms: C_21  and  C_22
REMARK    9  A    between atoms: C_23  and  C_24
REMARK                            x       y       z     vdW  Elec       q    Type
REMARK                         _______ _______ _______ _____ _____    ______ ____
ROOT
ATOM      1  N   UNL     1      -0.250  11.490  20.833  0.00  0.00    +0.000 N 
ATOM      2  C   UNL     1       0.037  10.662  22.005  0.00  0.00    +0.000 C 
ATOM      3  C   UNL     1       0.558   9.225  21.728  0.00  0.00    +0.000 C 
ATOM      4  C   UNL     1       1.049   8.979  20.323  0.00  0.00    +0.000 A 
ATOM      5  C   UNL     1       1.823   7.875  19.931  0.00  0.00    +0.000 A 
ATOM      6  C   UNL     1       2.274   7.767  18.599  0.00  0.00    +0.000 A 
ATOM      7  C   UNL     1       2.022   8.763  17.668  0.00  0.00    +0.000 A 
ATOM      8  C   UNL     1       1.207   9.815  18.028  0.00  0.00    +0.000 A 
ATOM      9  C   UNL     1       0.681   9.876  19.317  0.00  0.00    +0.000 A 
ATOM     10  C   UNL     1      -0.294  10.933  19.579  0.00  0.00    +0.000 C 
ATOM     11  O   UNL     1      -1.029  11.305  18.670  0.00  0.00    +0.000 OA
ENDROOT
BRANCH   1  12
ATOM     12  C   UNL     1      -0.880  12.797  20.988  0.00  0.00    +0.000 C 
BRANCH  12  17
ATOM     13  C   UNL     1      -6.322  12.784  23.093  0.00  0.00    +0.000 C 
ATOM     14  C   UNL     1      -4.909  12.851  22.595  0.00  0.00    +0.000 A 
ATOM     15  C   UNL     1      -3.817  12.835  23.471  0.00  0.00    +0.000 A 
ATOM     16  C   UNL     1      -2.505  12.816  22.976  0.00  0.00    +0.000 A 
ATOM     17  C   UNL     1      -2.264  12.791  21.595  0.00  0.00    +0.000 A 
ATOM     18  C   UNL     1      -3.363  12.883  20.727  0.00  0.00    +0.000 A 
ATOM     19  C   UNL     1      -4.669  12.900  21.219  0.00  0.00    +0.000 A 
ENDBRANCH  12  17
ENDBRANCH   1  12
BRANCH   5  20
ATOM     20  O   UNL     1       2.088   6.914  20.875  0.00  0.00    +0.000 OA
BRANCH  20  21
ATOM     21  C   UNL     1       1.809   5.577  20.448  0.00  0.00    +0.000 C 
BRANCH  21  22
ATOM     22  C   UNL     1       3.064   4.831  20.024  0.00  0.00    +0.000 C 
ATOM     23  O   UNL     1       3.224   3.662  20.335  0.00  0.00    +0.000 OA
ATOM     24  N   UNL     1       3.892   5.631  19.258  0.00  0.00    +0.000 N 
ATOM     25  H   UNL     1       3.661   6.616  19.280  0.00  0.00    +0.000 HD
BRANCH  24  26
ATOM     26  C   UNL     1       5.102   5.243  18.656  0.00  0.00    +0.000 A 
ATOM     27  C   UNL     1       6.321   5.503  19.292  0.00  0.00    +0.000 A 
ATOM     28  C   UNL     1       7.524   5.208  18.668  0.00  0.00    +0.000 A 
ATOM     29  C   UNL     1       7.514   4.646  17.398  0.00  0.00    +0.000 A 
ATOM     30  C   UNL     1       6.308   4.341  16.750  0.00  0.00    +0.000 A 
ATOM     31  C   UNL     1       6.377   3.753  15.367  0.00  0.00    +0.000 C 
ATOM     32  C   UNL     1       5.078   4.613  17.391  0.00  0.00    +0.000 A 
ATOM     33  C   UNL     1       3.760   4.268  16.739  0.00  0.00    +0.000 C 
ENDBRANCH  24  26
ENDBRANCH  21  22
ENDBRANCH  20  21
ENDBRANCH   5  20
TORSDOF 6
ENDMDL
