MODEL 1
REMARK VINA RESULT:      -8.3      0.000      0.000
REMARK  Name = 
REMARK  7 active torsions:
REMARK  status: ('A' for Active; 'I' for Inactive)
REMARK    1  A    between atoms: C_1  and  O_2
REMARK    2  A    between atoms: O_2  and  C_3
REMARK    3  A    between atoms: C_3  and  C_5
REMARK    4  A    between atoms: C_5  and  C_6
REMARK    5  A    between atoms: C_5  and  N_13
REMARK    6  A    between atoms: C_6  and  C_7
REMARK    7  A    between atoms: C_14  and  C_16
REMARK                            x       y       z     vdW  Elec       q    Type
REMARK                         _______ _______ _______ _____ _____    ______ ____
ROOT
ATOM      1  N   UNL     1       6.727   7.252  17.505  0.00  0.00    +0.000 N 
ATOM      2  C   UNL     1       7.794   7.407  18.363  0.00  0.00    +0.000 C 
ATOM      3  O   UNL     1       8.285   6.476  18.989  0.00  0.00    +0.000 OA
ATOM      4  H   UNL     1       6.536   8.000  16.857  0.00  0.00    +0.000 HD
ENDROOT
BRANCH   2   5
ATOM      5  C   UNL     1       8.318   8.757  18.432  0.00  0.00    +0.000 A 
ATOM      6  C   UNL     1       8.149   9.845  17.595  0.00  0.00    +0.000 A 
ATOM      7  C   UNL     1       8.925  10.925  18.092  0.00  0.00    +0.000 A 
ATOM      8  C   UNL     1       9.145  12.241  17.648  0.00  0.00    +0.000 A 
ATOM      9  C   UNL     1      10.030  13.053  18.359  0.00  0.00    +0.000 A 
ATOM     10 CL   UNL     1      10.314  14.664  17.816  0.00  0.00    +0.000 Cl
ATOM     11  C   UNL     1      10.686  12.579  19.492  0.00  0.00    +0.000 A 
ATOM     12  C   UNL     1      10.458  11.280  19.967  0.00  0.00    +0.000 A 
ATOM     13  C   UNL     1       9.566  10.476  19.244  0.00  0.00    +0.000 A 
ATOM     14  N   UNL     1       9.135   9.184  19.461  0.00  0.00    +0.000 N 
ATOM     15  H   UNL     1       9.397   8.604  20.248  0.00  0.00    +0.000 HD
ENDBRANCH   2   5
BRANCH   1  16
ATOM     16  C   UNL     1       6.185   5.930  17.173  0.00  0.00    +0.000 C 
BRANCH  16  17
ATOM     17  C   UNL     1       7.002   5.207  16.088  0.00  0.00    +0.000 C 
ATOM     18  O   UNL     1       7.946   4.464  16.334  0.00  0.00    +0.000 OA
BRANCH  17  20
ATOM     19  C   UNL     1       6.427   4.315  13.990  0.00  0.00    +0.000 C 
ATOM     20  O   UNL     1       6.535   5.463  14.833  0.00  0.00    +0.000 OA
ENDBRANCH  17  20
ENDBRANCH  16  17
BRANCH  16  21
ATOM     21  C   UNL     1       4.728   6.029  16.675  0.00  0.00    +0.000 C 
BRANCH  21  22
ATOM     22  C   UNL     1       3.797   4.986  17.255  0.00  0.00    +0.000 A 
ATOM     23  C   UNL     1       4.114   3.622  17.177  0.00  0.00    +0.000 A 
ATOM     24  C   UNL     1       3.248   2.661  17.705  0.00  0.00    +0.000 A 
ATOM     25  C   UNL     1       2.063   3.053  18.323  0.00  0.00    +0.000 A 
ATOM     26  C   UNL     1       1.750   4.406  18.431  0.00  0.00    +0.000 A 
ATOM     27  C   UNL     1       2.617   5.368  17.909  0.00  0.00    +0.000 A 
ENDBRANCH  21  22
ENDBRANCH  16  21
ENDBRANCH   1  16
TORSDOF 6
ENDMDL
MODEL 2
REMARK VINA RESULT:      -8.3      1.025      1.250
REMARK  Name = 
REMARK  7 active torsions:
REMARK  status: ('A' for Active; 'I' for Inactive)
REMARK    1  A    between atoms: C_1  and  O_2
REMARK    2  A    between atoms: O_2  and  C_3
REMARK    3  A    between atoms: C_3  and  C_5
REMARK    4  A    between atoms: C_5  and  C_6
REMARK    5  A    between atoms: C_5  and  N_13
REMARK    6  A    between atoms: C_6  and  C_7
REMARK    7  A    between atoms: C_14  and  C_16
REMARK                            x       y       z     vdW  Elec       q    Type
REMARK                         _______ _______ _______ _____ _____    ______ ____
ROOT
ATOM      1  N   UNL     1       6.812   6.754  16.928  0.00  0.00    +0.000 N 
ATOM      2  C   UNL     1       7.600   6.932  18.044  0.00  0.00    +0.000 C 
ATOM      3  O   UNL     1       7.891   6.018  18.806  0.00  0.00    +0.000 OA
ATOM      4  H   UNL     1       6.813   7.484  16.234  0.00  0.00    +0.000 HD
ENDROOT
BRANCH   2   5
ATOM      5  C   UNL     1       8.096   8.282  18.221  0.00  0.00    +0.000 A 
ATOM      6  C   UNL     1       7.904   9.429  17.470  0.00  0.00    +0.000 A 
ATOM      7  C   UNL     1       8.657  10.483  18.053  0.00  0.00    +0.000 A 
ATOM      8  C   UNL     1       8.850  11.834  17.715  0.00  0.00    +0.000 A 
ATOM      9  C   UNL     1       9.716  12.606  18.489  0.00  0.00    +0.000 A 
ATOM     10 CL   UNL     1       9.967  14.260  18.075  0.00  0.00    +0.000 Cl
ATOM     11  C   UNL     1      10.381  12.058  19.583  0.00  0.00    +0.000 A 
ATOM     12  C   UNL     1      10.180  10.721  19.954  0.00  0.00    +0.000 A 
ATOM     13  C   UNL     1       9.306   9.958  19.168  0.00  0.00    +0.000 A 
ATOM     14  N   UNL     1       8.902   8.645  19.282  0.00  0.00    +0.000 N 
ATOM     15  H   UNL     1       9.176   8.010  20.021  0.00  0.00    +0.000 HD
ENDBRANCH   2   5
BRANCH   1  16
ATOM     16  C   UNL     1       6.372   5.423  16.494  0.00  0.00    +0.000 C 
BRANCH  16  17
ATOM     17  C   UNL     1       6.813   5.090  15.058  0.00  0.00    +0.000 C 
ATOM     18  O   UNL     1       7.806   5.573  14.526  0.00  0.00    +0.000 OA
BRANCH  17  20
ATOM     19  C   UNL     1       6.383   3.793  13.144  0.00  0.00    +0.000 C 
ATOM     20  O   UNL     1       5.991   4.179  14.464  0.00  0.00    +0.000 OA
ENDBRANCH  17  20
ENDBRANCH  16  17
BRANCH  16  21
ATOM     21  C   UNL     1       4.835   5.291  16.556  0.00  0.00    +0.000 C 
BRANCH  21  22
ATOM     22  C   UNL     1       4.339   4.201  17.480  0.00  0.00    +0.000 A 
ATOM     23  C   UNL     1       3.264   3.382  17.106  0.00  0.00    +0.000 A 
ATOM     24  C   UNL     1       2.802   2.383  17.967  0.00  0.00    +0.000 A 
ATOM     25  C   UNL     1       3.414   2.186  19.203  0.00  0.00    +0.000 A 
ATOM     26  C   UNL     1       4.500   2.975  19.573  0.00  0.00    +0.000 A 
ATOM     27  C   UNL     1       4.966   3.971  18.712  0.00  0.00    +0.000 A 
ENDBRANCH  21  22
ENDBRANCH  16  21
ENDBRANCH   1  16
TORSDOF 6
ENDMDL
MODEL 3
REMARK VINA RESULT:      -7.9      5.386      7.673
REMARK  Name = 
REMARK  7 active torsions:
REMARK  status: ('A' for Active; 'I' for Inactive)
REMARK    1  A    between atoms: C_1  and  O_2
REMARK    2  A    between atoms: O_2  and  C_3
REMARK    3  A    between atoms: C_3  and  C_5
REMARK    4  A    between atoms: C_5  and  C_6
REMARK    5  A    between atoms: C_5  and  N_13
REMARK    6  A    between atoms: C_6  and  C_7
REMARK    7  A    between atoms: C_14  and  C_16
REMARK                            x       y       z     vdW  Elec       q    Type
REMARK                         _______ _______ _______ _____ _____    ______ ____
ROOT
ATOM      1  N   UNL     1       2.323   6.486  19.178  0.00  0.00    +0.000 N 
ATOM      2  C   UNL     1       2.200   7.792  18.757  0.00  0.00    +0.000 C 
ATOM      3  O   UNL     1       2.675   8.199  17.705  0.00  0.00    +0.000 OA
ATOM      4  H   UNL     1       1.715   6.175  19.920  0.00  0.00    +0.000 HD
ENDROOT
BRANCH   2   5
ATOM      5  C   UNL     1       1.424   8.639  19.642  0.00  0.00    +0.000 A 
ATOM      6  C   UNL     1       0.966   9.935  19.493  0.00  0.00    +0.000 A 
ATOM      7  C   UNL     1       0.292  10.318  20.683  0.00  0.00    +0.000 A 
ATOM      8  C   UNL     1      -0.346  11.501  21.094  0.00  0.00    +0.000 A 
ATOM      9  C   UNL     1      -0.880  11.568  22.381  0.00  0.00    +0.000 A 
ATOM     10 CL   UNL     1      -1.654  13.018  22.897  0.00  0.00    +0.000 Cl
ATOM     11  C   UNL     1      -0.789  10.484  23.252  0.00  0.00    +0.000 A 
ATOM     12  C   UNL     1      -0.182   9.286  22.851  0.00  0.00    +0.000 A 
ATOM     13  C   UNL     1       0.347   9.233  21.555  0.00  0.00    +0.000 A 
ATOM     14  N   UNL     1       0.982   8.212  20.879  0.00  0.00    +0.000 N 
ATOM     15  H   UNL     1       1.138   7.280  21.240  0.00  0.00    +0.000 HD
ENDBRANCH   2   5
BRANCH   1  16
ATOM     16  C   UNL     1       2.918   5.449  18.327  0.00  0.00    +0.000 C 
BRANCH  16  17
ATOM     17  C   UNL     1       1.954   4.284  18.047  0.00  0.00    +0.000 C 
ATOM     18  O   UNL     1       1.084   4.318  17.183  0.00  0.00    +0.000 OA
BRANCH  17  20
ATOM     19  C   UNL     1       1.158   2.228  18.866  0.00  0.00    +0.000 C 
ATOM     20  O   UNL     1       2.199   3.207  18.846  0.00  0.00    +0.000 OA
ENDBRANCH  17  20
ENDBRANCH  16  17
BRANCH  16  21
ATOM     21  C   UNL     1       4.193   4.861  18.967  0.00  0.00    +0.000 C 
BRANCH  21  22
ATOM     22  C   UNL     1       5.468   5.587  18.599  0.00  0.00    +0.000 A 
ATOM     23  C   UNL     1       5.503   6.462  17.504  0.00  0.00    +0.000 A 
ATOM     24  C   UNL     1       6.685   7.122  17.161  0.00  0.00    +0.000 A 
ATOM     25  C   UNL     1       7.841   6.924  17.914  0.00  0.00    +0.000 A 
ATOM     26  C   UNL     1       7.811   6.078  19.021  0.00  0.00    +0.000 A 
ATOM     27  C   UNL     1       6.629   5.421  19.367  0.00  0.00    +0.000 A 
ENDBRANCH  21  22
ENDBRANCH  16  21
ENDBRANCH   1  16
TORSDOF 6
ENDMDL
MODEL 4
REMARK VINA RESULT:      -7.9      0.745      1.117
REMARK  Name = 
REMARK  7 active torsions:
REMARK  status: ('A' for Active; 'I' for Inactive)
REMARK    1  A    between atoms: C_1  and  O_2
REMARK    2  A    between atoms: O_2  and  C_3
REMARK    3  A    between atoms: C_3  and  C_5
REMARK    4  A    between atoms: C_5  and  C_6
REMARK    5  A    between atoms: C_5  and  N_13
REMARK    6  A    between atoms: C_6  and  C_7
REMARK    7  A    between atoms: C_14  and  C_16
REMARK                            x       y       z     vdW  Elec       q    Type
REMARK                         _______ _______ _______ _____ _____    ______ ____
ROOT
ATOM      1  N   UNL     1       6.653   7.291  17.221  0.00  0.00    +0.000 N 
ATOM      2  C   UNL     1       7.697   7.387  18.115  0.00  0.00    +0.000 C 
ATOM      3  O   UNL     1       8.158   6.419  18.707  0.00  0.00    +0.000 OA
ATOM      4  H   UNL     1       6.490   8.073  16.607  0.00  0.00    +0.000 HD
ENDROOT
BRANCH   2   5
ATOM      5  C   UNL     1       8.237   8.724  18.267  0.00  0.00    +0.000 A 
ATOM      6  C   UNL     1       8.092   9.859  17.490  0.00  0.00    +0.000 A 
ATOM      7  C   UNL     1       8.875  10.900  18.057  0.00  0.00    +0.000 A 
ATOM      8  C   UNL     1       9.118  12.235  17.691  0.00  0.00    +0.000 A 
ATOM      9  C   UNL     1      10.002  12.995  18.458  0.00  0.00    +0.000 A 
ATOM     10 CL   UNL     1      10.313  14.630  18.010  0.00  0.00    +0.000 Cl
ATOM     11  C   UNL     1      10.636  12.450  19.571  0.00  0.00    +0.000 A 
ATOM     12  C   UNL     1      10.386  11.129  19.969  0.00  0.00    +0.000 A 
ATOM     13  C   UNL     1       9.494  10.379  19.191  0.00  0.00    +0.000 A 
ATOM     14  N   UNL     1       9.044   9.083  19.329  0.00  0.00    +0.000 N 
ATOM     15  H   UNL     1       9.288   8.456  20.085  0.00  0.00    +0.000 HD
ENDBRANCH   2   5
BRANCH   1  16
ATOM     16  C   UNL     1       6.103   5.995  16.808  0.00  0.00    +0.000 C 
BRANCH  16  17
ATOM     17  C   UNL     1       6.621   5.540  15.433  0.00  0.00    +0.000 C 
ATOM     18  O   UNL     1       7.771   5.722  15.049  0.00  0.00    +0.000 OA
BRANCH  17  20
ATOM     19  C   UNL     1       6.169   3.907  13.802  0.00  0.00    +0.000 C 
ATOM     20  O   UNL     1       5.666   4.890  14.710  0.00  0.00    +0.000 OA
ENDBRANCH  17  20
ENDBRANCH  16  17
BRANCH  16  21
ATOM     21  C   UNL     1       4.562   6.035  16.739  0.00  0.00    +0.000 C 
BRANCH  21  22
ATOM     22  C   UNL     1       3.869   5.119  17.725  0.00  0.00    +0.000 A 
ATOM     23  C   UNL     1       3.623   5.540  19.040  0.00  0.00    +0.000 A 
ATOM     24  C   UNL     1       2.992   4.688  19.950  0.00  0.00    +0.000 A 
ATOM     25  C   UNL     1       2.594   3.413  19.554  0.00  0.00    +0.000 A 
ATOM     26  C   UNL     1       2.808   2.994  18.243  0.00  0.00    +0.000 A 
ATOM     27  C   UNL     1       3.434   3.846  17.331  0.00  0.00    +0.000 A 
ENDBRANCH  21  22
ENDBRANCH  16  21
ENDBRANCH   1  16
TORSDOF 6
ENDMDL
MODEL 5
REMARK VINA RESULT:      -7.9      3.968      6.586
REMARK  Name = 
REMARK  7 active torsions:
REMARK  status: ('A' for Active; 'I' for Inactive)
REMARK    1  A    between atoms: C_1  and  O_2
REMARK    2  A    between atoms: O_2  and  C_3
REMARK    3  A    between atoms: C_3  and  C_5
REMARK    4  A    between atoms: C_5  and  C_6
REMARK    5  A    between atoms: C_5  and  N_13
REMARK    6  A    between atoms: C_6  and  C_7
REMARK    7  A    between atoms: C_14  and  C_16
REMARK                            x       y       z     vdW  Elec       q    Type
REMARK                         _______ _______ _______ _____ _____    ______ ____
ROOT
ATOM      1  N   UNL     1       5.243   5.915  17.202  0.00  0.00    +0.000 N 
ATOM      2  C   UNL     1       4.231   5.443  18.008  0.00  0.00    +0.000 C 
ATOM      3  O   UNL     1       4.131   4.266  18.331  0.00  0.00    +0.000 OA
ATOM      4  H   UNL     1       5.395   6.911  17.176  0.00  0.00    +0.000 HD
ENDROOT
BRANCH   2   5
ATOM      5  C   UNL     1       3.315   6.463  18.481  0.00  0.00    +0.000 A 
ATOM      6  C   UNL     1       2.818   7.598  17.866  0.00  0.00    +0.000 A 
ATOM      7  C   UNL     1       1.989   8.288  18.790  0.00  0.00    +0.000 A 
ATOM      8  C   UNL     1       1.251   9.482  18.721  0.00  0.00    +0.000 A 
ATOM      9  C   UNL     1       0.564   9.917  19.854  0.00  0.00    +0.000 A 
ATOM     10 CL   UNL     1      -0.334  11.386  19.781  0.00  0.00    +0.000 Cl
ATOM     11  C   UNL     1       0.600   9.187  21.039  0.00  0.00    +0.000 A 
ATOM     12  C   UNL     1       1.307   7.979  21.120  0.00  0.00    +0.000 A 
ATOM     13  C   UNL     1       1.990   7.553  19.973  0.00  0.00    +0.000 A 
ATOM     14  N   UNL     1       2.749   6.425  19.740  0.00  0.00    +0.000 N 
ATOM     15  H   UNL     1       2.904   5.677  20.404  0.00  0.00    +0.000 HD
ENDBRANCH   2   5
BRANCH   1  16
ATOM     16  C   UNL     1       6.360   5.061  16.778  0.00  0.00    +0.000 C 
BRANCH  16  17
ATOM     17  C   UNL     1       7.452   4.933  17.854  0.00  0.00    +0.000 C 
ATOM     18  O   UNL     1       8.347   4.097  17.813  0.00  0.00    +0.000 OA
BRANCH  17  20
ATOM     19  C   UNL     1       8.176   7.011  18.684  0.00  0.00    +0.000 C 
ATOM     20  O   UNL     1       7.324   5.873  18.834  0.00  0.00    +0.000 OA
ENDBRANCH  17  20
ENDBRANCH  16  17
BRANCH  16  21
ATOM     21  C   UNL     1       7.025   5.601  15.495  0.00  0.00    +0.000 C 
BRANCH  21  22
ATOM     22  C   UNL     1       6.690   4.821  14.242  0.00  0.00    +0.000 A 
ATOM     23  C   UNL     1       5.509   4.069  14.163  0.00  0.00    +0.000 A 
ATOM     24  C   UNL     1       5.209   3.342  13.008  0.00  0.00    +0.000 A 
ATOM     25  C   UNL     1       6.078   3.367  11.920  0.00  0.00    +0.000 A 
ATOM     26  C   UNL     1       7.240   4.133  11.977  0.00  0.00    +0.000 A 
ATOM     27  C   UNL     1       7.540   4.864  13.128  0.00  0.00    +0.000 A 
ENDBRANCH  21  22
ENDBRANCH  16  21
ENDBRANCH   1  16
TORSDOF 6
ENDMDL
MODEL 6
REMARK VINA RESULT:      -7.9      5.591      7.649
REMARK  Name = 
REMARK  7 active torsions:
REMARK  status: ('A' for Active; 'I' for Inactive)
REMARK    1  A    between atoms: C_1  and  O_2
REMARK    2  A    between atoms: O_2  and  C_3
REMARK    3  A    between atoms: C_3  and  C_5
REMARK    4  A    between atoms: C_5  and  C_6
REMARK    5  A    between atoms: C_5  and  N_13
REMARK    6  A    between atoms: C_6  and  C_7
REMARK    7  A    between atoms: C_14  and  C_16
REMARK                            x       y       z     vdW  Elec       q    Type
REMARK                         _______ _______ _______ _____ _____    ______ ____
ROOT
ATOM      1  N   UNL     1       2.720   6.318  19.974  0.00  0.00    +0.000 N 
ATOM      2  C   UNL     1       2.329   7.415  19.238  0.00  0.00    +0.000 C 
ATOM      3  O   UNL     1       2.640   7.574  18.064  0.00  0.00    +0.000 OA
ATOM      4  H   UNL     1       2.238   6.141  20.841  0.00  0.00    +0.000 HD
ENDROOT
BRANCH   2   5
ATOM      5  C   UNL     1       1.481   8.347  19.954  0.00  0.00    +0.000 A 
ATOM      6  C   UNL     1       0.956   9.572  19.582  0.00  0.00    +0.000 A 
ATOM      7  C   UNL     1       0.227  10.104  20.678  0.00  0.00    +0.000 A 
ATOM      8  C   UNL     1      -0.489  11.299  20.874  0.00  0.00    +0.000 A 
ATOM      9  C   UNL     1      -1.063  11.544  22.121  0.00  0.00    +0.000 A 
ATOM     10 CL   UNL     1      -1.932  13.011  22.373  0.00  0.00    +0.000 Cl
ATOM     11  C   UNL     1      -0.938  10.627  23.161  0.00  0.00    +0.000 A 
ATOM     12  C   UNL     1      -0.254   9.418  22.978  0.00  0.00    +0.000 A 
ATOM     13  C   UNL     1       0.316   9.183  21.719  0.00  0.00    +0.000 A 
ATOM     14  N   UNL     1       1.027   8.105  21.236  0.00  0.00    +0.000 N 
ATOM     15  H   UNL     1       1.224   7.256  21.750  0.00  0.00    +0.000 HD
ENDBRANCH   2   5
BRANCH   1  16
ATOM     16  C   UNL     1       3.428   5.187  19.363  0.00  0.00    +0.000 C 
BRANCH  16  17
ATOM     17  C   UNL     1       3.186   3.862  20.107  0.00  0.00    +0.000 C 
ATOM     18  O   UNL     1       3.935   2.894  20.028  0.00  0.00    +0.000 OA
BRANCH  17  20
ATOM     19  C   UNL     1       0.948   3.184  20.355  0.00  0.00    +0.000 C 
ATOM     20  O   UNL     1       2.065   3.902  20.883  0.00  0.00    +0.000 OA
ENDBRANCH  17  20
ENDBRANCH  16  17
BRANCH  16  21
ATOM     21  C   UNL     1       4.951   5.432  19.325  0.00  0.00    +0.000 C 
BRANCH  21  22
ATOM     22  C   UNL     1       5.594   5.158  17.982  0.00  0.00    +0.000 A 
ATOM     23  C   UNL     1       4.861   5.305  16.796  0.00  0.00    +0.000 A 
ATOM     24  C   UNL     1       5.455   5.041  15.559  0.00  0.00    +0.000 A 
ATOM     25  C   UNL     1       6.787   4.638  15.495  0.00  0.00    +0.000 A 
ATOM     26  C   UNL     1       7.533   4.516  16.665  0.00  0.00    +0.000 A 
ATOM     27  C   UNL     1       6.942   4.783  17.901  0.00  0.00    +0.000 A 
ENDBRANCH  21  22
ENDBRANCH  16  21
ENDBRANCH   1  16
TORSDOF 6
ENDMDL
MODEL 7
REMARK VINA RESULT:      -7.8      5.637      7.578
REMARK  Name = 
REMARK  7 active torsions:
REMARK  status: ('A' for Active; 'I' for Inactive)
REMARK    1  A    between atoms: C_1  and  O_2
REMARK    2  A    between atoms: O_2  and  C_3
REMARK    3  A    between atoms: C_3  and  C_5
REMARK    4  A    between atoms: C_5  and  C_6
REMARK    5  A    between atoms: C_5  and  N_13
REMARK    6  A    between atoms: C_6  and  C_7
REMARK    7  A    between atoms: C_14  and  C_16
REMARK                            x       y       z     vdW  Elec       q    Type
REMARK                         _______ _______ _______ _____ _____    ______ ____
ROOT
ATOM      1  N   UNL     1       2.415   5.666  19.621  0.00  0.00    +0.000 N 
ATOM      2  C   UNL     1       2.511   6.912  19.041  0.00  0.00    +0.000 C 
ATOM      3  O   UNL     1       3.141   7.121  18.012  0.00  0.00    +0.000 OA
ATOM      4  H   UNL     1       1.699   5.528  20.316  0.00  0.00    +0.000 HD
ENDROOT
BRANCH   2   5
ATOM      5  C   UNL     1       1.767   7.952  19.725  0.00  0.00    +0.000 A 
ATOM      6  C   UNL     1       1.277   8.023  21.016  0.00  0.00    +0.000 A 
ATOM      7  C   UNL     1       0.572   9.247  21.167  0.00  0.00    +0.000 A 
ATOM      8  C   UNL     1      -0.132   9.831  22.235  0.00  0.00    +0.000 A 
ATOM      9  C   UNL     1      -0.769  11.055  22.033  0.00  0.00    +0.000 A 
ATOM     10 CL   UNL     1      -1.643  11.773  23.333  0.00  0.00    +0.000 Cl
ATOM     11  C   UNL     1      -0.712  11.698  20.799  0.00  0.00    +0.000 A 
ATOM     12  C   UNL     1       0.008  11.146  19.731  0.00  0.00    +0.000 A 
ATOM     13  C   UNL     1       0.645   9.917  19.949  0.00  0.00    +0.000 A 
ATOM     14  N   UNL     1       1.423   9.142  19.115  0.00  0.00    +0.000 N 
ATOM     15  H   UNL     1       1.689   9.386  18.169  0.00  0.00    +0.000 HD
ENDBRANCH   2   5
BRANCH   1  16
ATOM     16  C   UNL     1       2.952   4.465  18.971  0.00  0.00    +0.000 C 
BRANCH  16  17
ATOM     17  C   UNL     1       2.273   3.173  19.456  0.00  0.00    +0.000 C 
ATOM     18  O   UNL     1       2.555   2.058  19.030  0.00  0.00    +0.000 OA
BRANCH  17  20
ATOM     19  C   UNL     1       1.557   2.673  21.640  0.00  0.00    +0.000 C 
ATOM     20  O   UNL     1       1.351   3.409  20.432  0.00  0.00    +0.000 OA
ENDBRANCH  17  20
ENDBRANCH  16  17
BRANCH  16  21
ATOM     21  C   UNL     1       4.468   4.321  19.219  0.00  0.00    +0.000 C 
BRANCH  21  22
ATOM     22  C   UNL     1       5.314   4.372  17.966  0.00  0.00    +0.000 A 
ATOM     23  C   UNL     1       4.736   4.167  16.705  0.00  0.00    +0.000 A 
ATOM     24  C   UNL     1       5.522   4.205  15.550  0.00  0.00    +0.000 A 
ATOM     25  C   UNL     1       6.889   4.456  15.643  0.00  0.00    +0.000 A 
ATOM     26  C   UNL     1       7.469   4.689  16.888  0.00  0.00    +0.000 A 
ATOM     27  C   UNL     1       6.684   4.657  18.042  0.00  0.00    +0.000 A 
ENDBRANCH  21  22
ENDBRANCH  16  21
ENDBRANCH   1  16
TORSDOF 6
ENDMDL
MODEL 8
REMARK VINA RESULT:      -7.8      5.665      7.694
REMARK  Name = 
REMARK  7 active torsions:
REMARK  status: ('A' for Active; 'I' for Inactive)
REMARK    1  A    between atoms: C_1  and  O_2
REMARK    2  A    between atoms: O_2  and  C_3
REMARK    3  A    between atoms: C_3  and  C_5
REMARK    4  A    between atoms: C_5  and  C_6
REMARK    5  A    between atoms: C_5  and  N_13
REMARK    6  A    between atoms: C_6  and  C_7
REMARK    7  A    between atoms: C_14  and  C_16
REMARK                            x       y       z     vdW  Elec       q    Type
REMARK                         _______ _______ _______ _____ _____    ______ ____
ROOT
ATOM      1  N   UNL     1       2.258   6.322  19.720  0.00  0.00    +0.000 N 
ATOM      2  C   UNL     1       2.187   7.586  19.176  0.00  0.00    +0.000 C 
ATOM      3  O   UNL     1       2.750   7.894  18.133  0.00  0.00    +0.000 OA
ATOM      4  H   UNL     1       1.590   6.083  20.435  0.00  0.00    +0.000 HD
ENDROOT
BRANCH   2   5
ATOM      5  C   UNL     1       1.356   8.513  19.918  0.00  0.00    +0.000 A 
ATOM      6  C   UNL     1       0.834   9.747  19.572  0.00  0.00    +0.000 A 
ATOM      7  C   UNL     1       0.124  10.268  20.686  0.00  0.00    +0.000 A 
ATOM      8  C   UNL     1      -0.580  11.464  20.910  0.00  0.00    +0.000 A 
ATOM      9  C   UNL     1      -1.135  11.694  22.169  0.00  0.00    +0.000 A 
ATOM     10 CL   UNL     1      -1.991  13.163  22.455  0.00  0.00    +0.000 Cl
ATOM     11  C   UNL     1      -1.002  10.760  23.193  0.00  0.00    +0.000 A 
ATOM     12  C   UNL     1      -0.329   9.549  22.982  0.00  0.00    +0.000 A 
ATOM     13  C   UNL     1       0.222   9.330  21.712  0.00  0.00    +0.000 A 
ATOM     14  N   UNL     1       0.918   8.255  21.202  0.00  0.00    +0.000 N 
ATOM     15  H   UNL     1       1.116   7.397  21.701  0.00  0.00    +0.000 HD
ENDBRANCH   2   5
BRANCH   1  16
ATOM     16  C   UNL     1       2.904   5.209  19.014  0.00  0.00    +0.000 C 
BRANCH  16  17
ATOM     17  C   UNL     1       2.318   3.840  19.399  0.00  0.00    +0.000 C 
ATOM     18  O   UNL     1       2.430   2.836  18.705  0.00  0.00    +0.000 OA
BRANCH  17  20
ATOM     19  C   UNL     1       2.240   2.986  21.589  0.00  0.00    +0.000 C 
ATOM     20  O   UNL     1       1.690   3.869  20.609  0.00  0.00    +0.000 OA
ENDBRANCH  17  20
ENDBRANCH  16  17
BRANCH  16  21
ATOM     21  C   UNL     1       4.420   5.168  19.298  0.00  0.00    +0.000 C 
BRANCH  21  22
ATOM     22  C   UNL     1       5.280   4.970  18.069  0.00  0.00    +0.000 A 
ATOM     23  C   UNL     1       6.661   4.760  18.189  0.00  0.00    +0.000 A 
ATOM     24  C   UNL     1       7.454   4.588  17.052  0.00  0.00    +0.000 A 
ATOM     25  C   UNL     1       6.875   4.615  15.785  0.00  0.00    +0.000 A 
ATOM     26  C   UNL     1       5.500   4.795  15.654  0.00  0.00    +0.000 A 
ATOM     27  C   UNL     1       4.706   4.962  16.791  0.00  0.00    +0.000 A 
ENDBRANCH  21  22
ENDBRANCH  16  21
ENDBRANCH   1  16
TORSDOF 6
ENDMDL
MODEL 9
REMARK VINA RESULT:      -7.7      5.684      7.634
REMARK  Name = 
REMARK  7 active torsions:
REMARK  status: ('A' for Active; 'I' for Inactive)
REMARK    1  A    between atoms: C_1  and  O_2
REMARK    2  A    between atoms: O_2  and  C_3
REMARK    3  A    between atoms: C_3  and  C_5
REMARK    4  A    between atoms: C_5  and  C_6
REMARK    5  A    between atoms: C_5  and  N_13
REMARK    6  A    between atoms: C_6  and  C_7
REMARK    7  A    between atoms: C_14  and  C_16
REMARK                            x       y       z     vdW  Elec       q    Type
REMARK                         _______ _______ _______ _____ _____    ______ ____
ROOT
ATOM      1  N   UNL     1       2.547   6.138  20.146  0.00  0.00    +0.000 N 
ATOM      2  C   UNL     1       2.311   7.245  19.361  0.00  0.00    +0.000 C 
ATOM      3  O   UNL     1       2.696   7.333  18.202  0.00  0.00    +0.000 OA
ATOM      4  H   UNL     1       2.006   6.040  20.990  0.00  0.00    +0.000 HD
ENDROOT
BRANCH   2   5
ATOM      5  C   UNL     1       1.530   8.283  20.005  0.00  0.00    +0.000 A 
ATOM      6  C   UNL     1       1.029   8.381  21.290  0.00  0.00    +0.000 A 
ATOM      7  C   UNL     1       0.285   9.587  21.395  0.00  0.00    +0.000 A 
ATOM      8  C   UNL     1      -0.444  10.184  22.438  0.00  0.00    +0.000 A 
ATOM      9  C   UNL     1      -1.117  11.381  22.191  0.00  0.00    +0.000 A 
ATOM     10 CL   UNL     1      -2.023  12.114  23.461  0.00  0.00    +0.000 Cl
ATOM     11  C   UNL     1      -1.072  11.984  20.937  0.00  0.00    +0.000 A 
ATOM     12  C   UNL     1      -0.326  11.420  19.892  0.00  0.00    +0.000 A 
ATOM     13  C   UNL     1       0.346  10.219  20.155  0.00  0.00    +0.000 A 
ATOM     14  N   UNL     1       1.154   9.441  19.353  0.00  0.00    +0.000 N 
ATOM     15  H   UNL     1       1.419   9.661  18.401  0.00  0.00    +0.000 HD
ENDBRANCH   2   5
BRANCH   1  16
ATOM     16  C   UNL     1       3.162   4.920  19.606  0.00  0.00    +0.000 C 
BRANCH  16  17
ATOM     17  C   UNL     1       2.789   3.660  20.404  0.00  0.00    +0.000 C 
ATOM     18  O   UNL     1       2.331   3.690  21.542  0.00  0.00    +0.000 OA
BRANCH  17  20
ATOM     19  C   UNL     1       2.027   2.263  18.673  0.00  0.00    +0.000 C 
ATOM     20  O   UNL     1       2.997   2.516  19.692  0.00  0.00    +0.000 OA
ENDBRANCH  17  20
ENDBRANCH  16  17
BRANCH  16  21
ATOM     21  C   UNL     1       4.702   5.028  19.591  0.00  0.00    +0.000 C 
BRANCH  21  22
ATOM     22  C   UNL     1       5.332   4.783  18.237  0.00  0.00    +0.000 A 
ATOM     23  C   UNL     1       4.533   4.563  17.106  0.00  0.00    +0.000 A 
ATOM     24  C   UNL     1       5.118   4.328  15.859  0.00  0.00    +0.000 A 
ATOM     25  C   UNL     1       6.505   4.319  15.728  0.00  0.00    +0.000 A 
ATOM     26  C   UNL     1       7.309   4.564  16.839  0.00  0.00    +0.000 A 
ATOM     27  C   UNL     1       6.725   4.804  18.085  0.00  0.00    +0.000 A 
ENDBRANCH  21  22
ENDBRANCH  16  21
ENDBRANCH   1  16
TORSDOF 6
ENDMDL
