MODEL 1
REMARK VINA RESULT:      -8.5      0.000      0.000
REMARK  Name = 
REMARK  2 active torsions:
REMARK  status: ('A' for Active; 'I' for Inactive)
REMARK    1  A    between atoms: O_1  and  C_2
REMARK    2  A    between atoms: C_2  and  C_3
REMARK                            x       y       z     vdW  Elec       q    Type
REMARK                         _______ _______ _______ _____ _____    ______ ____
ROOT
ATOM      1  C   UNL     1       5.234   4.402  17.880  0.00  0.00    +0.000 C 
ATOM      2  C   UNL     1       4.029   3.394  17.776  0.00  0.00    +0.000 C 
ATOM      3  N   UNL     1       3.242   3.288  19.035  0.00  0.00    +0.000 NA
ATOM      4  C   UNL     1       2.091   2.393  18.849  0.00  0.00    +0.000 C 
ATOM      5  C   UNL     1       1.257   2.293  20.127  0.00  0.00    +0.000 C 
ATOM      6  C   UNL     1       0.791   3.667  20.591  0.00  0.00    +0.000 C 
ATOM      7  C   UNL     1       1.981   4.617  20.716  0.00  0.00    +0.000 C 
ATOM      8  C   UNL     1       2.798   4.653  19.417  0.00  0.00    +0.000 C 
ATOM      9  C   UNL     1       4.023   5.576  19.565  0.00  0.00    +0.000 C 
ATOM     10  O   UNL     1       4.759   5.676  18.344  0.00  0.00    +0.000 OA
ENDROOT
BRANCH   1  11
ATOM     11  C   UNL     1       5.901   4.557  16.515  0.00  0.00    +0.000 A 
ATOM     12  C   UNL     1       6.997   5.415  16.358  0.00  0.00    +0.000 A 
ATOM     13  C   UNL     1       7.626   5.574  15.123  0.00  0.00    +0.000 A 
ATOM     14  C   UNL     1       7.157   4.877  13.996  0.00  0.00    +0.000 A 
ATOM     15  C   UNL     1       7.766   5.029  12.739  0.00  0.00    +0.000 A 
ATOM     16  C   UNL     1       7.281   4.334  11.630  0.00  0.00    +0.000 A 
ATOM     17  C   UNL     1       6.185   3.486  11.763  0.00  0.00    +0.000 A 
ATOM     18  C   UNL     1       5.571   3.325  13.005  0.00  0.00    +0.000 A 
ATOM     19  C   UNL     1       6.050   4.017  14.129  0.00  0.00    +0.000 A 
ATOM     20  C   UNL     1       5.437   3.869  15.387  0.00  0.00    +0.000 A 
ENDBRANCH   1  11
BRANCH   1  21
ATOM     21  O   UNL     1       6.256   3.915  18.748  0.00  0.00    +0.000 OA
ATOM     22  H   UNL     1       7.101   4.080  18.301  0.00  0.00    +0.000 HD
ENDBRANCH   1  21
TORSDOF 2
ENDMDL
MODEL 2
REMARK VINA RESULT:      -8.3      1.042      1.143
REMARK  Name = 
REMARK  2 active torsions:
REMARK  status: ('A' for Active; 'I' for Inactive)
REMARK    1  A    between atoms: O_1  and  C_2
REMARK    2  A    between atoms: C_2  and  C_3
REMARK                            x       y       z     vdW  Elec       q    Type
REMARK                         _______ _______ _______ _____ _____    ______ ____
ROOT
ATOM      1  C   UNL     1       4.600   5.188  17.850  0.00  0.00    +0.000 C 
ATOM      2  C   UNL     1       4.494   3.795  18.575  0.00  0.00    +0.000 C 
ATOM      3  N   UNL     1       3.620   3.825  19.780  0.00  0.00    +0.000 NA
ATOM      4  C   UNL     1       3.503   2.481  20.365  0.00  0.00    +0.000 C 
ATOM      5  C   UNL     1       2.588   2.491  21.590  0.00  0.00    +0.000 C 
ATOM      6  C   UNL     1       1.209   3.042  21.246  0.00  0.00    +0.000 C 
ATOM      7  C   UNL     1       1.337   4.408  20.573  0.00  0.00    +0.000 C 
ATOM      8  C   UNL     1       2.291   4.346  19.372  0.00  0.00    +0.000 C 
ATOM      9  C   UNL     1       2.452   5.737  18.728  0.00  0.00    +0.000 C 
ATOM     10  O   UNL     1       3.282   5.686  17.565  0.00  0.00    +0.000 OA
ENDROOT
BRANCH   1  11
ATOM     11  C   UNL     1       5.396   5.041  16.555  0.00  0.00    +0.000 A 
ATOM     12  C   UNL     1       6.670   5.612  16.440  0.00  0.00    +0.000 A 
ATOM     13  C   UNL     1       7.419   5.493  15.270  0.00  0.00    +0.000 A 
ATOM     14  C   UNL     1       6.896   4.798  14.164  0.00  0.00    +0.000 A 
ATOM     15  C   UNL     1       7.626   4.674  12.971  0.00  0.00    +0.000 A 
ATOM     16  C   UNL     1       7.087   3.986  11.881  0.00  0.00    +0.000 A 
ATOM     17  C   UNL     1       5.818   3.423  11.972  0.00  0.00    +0.000 A 
ATOM     18  C   UNL     1       5.082   3.539  13.150  0.00  0.00    +0.000 A 
ATOM     19  C   UNL     1       5.613   4.225  14.254  0.00  0.00    +0.000 A 
ATOM     20  C   UNL     1       4.880   4.355  15.449  0.00  0.00    +0.000 A 
ENDBRANCH   1  11
BRANCH   1  21
ATOM     21  O   UNL     1       5.323   6.137  18.633  0.00  0.00    +0.000 OA
ATOM     22  H   UNL     1       4.816   6.963  18.604  0.00  0.00    +0.000 HD
ENDBRANCH   1  21
TORSDOF 2
ENDMDL
MODEL 3
REMARK VINA RESULT:      -7.9      3.786      7.975
REMARK  Name = 
REMARK  2 active torsions:
REMARK  status: ('A' for Active; 'I' for Inactive)
REMARK    1  A    between atoms: O_1  and  C_2
REMARK    2  A    between atoms: C_2  and  C_3
REMARK                            x       y       z     vdW  Elec       q    Type
REMARK                         _______ _______ _______ _____ _____    ______ ____
ROOT
ATOM      1  C   UNL     1       3.099   6.362  18.804  0.00  0.00    +0.000 C 
ATOM      2  C   UNL     1       4.326   6.825  17.933  0.00  0.00    +0.000 C 
ATOM      3  N   UNL     1       5.159   5.693  17.444  0.00  0.00    +0.000 NA
ATOM      4  C   UNL     1       6.240   6.185  16.578  0.00  0.00    +0.000 C 
ATOM      5  C   UNL     1       7.091   5.030  16.046  0.00  0.00    +0.000 C 
ATOM      6  C   UNL     1       6.236   4.011  15.302  0.00  0.00    +0.000 C 
ATOM      7  C   UNL     1       5.072   3.554  16.180  0.00  0.00    +0.000 C 
ATOM      8  C   UNL     1       4.275   4.753  16.710  0.00  0.00    +0.000 C 
ATOM      9  C   UNL     1       3.131   4.287  17.631  0.00  0.00    +0.000 C 
ATOM     10  O   UNL     1       2.334   5.386  18.080  0.00  0.00    +0.000 OA
ENDROOT
BRANCH   1  11
ATOM     11  C   UNL     1       2.223   7.565  19.148  0.00  0.00    +0.000 A 
ATOM     12  C   UNL     1       1.911   8.515  18.167  0.00  0.00    +0.000 A 
ATOM     13  C   UNL     1       1.113   9.622  18.454  0.00  0.00    +0.000 A 
ATOM     14  C   UNL     1       0.610   9.814  19.753  0.00  0.00    +0.000 A 
ATOM     15  C   UNL     1      -0.187  10.927  20.069  0.00  0.00    +0.000 A 
ATOM     16  C   UNL     1      -0.670  11.104  21.367  0.00  0.00    +0.000 A 
ATOM     17  C   UNL     1      -0.361  10.177  22.358  0.00  0.00    +0.000 A 
ATOM     18  C   UNL     1       0.429   9.068  22.059  0.00  0.00    +0.000 A 
ATOM     19  C   UNL     1       0.920   8.877  20.757  0.00  0.00    +0.000 A 
ATOM     20  C   UNL     1       1.722   7.765  20.440  0.00  0.00    +0.000 A 
ENDBRANCH   1  11
BRANCH   1  21
ATOM     21  O   UNL     1       3.516   5.827  20.059  0.00  0.00    +0.000 OA
ATOM     22  H   UNL     1       4.438   5.546  19.948  0.00  0.00    +0.000 HD
ENDBRANCH   1  21
TORSDOF 2
ENDMDL
MODEL 4
REMARK VINA RESULT:      -7.4      3.695      7.620
REMARK  Name = 
REMARK  2 active torsions:
REMARK  status: ('A' for Active; 'I' for Inactive)
REMARK    1  A    between atoms: O_1  and  C_2
REMARK    2  A    between atoms: C_2  and  C_3
REMARK                            x       y       z     vdW  Elec       q    Type
REMARK                         _______ _______ _______ _____ _____    ______ ____
ROOT
ATOM      1  C   UNL     1       3.264   6.020  18.909  0.00  0.00    +0.000 C 
ATOM      2  C   UNL     1       4.417   6.607  18.012  0.00  0.00    +0.000 C 
ATOM      3  N   UNL     1       5.258   5.556  17.376  0.00  0.00    +0.000 NA
ATOM      4  C   UNL     1       6.264   6.165  16.494  0.00  0.00    +0.000 C 
ATOM      5  C   UNL     1       7.121   5.097  15.813  0.00  0.00    +0.000 C 
ATOM      6  C   UNL     1       6.259   4.112  15.034  0.00  0.00    +0.000 C 
ATOM      7  C   UNL     1       5.169   3.533  15.934  0.00  0.00    +0.000 C 
ATOM      8  C   UNL     1       4.363   4.648  16.614  0.00  0.00    +0.000 C 
ATOM      9  C   UNL     1       3.297   4.057  17.557  0.00  0.00    +0.000 C 
ATOM     10  O   UNL     1       2.491   5.079  18.147  0.00  0.00    +0.000 OA
ENDROOT
BRANCH   1  11
ATOM     11  C   UNL     1       2.368   7.151  19.409  0.00  0.00    +0.000 A 
ATOM     12  C   UNL     1       1.780   7.078  20.679  0.00  0.00    +0.000 A 
ATOM     13  C   UNL     1       0.959   8.096  21.161  0.00  0.00    +0.000 A 
ATOM     14  C   UNL     1       0.691   9.225  20.365  0.00  0.00    +0.000 A 
ATOM     15  C   UNL     1      -0.141  10.259  20.823  0.00  0.00    +0.000 A 
ATOM     16  C   UNL     1      -0.400  11.368  20.016  0.00  0.00    +0.000 A 
ATOM     17  C   UNL     1       0.165  11.454  18.747  0.00  0.00    +0.000 A 
ATOM     18  C   UNL     1       0.994  10.435  18.279  0.00  0.00    +0.000 A 
ATOM     19  C   UNL     1       1.264   9.315  19.082  0.00  0.00    +0.000 A 
ATOM     20  C   UNL     1       2.094   8.276  18.621  0.00  0.00    +0.000 A 
ENDBRANCH   1  11
BRANCH   1  21
ATOM     21  O   UNL     1       3.776   5.395  20.085  0.00  0.00    +0.000 OA
ATOM     22  H   UNL     1       3.008   5.130  20.615  0.00  0.00    +0.000 HD
ENDBRANCH   1  21
TORSDOF 2
ENDMDL
MODEL 5
REMARK VINA RESULT:      -7.2      4.216      7.806
REMARK  Name = 
REMARK  2 active torsions:
REMARK  status: ('A' for Active; 'I' for Inactive)
REMARK    1  A    between atoms: O_1  and  C_2
REMARK    2  A    between atoms: C_2  and  C_3
REMARK                            x       y       z     vdW  Elec       q    Type
REMARK                         _______ _______ _______ _____ _____    ______ ____
ROOT
ATOM      1  C   UNL     1       2.804   6.830  18.780  0.00  0.00    +0.000 C 
ATOM      2  C   UNL     1       1.880   5.583  18.514  0.00  0.00    +0.000 C 
ATOM      3  N   UNL     1       2.639   4.360  18.135  0.00  0.00    +0.000 NA
ATOM      4  C   UNL     1       1.729   3.217  17.975  0.00  0.00    +0.000 C 
ATOM      5  C   UNL     1       2.497   1.946  17.610  0.00  0.00    +0.000 C 
ATOM      6  C   UNL     1       3.567   1.631  18.647  0.00  0.00    +0.000 C 
ATOM      7  C   UNL     1       4.470   2.844  18.864  0.00  0.00    +0.000 C 
ATOM      8  C   UNL     1       3.645   4.095  19.195  0.00  0.00    +0.000 C 
ATOM      9  C   UNL     1       4.558   5.325  19.366  0.00  0.00    +0.000 C 
ATOM     10  O   UNL     1       3.813   6.486  19.743  0.00  0.00    +0.000 OA
ENDROOT
BRANCH   1  11
ATOM     11  C   UNL     1       1.965   7.997  19.295  0.00  0.00    +0.000 A 
ATOM     12  C   UNL     1       1.650   9.068  18.449  0.00  0.00    +0.000 A 
ATOM     13  C   UNL     1       0.885  10.147  18.893  0.00  0.00    +0.000 A 
ATOM     14  C   UNL     1       0.421  10.186  20.220  0.00  0.00    +0.000 A 
ATOM     15  C   UNL     1      -0.341  11.266  20.694  0.00  0.00    +0.000 A 
ATOM     16  C   UNL     1      -0.788  11.289  22.017  0.00  0.00    +0.000 A 
ATOM     17  C   UNL     1      -0.475  10.240  22.876  0.00  0.00    +0.000 A 
ATOM     18  C   UNL     1       0.281   9.161  22.419  0.00  0.00    +0.000 A 
ATOM     19  C   UNL     1       0.734   9.124  21.091  0.00  0.00    +0.000 A 
ATOM     20  C   UNL     1       1.502   8.044  20.616  0.00  0.00    +0.000 A 
ENDBRANCH   1  11
BRANCH   1  21
ATOM     21  O   UNL     1       3.412   7.302  17.579  0.00  0.00    +0.000 OA
ATOM     22  H   UNL     1       4.354   7.423  17.776  0.00  0.00    +0.000 HD
ENDBRANCH   1  21
TORSDOF 2
ENDMDL
MODEL 6
REMARK VINA RESULT:      -7.0      5.527      7.267
REMARK  Name = 
REMARK  2 active torsions:
REMARK  status: ('A' for Active; 'I' for Inactive)
REMARK    1  A    between atoms: O_1  and  C_2
REMARK    2  A    between atoms: C_2  and  C_3
REMARK                            x       y       z     vdW  Elec       q    Type
REMARK                         _______ _______ _______ _____ _____    ______ ____
ROOT
ATOM      1  C   UNL     1       1.245   9.594  18.398  0.00  0.00    +0.000 C 
ATOM      2  C   UNL     1       1.034  10.186  19.841  0.00  0.00    +0.000 C 
ATOM      3  N   UNL     1       0.089  11.335  19.872  0.00  0.00    +0.000 NA
ATOM      4  C   UNL     1      -0.123  11.791  21.253  0.00  0.00    +0.000 C 
ATOM      5  C   UNL     1      -1.113  12.956  21.304  0.00  0.00    +0.000 C 
ATOM      6  C   UNL     1      -2.441  12.581  20.659  0.00  0.00    +0.000 C 
ATOM      7  C   UNL     1      -2.212  12.041  19.249  0.00  0.00    +0.000 C 
ATOM      8  C   UNL     1      -1.189  10.897  19.254  0.00  0.00    +0.000 C 
ATOM      9  C   UNL     1      -0.928  10.388  17.823  0.00  0.00    +0.000 C 
ATOM     10  O   UNL     1      -0.029   9.277  17.815  0.00  0.00    +0.000 OA
ENDROOT
BRANCH   1  11
ATOM     11  C   UNL     1       2.114   8.340  18.472  0.00  0.00    +0.000 A 
ATOM     12  C   UNL     1       2.011   7.473  19.567  0.00  0.00    +0.000 A 
ATOM     13  C   UNL     1       2.792   6.321  19.660  0.00  0.00    +0.000 A 
ATOM     14  C   UNL     1       3.719   6.012  18.649  0.00  0.00    +0.000 A 
ATOM     15  C   UNL     1       4.524   4.864  18.725  0.00  0.00    +0.000 A 
ATOM     16  C   UNL     1       5.443   4.577  17.714  0.00  0.00    +0.000 A 
ATOM     17  C   UNL     1       5.570   5.433  16.624  0.00  0.00    +0.000 A 
ATOM     18  C   UNL     1       4.776   6.576  16.535  0.00  0.00    +0.000 A 
ATOM     19  C   UNL     1       3.846   6.875  17.544  0.00  0.00    +0.000 A 
ATOM     20  C   UNL     1       3.042   8.028  17.471  0.00  0.00    +0.000 A 
ENDBRANCH   1  11
BRANCH   1  21
ATOM     21  O   UNL     1       1.958  10.499  17.556  0.00  0.00    +0.000 OA
ATOM     22  H   UNL     1       1.411  10.631  16.766  0.00  0.00    +0.000 HD
ENDBRANCH   1  21
TORSDOF 2
ENDMDL
MODEL 7
REMARK VINA RESULT:      -7.0      5.113      6.872
REMARK  Name = 
REMARK  2 active torsions:
REMARK  status: ('A' for Active; 'I' for Inactive)
REMARK    1  A    between atoms: O_1  and  C_2
REMARK    2  A    between atoms: C_2  and  C_3
REMARK                            x       y       z     vdW  Elec       q    Type
REMARK                         _______ _______ _______ _____ _____    ______ ____
ROOT
ATOM      1  C   UNL     1       1.456   9.229  18.197  0.00  0.00    +0.000 C 
ATOM      2  C   UNL     1       1.384   9.553  19.736  0.00  0.00    +0.000 C 
ATOM      3  N   UNL     1       0.545  10.743  20.047  0.00  0.00    +0.000 NA
ATOM      4  C   UNL     1       0.457  10.946  21.500  0.00  0.00    +0.000 C 
ATOM      5  C   UNL     1      -0.422  12.151  21.837  0.00  0.00    +0.000 C 
ATOM      6  C   UNL     1      -1.814  12.004  21.236  0.00  0.00    +0.000 C 
ATOM      7  C   UNL     1      -1.718  11.724  19.737  0.00  0.00    +0.000 C 
ATOM      8  C   UNL     1      -0.800  10.526  19.457  0.00  0.00    +0.000 C 
ATOM      9  C   UNL     1      -0.670  10.278  17.941  0.00  0.00    +0.000 C 
ATOM     10  O   UNL     1       0.126   9.124  17.663  0.00  0.00    +0.000 OA
ENDROOT
BRANCH   1  11
ATOM     11  C   UNL     1       2.215   7.923  17.976  0.00  0.00    +0.000 A 
ATOM     12  C   UNL     1       3.553   7.944  17.564  0.00  0.00    +0.000 A 
ATOM     13  C   UNL     1       4.270   6.766  17.355  0.00  0.00    +0.000 A 
ATOM     14  C   UNL     1       3.650   5.518  17.545  0.00  0.00    +0.000 A 
ATOM     15  C   UNL     1       4.347   4.318  17.331  0.00  0.00    +0.000 A 
ATOM     16  C   UNL     1       3.712   3.089  17.518  0.00  0.00    +0.000 A 
ATOM     17  C   UNL     1       2.379   3.046  17.915  0.00  0.00    +0.000 A 
ATOM     18  C   UNL     1       1.674   4.230  18.132  0.00  0.00    +0.000 A 
ATOM     19  C   UNL     1       2.302   5.473  17.949  0.00  0.00    +0.000 A 
ATOM     20  C   UNL     1       1.603   6.676  18.159  0.00  0.00    +0.000 A 
ENDBRANCH   1  11
BRANCH   1  21
ATOM     21  O   UNL     1       2.194  10.220  17.484  0.00  0.00    +0.000 OA
ATOM     22  H   UNL     1       2.838   9.745  16.937  0.00  0.00    +0.000 HD
ENDBRANCH   1  21
TORSDOF 2
ENDMDL
MODEL 8
REMARK VINA RESULT:      -6.8      5.567      7.741
REMARK  Name = 
REMARK  2 active torsions:
REMARK  status: ('A' for Active; 'I' for Inactive)
REMARK    1  A    between atoms: O_1  and  C_2
REMARK    2  A    between atoms: C_2  and  C_3
REMARK                            x       y       z     vdW  Elec       q    Type
REMARK                         _______ _______ _______ _____ _____    ______ ____
ROOT
ATOM      1  C   UNL     1       1.243   9.641  18.438  0.00  0.00    +0.000 C 
ATOM      2  C   UNL     1       1.070  10.220  19.892  0.00  0.00    +0.000 C 
ATOM      3  N   UNL     1       0.187  11.417  19.945  0.00  0.00    +0.000 NA
ATOM      4  C   UNL     1       0.005  11.862  21.334  0.00  0.00    +0.000 C 
ATOM      5  C   UNL     1      -0.920  13.077  21.409  0.00  0.00    +0.000 C 
ATOM      6  C   UNL     1      -2.269  12.785  20.764  0.00  0.00    +0.000 C 
ATOM      7  C   UNL     1      -2.075  12.255  19.344  0.00  0.00    +0.000 C 
ATOM      8  C   UNL     1      -1.114  11.059  19.326  0.00  0.00    +0.000 C 
ATOM      9  C   UNL     1      -0.887  10.559  17.886  0.00  0.00    +0.000 C 
ATOM     10  O   UNL     1      -0.048   9.402  17.856  0.00  0.00    +0.000 OA
ENDROOT
BRANCH   1  11
ATOM     11  C   UNL     1       2.044   8.341  18.489  0.00  0.00    +0.000 A 
ATOM     12  C   UNL     1       3.073   8.109  17.568  0.00  0.00    +0.000 A 
ATOM     13  C   UNL     1       3.820   6.932  17.592  0.00  0.00    +0.000 A 
ATOM     14  C   UNL     1       3.542   5.937  18.546  0.00  0.00    +0.000 A 
ATOM     15  C   UNL     1       4.273   4.739  18.584  0.00  0.00    +0.000 A 
ATOM     16  C   UNL     1       3.977   3.760  19.534  0.00  0.00    +0.000 A 
ATOM     17  C   UNL     1       2.949   3.966  20.450  0.00  0.00    +0.000 A 
ATOM     18  C   UNL     1       2.216   5.152  20.425  0.00  0.00    +0.000 A 
ATOM     19  C   UNL     1       2.504   6.145  19.475  0.00  0.00    +0.000 A 
ATOM     20  C   UNL     1       1.770   7.345  19.434  0.00  0.00    +0.000 A 
ENDBRANCH   1  11
BRANCH   1  21
ATOM     21  O   UNL     1       2.000  10.519  17.608  0.00  0.00    +0.000 OA
ATOM     22  H   UNL     1       2.582   9.959  17.070  0.00  0.00    +0.000 HD
ENDBRANCH   1  21
TORSDOF 2
ENDMDL
MODEL 9
REMARK VINA RESULT:      -6.8      6.678      8.875
REMARK  Name = 
REMARK  2 active torsions:
REMARK  status: ('A' for Active; 'I' for Inactive)
REMARK    1  A    between atoms: O_1  and  C_2
REMARK    2  A    between atoms: C_2  and  C_3
REMARK                            x       y       z     vdW  Elec       q    Type
REMARK                         _______ _______ _______ _____ _____    ______ ____
ROOT
ATOM      1  C   UNL     1       0.422  11.057  19.861  0.00  0.00    +0.000 C 
ATOM      2  C   UNL     1      -0.286  10.795  21.242  0.00  0.00    +0.000 C 
ATOM      3  N   UNL     1      -1.118  11.941  21.701  0.00  0.00    +0.000 NA
ATOM      4  C   UNL     1      -1.810  11.606  22.954  0.00  0.00    +0.000 C 
ATOM      5  C   UNL     1      -2.690  12.765  23.426  0.00  0.00    +0.000 C 
ATOM      6  C   UNL     1      -3.696  13.168  22.354  0.00  0.00    +0.000 C 
ATOM      7  C   UNL     1      -2.981  13.447  21.033  0.00  0.00    +0.000 C 
ATOM      8  C   UNL     1      -2.090  12.265  20.626  0.00  0.00    +0.000 C 
ATOM      9  C   UNL     1      -1.336  12.572  19.317  0.00  0.00    +0.000 C 
ATOM     10  O   UNL     1      -0.554  11.457  18.886  0.00  0.00    +0.000 OA
ENDROOT
BRANCH   1  11
ATOM     11  C   UNL     1       1.138   9.790  19.397  0.00  0.00    +0.000 A 
ATOM     12  C   UNL     1       1.721   9.734  18.124  0.00  0.00    +0.000 A 
ATOM     13  C   UNL     1       2.381   8.591  17.675  0.00  0.00    +0.000 A 
ATOM     14  C   UNL     1       2.465   7.453  18.498  0.00  0.00    +0.000 A 
ATOM     15  C   UNL     1       3.115   6.286  18.065  0.00  0.00    +0.000 A 
ATOM     16  C   UNL     1       3.182   5.165  18.895  0.00  0.00    +0.000 A 
ATOM     17  C   UNL     1       2.598   5.197  20.158  0.00  0.00    +0.000 A 
ATOM     18  C   UNL     1       1.950   6.349  20.601  0.00  0.00    +0.000 A 
ATOM     19  C   UNL     1       1.877   7.484  19.778  0.00  0.00    +0.000 A 
ATOM     20  C   UNL     1       1.222   8.653  20.210  0.00  0.00    +0.000 A 
ENDBRANCH   1  11
BRANCH   1  21
ATOM     21  O   UNL     1       1.441  12.049  19.970  0.00  0.00    +0.000 OA
ATOM     22  H   UNL     1       2.094  11.852  19.280  0.00  0.00    +0.000 HD
ENDBRANCH   1  21
TORSDOF 2
ENDMDL
