MODEL 1
REMARK VINA RESULT:      -7.3      0.000      0.000
REMARK  Name = 
REMARK  2 active torsions:
REMARK  status: ('A' for Active; 'I' for Inactive)
REMARK    1  A    between atoms: C_2  and  C_3
REMARK    2  A    between atoms: C_6  and  C_7
REMARK                            x       y       z     vdW  Elec       q    Type
REMARK                         _______ _______ _______ _____ _____    ______ ____
ROOT
ATOM      1  C   UNL     1       2.889   6.222  18.543  0.00  0.00    +0.000 A 
ATOM      2  C   UNL     1       2.506   6.010  19.857  0.00  0.00    +0.000 A 
ATOM      3  C   UNL     1       1.856   7.146  20.421  0.00  0.00    +0.000 A 
ATOM      4  C   UNL     1       1.735   8.182  19.515  0.00  0.00    +0.000 A 
ATOM      5  S   UNL     1       2.599   7.840  18.073  0.00  0.00    +0.000 S 
ENDROOT
BRANCH   1   7
ATOM      6  O   UNL     1       2.979   4.207  17.331  0.00  0.00    +0.000 OA
ATOM      7  C   UNL     1       3.487   5.298  17.591  0.00  0.00    +0.000 C 
ATOM      8  N   UNL     1       4.682   5.686  16.975  0.00  0.00    +0.000 N 
ATOM      9  C   UNL     1       5.264   4.846  15.928  0.00  0.00    +0.000 C 
ATOM     10  C   UNL     1       6.691   4.426  16.296  0.00  0.00    +0.000 C 
ATOM     11  O   UNL     1       7.505   5.576  16.584  0.00  0.00    +0.000 OA
ATOM     12  C   UNL     1       6.966   6.310  17.689  0.00  0.00    +0.000 C 
ATOM     13  C   UNL     1       5.547   6.803  17.383  0.00  0.00    +0.000 C 
ENDBRANCH   1   7
BRANCH   4  14
ATOM     14  C   UNL     1       1.036   9.455  19.620  0.00  0.00    +0.000 C 
ATOM     15  O   UNL     1       0.535  10.005  18.636  0.00  0.00    +0.000 OA
ATOM     16  N   UNL     1       0.909  10.028  20.890  0.00  0.00    +0.000 N 
ATOM     17  C   UNL     1       1.342   9.455  22.171  0.00  0.00    +0.000 C 
ATOM     18  C   UNL     1       0.194   9.416  23.185  0.00  0.00    +0.000 C 
ATOM     19  O   UNL     1      -0.429  10.700  23.324  0.00  0.00    +0.000 OA
ATOM     20  C   UNL     1      -0.945  11.147  22.059  0.00  0.00    +0.000 C 
ATOM     21  C   UNL     1       0.185  11.296  21.034  0.00  0.00    +0.000 C 
ENDBRANCH   4  14
TORSDOF 2
ENDMDL
MODEL 2
REMARK VINA RESULT:      -7.2      2.320      7.591
REMARK  Name = 
REMARK  2 active torsions:
REMARK  status: ('A' for Active; 'I' for Inactive)
REMARK    1  A    between atoms: C_2  and  C_3
REMARK    2  A    between atoms: C_6  and  C_7
REMARK                            x       y       z     vdW  Elec       q    Type
REMARK                         _______ _______ _______ _____ _____    ______ ____
ROOT
ATOM      1  C   UNL     1       1.304   9.054  19.644  0.00  0.00    +0.000 A 
ATOM      2  C   UNL     1       1.261   8.093  20.640  0.00  0.00    +0.000 A 
ATOM      3  C   UNL     1       1.961   6.906  20.276  0.00  0.00    +0.000 A 
ATOM      4  C   UNL     1       2.541   7.005  19.026  0.00  0.00    +0.000 A 
ATOM      5  S   UNL     1       2.048   8.443  18.232  0.00  0.00    +0.000 S 
ENDROOT
BRANCH   1   7
ATOM      6  O   UNL     1       1.179  11.249  20.484  0.00  0.00    +0.000 OA
ATOM      7  C   UNL     1       0.803  10.422  19.653  0.00  0.00    +0.000 C 
ATOM      8  N   UNL     1      -0.139  10.773  18.681  0.00  0.00    +0.000 N 
ATOM      9  C   UNL     1      -0.588  12.162  18.574  0.00  0.00    +0.000 C 
ATOM     10  C   UNL     1      -2.109  12.256  18.730  0.00  0.00    +0.000 C 
ATOM     11  O   UNL     1      -2.775  11.397  17.787  0.00  0.00    +0.000 OA
ATOM     12  C   UNL     1      -2.397  10.032  17.997  0.00  0.00    +0.000 C 
ATOM     13  C   UNL     1      -0.886   9.844  17.819  0.00  0.00    +0.000 C 
ENDBRANCH   1   7
BRANCH   4  14
ATOM     14  C   UNL     1       3.440   6.098  18.326  0.00  0.00    +0.000 C 
ATOM     15  O   UNL     1       4.642   6.344  18.199  0.00  0.00    +0.000 OA
ATOM     16  N   UNL     1       2.907   4.904  17.827  0.00  0.00    +0.000 N 
ATOM     17  C   UNL     1       1.535   4.408  17.990  0.00  0.00    +0.000 C 
ATOM     18  C   UNL     1       1.516   2.991  18.572  0.00  0.00    +0.000 C 
ATOM     19  O   UNL     1       2.352   2.101  17.821  0.00  0.00    +0.000 OA
ATOM     20  C   UNL     1       3.708   2.578  17.807  0.00  0.00    +0.000 C 
ATOM     21  C   UNL     1       3.793   3.956  17.143  0.00  0.00    +0.000 C 
ENDBRANCH   4  14
TORSDOF 2
ENDMDL
MODEL 3
REMARK VINA RESULT:      -7.1      2.704      3.938
REMARK  Name = 
REMARK  2 active torsions:
REMARK  status: ('A' for Active; 'I' for Inactive)
REMARK    1  A    between atoms: C_2  and  C_3
REMARK    2  A    between atoms: C_6  and  C_7
REMARK                            x       y       z     vdW  Elec       q    Type
REMARK                         _______ _______ _______ _____ _____    ______ ____
ROOT
ATOM      1  C   UNL     1       2.650   6.822  19.350  0.00  0.00    +0.000 A 
ATOM      2  C   UNL     1       2.465   7.605  18.223  0.00  0.00    +0.000 A 
ATOM      3  C   UNL     1       1.716   8.785  18.502  0.00  0.00    +0.000 A 
ATOM      4  C   UNL     1       1.375   8.884  19.837  0.00  0.00    +0.000 A 
ATOM      5  S   UNL     1       1.780   7.446  20.681  0.00  0.00    +0.000 S 
ENDROOT
BRANCH   1   7
ATOM      6  O   UNL     1       4.657   5.598  19.455  0.00  0.00    +0.000 OA
ATOM      7  C   UNL     1       3.428   5.601  19.513  0.00  0.00    +0.000 C 
ATOM      8  N   UNL     1       2.726   4.412  19.734  0.00  0.00    +0.000 N 
ATOM      9  C   UNL     1       3.461   3.178  20.018  0.00  0.00    +0.000 C 
ATOM     10  C   UNL     1       3.113   2.089  18.997  0.00  0.00    +0.000 C 
ATOM     11  O   UNL     1       1.693   1.873  18.943  0.00  0.00    +0.000 OA
ATOM     12  C   UNL     1       1.016   3.073  18.550  0.00  0.00    +0.000 C 
ATOM     13  C   UNL     1       1.282   4.207  19.547  0.00  0.00    +0.000 C 
ENDBRANCH   1   7
BRANCH   4  14
ATOM     14  C   UNL     1       0.737   9.966  20.573  0.00  0.00    +0.000 C 
ATOM     15  O   UNL     1       1.259  10.469  21.571  0.00  0.00    +0.000 OA
ATOM     16  N   UNL     1      -0.480  10.457  20.090  0.00  0.00    +0.000 N 
ATOM     17  C   UNL     1      -1.176  10.053  18.862  0.00  0.00    +0.000 C 
ATOM     18  C   UNL     1      -1.497  11.262  17.976  0.00  0.00    +0.000 C 
ATOM     19  O   UNL     1      -2.189  12.282  18.708  0.00  0.00    +0.000 OA
ATOM     20  C   UNL     1      -1.399  12.724  19.824  0.00  0.00    +0.000 C 
ATOM     21  C   UNL     1      -1.134  11.567  20.793  0.00  0.00    +0.000 C 
ENDBRANCH   4  14
TORSDOF 2
ENDMDL
MODEL 4
REMARK VINA RESULT:      -7.0      2.600      7.828
REMARK  Name = 
REMARK  2 active torsions:
REMARK  status: ('A' for Active; 'I' for Inactive)
REMARK    1  A    between atoms: C_2  and  C_3
REMARK    2  A    between atoms: C_6  and  C_7
REMARK                            x       y       z     vdW  Elec       q    Type
REMARK                         _______ _______ _______ _____ _____    ______ ____
ROOT
ATOM      1  C   UNL     1       1.108   9.719  19.037  0.00  0.00    +0.000 A 
ATOM      2  C   UNL     1       1.823   9.423  17.888  0.00  0.00    +0.000 A 
ATOM      3  C   UNL     1       2.476   8.159  17.968  0.00  0.00    +0.000 A 
ATOM      4  C   UNL     1       2.218   7.512  19.162  0.00  0.00    +0.000 A 
ATOM      5  S   UNL     1       1.371   8.539  20.245  0.00  0.00    +0.000 S 
ENDROOT
BRANCH   1   7
ATOM      6  O   UNL     1       0.437  11.606  20.271  0.00  0.00    +0.000 OA
ATOM      7  C   UNL     1       0.236  10.850  19.321  0.00  0.00    +0.000 C 
ATOM      8  N   UNL     1      -0.859  11.052  18.475  0.00  0.00    +0.000 N 
ATOM      9  C   UNL     1      -1.699  12.238  18.647  0.00  0.00    +0.000 C 
ATOM     10  C   UNL     1      -3.159  11.841  18.888  0.00  0.00    +0.000 C 
ATOM     11  O   UNL     1      -3.638  10.985  17.836  0.00  0.00    +0.000 OA
ATOM     12  C   UNL     1      -2.862   9.784  17.773  0.00  0.00    +0.000 C 
ATOM     13  C   UNL     1      -1.387  10.093  17.493  0.00  0.00    +0.000 C 
ENDBRANCH   1   7
BRANCH   4  14
ATOM     14  C   UNL     1       2.566   6.170  19.605  0.00  0.00    +0.000 C 
ATOM     15  O   UNL     1       1.882   5.561  20.432  0.00  0.00    +0.000 OA
ATOM     16  N   UNL     1       3.689   5.563  19.033  0.00  0.00    +0.000 N 
ATOM     17  C   UNL     1       4.538   6.098  17.962  0.00  0.00    +0.000 C 
ATOM     18  C   UNL     1       4.667   5.106  16.800  0.00  0.00    +0.000 C 
ATOM     19  O   UNL     1       5.082   3.812  17.257  0.00  0.00    +0.000 OA
ATOM     20  C   UNL     1       4.141   3.289  18.208  0.00  0.00    +0.000 C 
ATOM     21  C   UNL     1       4.049   4.199  19.438  0.00  0.00    +0.000 C 
ENDBRANCH   4  14
TORSDOF 2
ENDMDL
MODEL 5
REMARK VINA RESULT:      -6.9      2.093      7.637
REMARK  Name = 
REMARK  2 active torsions:
REMARK  status: ('A' for Active; 'I' for Inactive)
REMARK    1  A    between atoms: C_2  and  C_3
REMARK    2  A    between atoms: C_6  and  C_7
REMARK                            x       y       z     vdW  Elec       q    Type
REMARK                         _______ _______ _______ _____ _____    ______ ____
ROOT
ATOM      1  C   UNL     1       1.289   8.536  19.828  0.00  0.00    +0.000 A 
ATOM      2  C   UNL     1       1.474   9.069  18.563  0.00  0.00    +0.000 A 
ATOM      3  C   UNL     1       2.371   8.292  17.775  0.00  0.00    +0.000 A 
ATOM      4  C   UNL     1       2.822   7.172  18.448  0.00  0.00    +0.000 A 
ATOM      5  S   UNL     1       2.323   7.200  20.089  0.00  0.00    +0.000 S 
ENDROOT
BRANCH   1   7
ATOM      6  O   UNL     1      -0.361   8.180  21.467  0.00  0.00    +0.000 OA
ATOM      7  C   UNL     1       0.393   8.965  20.893  0.00  0.00    +0.000 C 
ATOM      8  N   UNL     1       0.408  10.318  21.246  0.00  0.00    +0.000 N 
ATOM      9  C   UNL     1      -0.387  10.780  22.384  0.00  0.00    +0.000 C 
ATOM     10  C   UNL     1      -1.370  11.874  21.954  0.00  0.00    +0.000 C 
ATOM     11  O   UNL     1      -0.681  12.954  21.301  0.00  0.00    +0.000 OA
ATOM     12  C   UNL     1      -0.008  12.484  20.128  0.00  0.00    +0.000 C 
ATOM     13  C   UNL     1       1.027  11.409  20.478  0.00  0.00    +0.000 C 
ENDBRANCH   1   7
BRANCH   4  14
ATOM     14  C   UNL     1       3.632   6.054  17.987  0.00  0.00    +0.000 C 
ATOM     15  O   UNL     1       4.863   6.121  17.935  0.00  0.00    +0.000 OA
ATOM     16  N   UNL     1       2.975   4.870  17.637  0.00  0.00    +0.000 N 
ATOM     17  C   UNL     1       1.539   4.585  17.749  0.00  0.00    +0.000 C 
ATOM     18  C   UNL     1       1.282   3.301  18.545  0.00  0.00    +0.000 C 
ATOM     19  O   UNL     1       2.037   2.199  18.025  0.00  0.00    +0.000 OA
ATOM     20  C   UNL     1       3.443   2.492  18.061  0.00  0.00    +0.000 C 
ATOM     21  C   UNL     1       3.766   3.715  17.197  0.00  0.00    +0.000 C 
ENDBRANCH   4  14
TORSDOF 2
ENDMDL
MODEL 6
REMARK VINA RESULT:      -6.8      2.814      3.980
REMARK  Name = 
REMARK  2 active torsions:
REMARK  status: ('A' for Active; 'I' for Inactive)
REMARK    1  A    between atoms: C_2  and  C_3
REMARK    2  A    between atoms: C_6  and  C_7
REMARK                            x       y       z     vdW  Elec       q    Type
REMARK                         _______ _______ _______ _____ _____    ______ ____
ROOT
ATOM      1  C   UNL     1       2.147   7.685  19.335  0.00  0.00    +0.000 A 
ATOM      2  C   UNL     1       1.651   8.012  20.586  0.00  0.00    +0.000 A 
ATOM      3  C   UNL     1       0.836   9.180  20.555  0.00  0.00    +0.000 A 
ATOM      4  C   UNL     1       0.708   9.695  19.280  0.00  0.00    +0.000 A 
ATOM      5  S   UNL     1       1.750   8.884  18.184  0.00  0.00    +0.000 S 
ENDROOT
BRANCH   1   7
ATOM      6  O   UNL     1       3.715   6.579  17.972  0.00  0.00    +0.000 OA
ATOM      7  C   UNL     1       2.932   6.530  18.921  0.00  0.00    +0.000 C 
ATOM      8  N   UNL     1       2.763   5.342  19.639  0.00  0.00    +0.000 N 
ATOM      9  C   UNL     1       3.609   4.186  19.338  0.00  0.00    +0.000 C 
ATOM     10  C   UNL     1       2.756   2.971  18.957  0.00  0.00    +0.000 C 
ATOM     11  O   UNL     1       1.788   2.683  19.981  0.00  0.00    +0.000 OA
ATOM     12  C   UNL     1       0.907   3.795  20.167  0.00  0.00    +0.000 C 
ATOM     13  C   UNL     1       1.681   5.049  20.591  0.00  0.00    +0.000 C 
ENDBRANCH   1   7
BRANCH   4  14
ATOM     14  C   UNL     1      -0.121  10.781  18.776  0.00  0.00    +0.000 C 
ATOM     15  O   UNL     1      -1.285  10.594  18.413  0.00  0.00    +0.000 OA
ATOM     16  N   UNL     1       0.428  12.067  18.752  0.00  0.00    +0.000 N 
ATOM     17  C   UNL     1       1.746  12.479  19.252  0.00  0.00    +0.000 C 
ATOM     18  C   UNL     1       1.632  13.643  20.241  0.00  0.00    +0.000 C 
ATOM     19  O   UNL     1       0.872  14.728  19.693  0.00  0.00    +0.000 OA
ATOM     20  C   UNL     1      -0.450  14.288  19.342  0.00  0.00    +0.000 C 
ATOM     21  C   UNL     1      -0.392  13.187  18.278  0.00  0.00    +0.000 C 
ENDBRANCH   4  14
TORSDOF 2
ENDMDL
MODEL 7
REMARK VINA RESULT:      -6.8      0.806      7.671
REMARK  Name = 
REMARK  2 active torsions:
REMARK  status: ('A' for Active; 'I' for Inactive)
REMARK    1  A    between atoms: C_2  and  C_3
REMARK    2  A    between atoms: C_6  and  C_7
REMARK                            x       y       z     vdW  Elec       q    Type
REMARK                         _______ _______ _______ _____ _____    ______ ____
ROOT
ATOM      1  C   UNL     1       1.817   7.948  19.387  0.00  0.00    +0.000 A 
ATOM      2  C   UNL     1       2.009   7.027  20.403  0.00  0.00    +0.000 A 
ATOM      3  C   UNL     1       2.655   5.843  19.943  0.00  0.00    +0.000 A 
ATOM      4  C   UNL     1       2.964   5.905  18.598  0.00  0.00    +0.000 A 
ATOM      5  S   UNL     1       2.274   7.299  17.874  0.00  0.00    +0.000 S 
ENDROOT
BRANCH   1   7
ATOM      6  O   UNL     1       1.707  10.205  18.728  0.00  0.00    +0.000 OA
ATOM      7  C   UNL     1       1.286   9.303  19.452  0.00  0.00    +0.000 C 
ATOM      8  N   UNL     1       0.273   9.557  20.383  0.00  0.00    +0.000 N 
ATOM      9  C   UNL     1      -0.373  10.870  20.411  0.00  0.00    +0.000 C 
ATOM     10  C   UNL     1      -0.238  11.515  21.794  0.00  0.00    +0.000 C 
ATOM     11  O   UNL     1      -0.742  10.641  22.818  0.00  0.00    +0.000 OA
ATOM     12  C   UNL     1      -0.010   9.411  22.835  0.00  0.00    +0.000 C 
ATOM     13  C   UNL     1      -0.128   8.680  21.492  0.00  0.00    +0.000 C 
ENDBRANCH   1   7
BRANCH   4  14
ATOM     14  C   UNL     1       3.728   4.992  17.760  0.00  0.00    +0.000 C 
ATOM     15  O   UNL     1       3.189   4.065  17.149  0.00  0.00    +0.000 OA
ATOM     16  N   UNL     1       5.103   5.219  17.629  0.00  0.00    +0.000 N 
ATOM     17  C   UNL     1       5.876   6.334  18.189  0.00  0.00    +0.000 C 
ATOM     18  C   UNL     1       6.680   7.060  17.105  0.00  0.00    +0.000 C 
ATOM     19  O   UNL     1       7.479   6.147  16.342  0.00  0.00    +0.000 OA
ATOM     20  C   UNL     1       6.648   5.155  15.715  0.00  0.00    +0.000 C 
ATOM     21  C   UNL     1       5.895   4.334  16.767  0.00  0.00    +0.000 C 
ENDBRANCH   4  14
TORSDOF 2
ENDMDL
MODEL 8
REMARK VINA RESULT:      -6.8      1.453      2.005
REMARK  Name = 
REMARK  2 active torsions:
REMARK  status: ('A' for Active; 'I' for Inactive)
REMARK    1  A    between atoms: C_2  and  C_3
REMARK    2  A    between atoms: C_6  and  C_7
REMARK                            x       y       z     vdW  Elec       q    Type
REMARK                         _______ _______ _______ _____ _____    ______ ____
ROOT
ATOM      1  C   UNL     1       2.861   6.665  18.325  0.00  0.00    +0.000 A 
ATOM      2  C   UNL     1       2.577   7.858  17.681  0.00  0.00    +0.000 A 
ATOM      3  C   UNL     1       1.891   8.778  18.526  0.00  0.00    +0.000 A 
ATOM      4  C   UNL     1       1.696   8.274  19.798  0.00  0.00    +0.000 A 
ATOM      5  S   UNL     1       2.153   6.622  19.880  0.00  0.00    +0.000 S 
ENDROOT
BRANCH   1   7
ATOM      6  O   UNL     1       3.257   4.360  18.070  0.00  0.00    +0.000 OA
ATOM      7  C   UNL     1       3.621   5.516  17.854  0.00  0.00    +0.000 C 
ATOM      8  N   UNL     1       4.801   5.766  17.146  0.00  0.00    +0.000 N 
ATOM      9  C   UNL     1       5.541   4.651  16.553  0.00  0.00    +0.000 C 
ATOM     10  C   UNL     1       6.980   4.611  17.080  0.00  0.00    +0.000 C 
ATOM     11  O   UNL     1       7.638   5.872  16.868  0.00  0.00    +0.000 OA
ATOM     12  C   UNL     1       6.948   6.921  17.557  0.00  0.00    +0.000 C 
ATOM     13  C   UNL     1       5.505   7.054  17.058  0.00  0.00    +0.000 C 
ENDBRANCH   1   7
BRANCH   4  14
ATOM     14  C   UNL     1       1.167   8.909  20.996  0.00  0.00    +0.000 C 
ATOM     15  O   UNL     1       1.694   8.753  22.101  0.00  0.00    +0.000 OA
ATOM     16  N   UNL     1       0.055   9.746  20.857  0.00  0.00    +0.000 N 
ATOM     17  C   UNL     1      -0.618  10.128  19.609  0.00  0.00    +0.000 C 
ATOM     18  C   UNL     1      -0.725  11.651  19.473  0.00  0.00    +0.000 C 
ATOM     19  O   UNL     1      -1.316  12.243  20.637  0.00  0.00    +0.000 OA
ATOM     20  C   UNL     1      -0.539  11.937  21.806  0.00  0.00    +0.000 C 
ATOM     21  C   UNL     1      -0.484  10.423  22.041  0.00  0.00    +0.000 C 
ENDBRANCH   4  14
TORSDOF 2
ENDMDL
MODEL 9
REMARK VINA RESULT:      -6.7      2.190      7.586
REMARK  Name = 
REMARK  2 active torsions:
REMARK  status: ('A' for Active; 'I' for Inactive)
REMARK    1  A    between atoms: C_2  and  C_3
REMARK    2  A    between atoms: C_6  and  C_7
REMARK                            x       y       z     vdW  Elec       q    Type
REMARK                         _______ _______ _______ _____ _____    ______ ____
ROOT
ATOM      1  C   UNL     1       1.783   8.960  19.004  0.00  0.00    +0.000 A 
ATOM      2  C   UNL     1       1.546   8.268  20.181  0.00  0.00    +0.000 A 
ATOM      3  C   UNL     1       2.135   6.970  20.172  0.00  0.00    +0.000 A 
ATOM      4  C   UNL     1       2.828   6.719  19.004  0.00  0.00    +0.000 A 
ATOM      5  S   UNL     1       2.571   7.968  17.857  0.00  0.00    +0.000 S 
ENDROOT
BRANCH   1   7
ATOM      6  O   UNL     1       2.194  11.039  17.981  0.00  0.00    +0.000 OA
ATOM      7  C   UNL     1       1.442  10.331  18.650  0.00  0.00    +0.000 C 
ATOM      8  N   UNL     1       0.218  10.832  19.106  0.00  0.00    +0.000 N 
ATOM      9  C   UNL     1      -0.224  12.161  18.684  0.00  0.00    +0.000 C 
ATOM     10  C   UNL     1      -0.477  13.063  19.897  0.00  0.00    +0.000 C 
ATOM     11  O   UNL     1      -1.405  12.447  20.807  0.00  0.00    +0.000 OA
ATOM     12  C   UNL     1      -0.886  11.202  21.288  0.00  0.00    +0.000 C 
ATOM     13  C   UNL     1      -0.642  10.224  20.133  0.00  0.00    +0.000 C 
ENDBRANCH   1   7
BRANCH   4  14
ATOM     14  C   UNL     1       3.674   5.595  18.629  0.00  0.00    +0.000 C 
ATOM     15  O   UNL     1       4.894   5.609  18.816  0.00  0.00    +0.000 OA
ATOM     16  N   UNL     1       3.057   4.465  18.082  0.00  0.00    +0.000 N 
ATOM     17  C   UNL     1       1.618   4.239  17.901  0.00  0.00    +0.000 C 
ATOM     18  C   UNL     1       1.171   2.922  18.544  0.00  0.00    +0.000 C 
ATOM     19  O   UNL     1       1.975   1.821  18.102  0.00  0.00    +0.000 OA
ATOM     20  C   UNL     1       3.357   2.047  18.424  0.00  0.00    +0.000 C 
ATOM     21  C   UNL     1       3.880   3.305  17.721  0.00  0.00    +0.000 C 
ENDBRANCH   4  14
TORSDOF 2
ENDMDL
