MODEL 1
REMARK VINA RESULT:      -7.1      0.000      0.000
REMARK  Name = 
REMARK  11 active torsions:
REMARK  status: ('A' for Active; 'I' for Inactive)
REMARK    1  A    between atoms: C_1  and  O_2
REMARK    2  A    between atoms: O_2  and  C_3
REMARK    3  A    between atoms: C_5  and  C_6
REMARK    4  A    between atoms: C_7  and  C_8
REMARK    5  A    between atoms: C_7  and  C_9
REMARK    6  A    between atoms: C_12  and  O_13
REMARK    7  A    between atoms: O_13  and  C_14
REMARK    8  A    between atoms: C_15  and  O_16
REMARK    9  A    between atoms: O_16  and  C_17
REMARK   10  A    between atoms: C_20  and  O_21
REMARK   11  A    between atoms: O_21  and  C_22
REMARK                            x       y       z     vdW  Elec       q    Type
REMARK                         _______ _______ _______ _____ _____    ______ ____
ROOT
ATOM      1  C   UNL     1       2.223   6.828  20.043  0.00  0.00    +0.000 C 
ATOM      2  C   UNL     1       1.824   8.005  19.527  0.00  0.00    +0.000 C 
ATOM      3  C   UNL     1       1.945   8.445  18.098  0.00  0.00    +0.000 C 
ENDROOT
BRANCH   1   6
ATOM      4  C   UNL     1       4.841   4.370  18.874  0.00  0.00    +0.000 A 
ATOM      5  C   UNL     1       4.259   5.528  19.402  0.00  0.00    +0.000 A 
ATOM      6  C   UNL     1       2.871   5.708  19.349  0.00  0.00    +0.000 A 
ATOM      7  C   UNL     1       2.080   4.726  18.744  0.00  0.00    +0.000 A 
ATOM      8  C   UNL     1       2.649   3.544  18.261  0.00  0.00    +0.000 A 
ATOM      9  C   UNL     1       4.032   3.367  18.332  0.00  0.00    +0.000 A 
BRANCH   4  11
ATOM     10  C   UNL     1       6.947   4.758  17.876  0.00  0.00    +0.000 C 
ATOM     11  O   UNL     1       6.204   4.278  18.994  0.00  0.00    +0.000 OA
ENDBRANCH   4  11
BRANCH   8  12
ATOM     12  O   UNL     1       1.753   2.631  17.774  0.00  0.00    +0.000 OA
ATOM     13  C   UNL     1       0.723   2.200  18.657  0.00  0.00    +0.000 C 
ENDBRANCH   8  12
ENDBRANCH   1   6
BRANCH   2  14
ATOM     14  C   UNL     1       1.190   8.968  20.448  0.00  0.00    +0.000 A 
ATOM     15  C   UNL     1       1.035   8.653  21.796  0.00  0.00    +0.000 A 
ATOM     16  C   UNL     1       0.378   9.540  22.648  0.00  0.00    +0.000 A 
ATOM     17  C   UNL     1      -0.142  10.756  22.180  0.00  0.00    +0.000 A 
ATOM     18  C   UNL     1       0.012  11.093  20.823  0.00  0.00    +0.000 A 
ATOM     19  C   UNL     1       0.678  10.190  19.969  0.00  0.00    +0.000 A 
BRANCH  17  20
ATOM     20  O   UNL     1      -0.751  11.470  23.180  0.00  0.00    +0.000 OA
ATOM     21  C   UNL     1      -2.162  11.632  23.162  0.00  0.00    +0.000 C 
ENDBRANCH  17  20
BRANCH  18  22
ATOM     22  O   UNL     1      -0.510  12.282  20.389  0.00  0.00    +0.000 OA
ATOM     23  C   UNL     1       0.377  13.349  20.089  0.00  0.00    +0.000 C 
ENDBRANCH  18  22
ENDBRANCH   2  14
TORSDOF 6
ENDMDL
MODEL 2
REMARK VINA RESULT:      -7.1      1.082      1.082
REMARK  Name = 
REMARK  11 active torsions:
REMARK  status: ('A' for Active; 'I' for Inactive)
REMARK    1  A    between atoms: C_1  and  O_2
REMARK    2  A    between atoms: O_2  and  C_3
REMARK    3  A    between atoms: C_5  and  C_6
REMARK    4  A    between atoms: C_7  and  C_8
REMARK    5  A    between atoms: C_7  and  C_9
REMARK    6  A    between atoms: C_12  and  O_13
REMARK    7  A    between atoms: O_13  and  C_14
REMARK    8  A    between atoms: C_15  and  O_16
REMARK    9  A    between atoms: O_16  and  C_17
REMARK   10  A    between atoms: C_20  and  O_21
REMARK   11  A    between atoms: O_21  and  C_22
REMARK                            x       y       z     vdW  Elec       q    Type
REMARK                         _______ _______ _______ _____ _____    ______ ____
ROOT
ATOM      1  C   UNL     1       2.300   7.140  19.303  0.00  0.00    +0.000 C 
ATOM      2  C   UNL     1       1.785   8.344  18.993  0.00  0.00    +0.000 C 
ATOM      3  C   UNL     1       1.718   8.967  17.630  0.00  0.00    +0.000 C 
ENDROOT
BRANCH   1   6
ATOM      4  C   UNL     1       4.851   5.321  17.195  0.00  0.00    +0.000 A 
ATOM      5  C   UNL     1       4.220   6.338  17.920  0.00  0.00    +0.000 A 
ATOM      6  C   UNL     1       2.917   6.159  18.401  0.00  0.00    +0.000 A 
ATOM      7  C   UNL     1       2.251   4.961  18.130  0.00  0.00    +0.000 A 
ATOM      8  C   UNL     1       2.892   3.920  17.452  0.00  0.00    +0.000 A 
ATOM      9  C   UNL     1       4.197   4.102  16.989  0.00  0.00    +0.000 A 
BRANCH   4  11
ATOM     10  C   UNL     1       6.760   4.540  16.043  0.00  0.00    +0.000 C 
ATOM     11  O   UNL     1       6.133   5.583  16.786  0.00  0.00    +0.000 OA
ENDBRANCH   4  11
BRANCH   8  12
ATOM     12  O   UNL     1       2.157   2.772  17.332  0.00  0.00    +0.000 OA
ATOM     13  C   UNL     1       1.435   2.341  18.481  0.00  0.00    +0.000 C 
ENDBRANCH   8  12
ENDBRANCH   1   6
BRANCH   2  14
ATOM     14  C   UNL     1       1.215   9.141  20.097  0.00  0.00    +0.000 A 
ATOM     15  C   UNL     1       0.852   8.526  21.292  0.00  0.00    +0.000 A 
ATOM     16  C   UNL     1       0.255   9.273  22.308  0.00  0.00    +0.000 A 
ATOM     17  C   UNL     1       0.003  10.645  22.157  0.00  0.00    +0.000 A 
ATOM     18  C   UNL     1       0.372  11.283  20.958  0.00  0.00    +0.000 A 
ATOM     19  C   UNL     1       0.974  10.520  19.938  0.00  0.00    +0.000 A 
BRANCH  17  20
ATOM     20  O   UNL     1      -0.593  11.180  23.269  0.00  0.00    +0.000 OA
ATOM     21  C   UNL     1      -1.967  11.533  23.222  0.00  0.00    +0.000 C 
ENDBRANCH  17  20
BRANCH  18  22
ATOM     22  O   UNL     1       0.109  12.621  20.832  0.00  0.00    +0.000 OA
ATOM     23  C   UNL     1      -0.497  13.088  19.636  0.00  0.00    +0.000 C 
ENDBRANCH  18  22
ENDBRANCH   2  14
TORSDOF 6
ENDMDL
MODEL 3
REMARK VINA RESULT:      -7.1      1.021      2.304
REMARK  Name = 
REMARK  11 active torsions:
REMARK  status: ('A' for Active; 'I' for Inactive)
REMARK    1  A    between atoms: C_1  and  O_2
REMARK    2  A    between atoms: O_2  and  C_3
REMARK    3  A    between atoms: C_5  and  C_6
REMARK    4  A    between atoms: C_7  and  C_8
REMARK    5  A    between atoms: C_7  and  C_9
REMARK    6  A    between atoms: C_12  and  O_13
REMARK    7  A    between atoms: O_13  and  C_14
REMARK    8  A    between atoms: C_15  and  O_16
REMARK    9  A    between atoms: O_16  and  C_17
REMARK   10  A    between atoms: C_20  and  O_21
REMARK   11  A    between atoms: O_21  and  C_22
REMARK                            x       y       z     vdW  Elec       q    Type
REMARK                         _______ _______ _______ _____ _____    ______ ____
ROOT
ATOM      1  C   UNL     1       2.522   7.232  18.556  0.00  0.00    +0.000 C 
ATOM      2  C   UNL     1       1.875   7.611  19.674  0.00  0.00    +0.000 C 
ATOM      3  C   UNL     1       1.627   6.773  20.893  0.00  0.00    +0.000 C 
ENDROOT
BRANCH   1   6
ATOM      4  C   UNL     1       5.029   4.421  18.286  0.00  0.00    +0.000 A 
ATOM      5  C   UNL     1       4.498   5.708  18.421  0.00  0.00    +0.000 A 
ATOM      6  C   UNL     1       3.125   5.927  18.256  0.00  0.00    +0.000 A 
ATOM      7  C   UNL     1       2.298   4.847  17.936  0.00  0.00    +0.000 A 
ATOM      8  C   UNL     1       2.812   3.550  17.852  0.00  0.00    +0.000 A 
ATOM      9  C   UNL     1       4.180   3.339  18.033  0.00  0.00    +0.000 A 
BRANCH   4  11
ATOM     10  C   UNL     1       7.197   4.747  17.405  0.00  0.00    +0.000 C 
ATOM     11  O   UNL     1       6.381   4.307  18.488  0.00  0.00    +0.000 OA
ENDBRANCH   4  11
BRANCH   8  12
ATOM     12  O   UNL     1       1.880   2.574  17.620  0.00  0.00    +0.000 OA
ATOM     13  C   UNL     1       0.924   2.334  18.647  0.00  0.00    +0.000 C 
ENDBRANCH   8  12
ENDBRANCH   1   6
BRANCH   2  14
ATOM     14  C   UNL     1       1.363   8.993  19.725  0.00  0.00    +0.000 A 
ATOM     15  C   UNL     1       1.378   9.790  18.582  0.00  0.00    +0.000 A 
ATOM     16  C   UNL     1       0.951  11.116  18.651  0.00  0.00    +0.000 A 
ATOM     17  C   UNL     1       0.504  11.680  19.855  0.00  0.00    +0.000 A 
ATOM     18  C   UNL     1       0.475  10.886  21.017  0.00  0.00    +0.000 A 
ATOM     19  C   UNL     1       0.908   9.548  20.937  0.00  0.00    +0.000 A 
BRANCH  17  20
ATOM     20  O   UNL     1       0.139  12.993  19.701  0.00  0.00    +0.000 OA
ATOM     21  C   UNL     1      -0.353  13.437  18.445  0.00  0.00    +0.000 C 
ENDBRANCH  17  20
BRANCH  18  22
ATOM     22  O   UNL     1       0.041  11.462  22.181  0.00  0.00    +0.000 OA
ATOM     23  C   UNL     1      -0.908  10.765  22.975  0.00  0.00    +0.000 C 
ENDBRANCH  18  22
ENDBRANCH   2  14
TORSDOF 6
ENDMDL
MODEL 4
REMARK VINA RESULT:      -7.0      2.472      8.768
REMARK  Name = 
REMARK  11 active torsions:
REMARK  status: ('A' for Active; 'I' for Inactive)
REMARK    1  A    between atoms: C_1  and  O_2
REMARK    2  A    between atoms: O_2  and  C_3
REMARK    3  A    between atoms: C_5  and  C_6
REMARK    4  A    between atoms: C_7  and  C_8
REMARK    5  A    between atoms: C_7  and  C_9
REMARK    6  A    between atoms: C_12  and  O_13
REMARK    7  A    between atoms: O_13  and  C_14
REMARK    8  A    between atoms: C_15  and  O_16
REMARK    9  A    between atoms: O_16  and  C_17
REMARK   10  A    between atoms: C_20  and  O_21
REMARK   11  A    between atoms: O_21  and  C_22
REMARK                            x       y       z     vdW  Elec       q    Type
REMARK                         _______ _______ _______ _____ _____    ______ ____
ROOT
ATOM      1  C   UNL     1       2.278   8.571  17.626  0.00  0.00    +0.000 C 
ATOM      2  C   UNL     1       2.613   7.521  18.399  0.00  0.00    +0.000 C 
ATOM      3  C   UNL     1       2.223   7.303  19.831  0.00  0.00    +0.000 C 
ENDROOT
BRANCH   1   6
ATOM      4  C   UNL     1      -0.666  10.744  18.562  0.00  0.00    +0.000 A 
ATOM      5  C   UNL     1       0.075   9.668  18.060  0.00  0.00    +0.000 A 
ATOM      6  C   UNL     1       1.471   9.743  17.989  0.00  0.00    +0.000 A 
ATOM      7  C   UNL     1       2.112  10.913  18.408  0.00  0.00    +0.000 A 
ATOM      8  C   UNL     1       1.383  11.972  18.959  0.00  0.00    +0.000 A 
ATOM      9  C   UNL     1      -0.007  11.882  19.039  0.00  0.00    +0.000 A 
BRANCH   4  11
ATOM     10  C   UNL     1      -2.585   9.863  17.504  0.00  0.00    +0.000 C 
ATOM     11  O   UNL     1      -2.024  10.565  18.611  0.00  0.00    +0.000 OA
ENDBRANCH   4  11
BRANCH   8  12
ATOM     12  O   UNL     1       2.142  13.020  19.409  0.00  0.00    +0.000 OA
ATOM     13  C   UNL     1       1.869  13.500  20.721  0.00  0.00    +0.000 C 
ENDBRANCH   8  12
ENDBRANCH   1   6
BRANCH   2  14
ATOM     14  C   UNL     1       3.437   6.463  17.785  0.00  0.00    +0.000 A 
ATOM     15  C   UNL     1       4.397   6.787  16.829  0.00  0.00    +0.000 A 
ATOM     16  C   UNL     1       5.129   5.777  16.206  0.00  0.00    +0.000 A 
ATOM     17  C   UNL     1       4.922   4.424  16.516  0.00  0.00    +0.000 A 
ATOM     18  C   UNL     1       3.961   4.081  17.485  0.00  0.00    +0.000 A 
ATOM     19  C   UNL     1       3.227   5.109  18.109  0.00  0.00    +0.000 A 
BRANCH  17  20
ATOM     20  O   UNL     1       5.740   3.601  15.785  0.00  0.00    +0.000 OA
ATOM     21  C   UNL     1       6.550   4.155  14.759  0.00  0.00    +0.000 C 
ENDBRANCH  17  20
BRANCH  18  22
ATOM     22  O   UNL     1       3.773   2.753  17.764  0.00  0.00    +0.000 OA
ATOM     23  C   UNL     1       2.448   2.242  17.786  0.00  0.00    +0.000 C 
ENDBRANCH  18  22
ENDBRANCH   2  14
TORSDOF 6
ENDMDL
MODEL 5
REMARK VINA RESULT:      -7.0      2.235      8.280
REMARK  Name = 
REMARK  11 active torsions:
REMARK  status: ('A' for Active; 'I' for Inactive)
REMARK    1  A    between atoms: C_1  and  O_2
REMARK    2  A    between atoms: O_2  and  C_3
REMARK    3  A    between atoms: C_5  and  C_6
REMARK    4  A    between atoms: C_7  and  C_8
REMARK    5  A    between atoms: C_7  and  C_9
REMARK    6  A    between atoms: C_12  and  O_13
REMARK    7  A    between atoms: O_13  and  C_14
REMARK    8  A    between atoms: C_15  and  O_16
REMARK    9  A    between atoms: O_16  and  C_17
REMARK   10  A    between atoms: C_20  and  O_21
REMARK   11  A    between atoms: O_21  and  C_22
REMARK                            x       y       z     vdW  Elec       q    Type
REMARK                         _______ _______ _______ _____ _____    ______ ____
ROOT
ATOM      1  C   UNL     1       2.399   8.048  18.380  0.00  0.00    +0.000 C 
ATOM      2  C   UNL     1       2.759   6.785  18.672  0.00  0.00    +0.000 C 
ATOM      3  C   UNL     1       2.199   5.924  19.765  0.00  0.00    +0.000 C 
ENDROOT
BRANCH   1   6
ATOM      4  C   UNL     1       0.552   9.988  21.042  0.00  0.00    +0.000 A 
ATOM      5  C   UNL     1       1.414   9.065  20.439  0.00  0.00    +0.000 A 
ATOM      6  C   UNL     1       1.394   8.883  19.051  0.00  0.00    +0.000 A 
ATOM      7  C   UNL     1       0.490   9.620  18.281  0.00  0.00    +0.000 A 
ATOM      8  C   UNL     1      -0.337  10.581  18.870  0.00  0.00    +0.000 A 
ATOM      9  C   UNL     1      -0.299  10.766  20.253  0.00  0.00    +0.000 A 
BRANCH   4  11
ATOM     10  C   UNL     1      -0.569  10.082  23.119  0.00  0.00    +0.000 C 
ATOM     11  O   UNL     1       0.664  10.109  22.404  0.00  0.00    +0.000 OA
ENDBRANCH   4  11
BRANCH   8  12
ATOM     12  O   UNL     1      -1.110  11.292  17.991  0.00  0.00    +0.000 OA
ATOM     13  C   UNL     1      -2.357  11.779  18.473  0.00  0.00    +0.000 C 
ENDBRANCH   8  12
ENDBRANCH   1   6
BRANCH   2  14
ATOM     14  C   UNL     1       3.802   6.166  17.832  0.00  0.00    +0.000 A 
ATOM     15  C   UNL     1       3.623   4.883  17.322  0.00  0.00    +0.000 A 
ATOM     16  C   UNL     1       4.639   4.279  16.581  0.00  0.00    +0.000 A 
ATOM     17  C   UNL     1       5.855   4.934  16.335  0.00  0.00    +0.000 A 
ATOM     18  C   UNL     1       6.049   6.234  16.838  0.00  0.00    +0.000 A 
ATOM     19  C   UNL     1       5.016   6.836  17.584  0.00  0.00    +0.000 A 
BRANCH  17  20
ATOM     20  O   UNL     1       6.712   4.160  15.596  0.00  0.00    +0.000 OA
ATOM     21  C   UNL     1       6.601   4.153  14.181  0.00  0.00    +0.000 C 
ENDBRANCH  17  20
BRANCH  18  22
ATOM     22  O   UNL     1       7.247   6.850  16.590  0.00  0.00    +0.000 OA
ATOM     23  C   UNL     1       7.709   7.836  17.502  0.00  0.00    +0.000 C 
ENDBRANCH  18  22
ENDBRANCH   2  14
TORSDOF 6
ENDMDL
MODEL 6
REMARK VINA RESULT:      -6.9      0.697      2.766
REMARK  Name = 
REMARK  11 active torsions:
REMARK  status: ('A' for Active; 'I' for Inactive)
REMARK    1  A    between atoms: C_1  and  O_2
REMARK    2  A    between atoms: O_2  and  C_3
REMARK    3  A    between atoms: C_5  and  C_6
REMARK    4  A    between atoms: C_7  and  C_8
REMARK    5  A    between atoms: C_7  and  C_9
REMARK    6  A    between atoms: C_12  and  O_13
REMARK    7  A    between atoms: O_13  and  C_14
REMARK    8  A    between atoms: C_15  and  O_16
REMARK    9  A    between atoms: O_16  and  C_17
REMARK   10  A    between atoms: C_20  and  O_21
REMARK   11  A    between atoms: O_21  and  C_22
REMARK                            x       y       z     vdW  Elec       q    Type
REMARK                         _______ _______ _______ _____ _____    ______ ____
ROOT
ATOM      1  C   UNL     1       2.276   6.686  20.099  0.00  0.00    +0.000 C 
ATOM      2  C   UNL     1       1.945   7.800  19.421  0.00  0.00    +0.000 C 
ATOM      3  C   UNL     1       2.107   8.035  17.948  0.00  0.00    +0.000 C 
ENDROOT
BRANCH   1   6
ATOM      4  C   UNL     1       2.676   3.340  18.394  0.00  0.00    +0.000 A 
ATOM      5  C   UNL     1       2.082   4.435  19.031  0.00  0.00    +0.000 A 
ATOM      6  C   UNL     1       2.876   5.452  19.576  0.00  0.00    +0.000 A 
ATOM      7  C   UNL     1       4.267   5.347  19.491  0.00  0.00    +0.000 A 
ATOM      8  C   UNL     1       4.866   4.284  18.810  0.00  0.00    +0.000 A 
ATOM      9  C   UNL     1       4.066   3.283  18.257  0.00  0.00    +0.000 A 
BRANCH   4  11
ATOM     10  C   UNL     1       0.679   2.112  18.686  0.00  0.00    +0.000 C 
ATOM     11  O   UNL     1       1.813   2.410  17.874  0.00  0.00    +0.000 OA
ENDBRANCH   4  11
BRANCH   8  12
ATOM     12  O   UNL     1       6.231   4.351  18.726  0.00  0.00    +0.000 OA
ATOM     13  C   UNL     1       6.849   5.561  19.149  0.00  0.00    +0.000 C 
ENDBRANCH   8  12
ENDBRANCH   1   6
BRANCH   2  14
ATOM     14  C   UNL     1       1.348   8.909  20.190  0.00  0.00    +0.000 A 
ATOM     15  C   UNL     1       1.097   8.764  21.552  0.00  0.00    +0.000 A 
ATOM     16  C   UNL     1       0.475   9.791  22.260  0.00  0.00    +0.000 A 
ATOM     17  C   UNL     1       0.085  10.983  21.631  0.00  0.00    +0.000 A 
ATOM     18  C   UNL     1       0.338  11.149  20.256  0.00  0.00    +0.000 A 
ATOM     19  C   UNL     1       0.968  10.105  19.550  0.00  0.00    +0.000 A 
BRANCH  17  20
ATOM     20  O   UNL     1      -0.512  11.853  22.507  0.00  0.00    +0.000 OA
ATOM     21  C   UNL     1      -1.675  11.444  23.211  0.00  0.00    +0.000 C 
ENDBRANCH  17  20
BRANCH  18  22
ATOM     22  O   UNL     1      -0.058  12.318  19.664  0.00  0.00    +0.000 OA
ATOM     23  C   UNL     1      -1.373  12.403  19.133  0.00  0.00    +0.000 C 
ENDBRANCH  18  22
ENDBRANCH   2  14
TORSDOF 6
ENDMDL
MODEL 7
REMARK VINA RESULT:      -6.9      1.483      1.686
REMARK  Name = 
REMARK  11 active torsions:
REMARK  status: ('A' for Active; 'I' for Inactive)
REMARK    1  A    between atoms: C_1  and  O_2
REMARK    2  A    between atoms: O_2  and  C_3
REMARK    3  A    between atoms: C_5  and  C_6
REMARK    4  A    between atoms: C_7  and  C_8
REMARK    5  A    between atoms: C_7  and  C_9
REMARK    6  A    between atoms: C_12  and  O_13
REMARK    7  A    between atoms: O_13  and  C_14
REMARK    8  A    between atoms: C_15  and  O_16
REMARK    9  A    between atoms: O_16  and  C_17
REMARK   10  A    between atoms: C_20  and  O_21
REMARK   11  A    between atoms: O_21  and  C_22
REMARK                            x       y       z     vdW  Elec       q    Type
REMARK                         _______ _______ _______ _____ _____    ______ ____
ROOT
ATOM      1  C   UNL     1       2.558   7.154  18.671  0.00  0.00    +0.000 C 
ATOM      2  C   UNL     1       1.967   7.107  19.879  0.00  0.00    +0.000 C 
ATOM      3  C   UNL     1       1.774   5.891  20.736  0.00  0.00    +0.000 C 
ENDROOT
BRANCH   1   6
ATOM      4  C   UNL     1       5.040   5.006  16.803  0.00  0.00    +0.000 A 
ATOM      5  C   UNL     1       4.442   6.126  17.390  0.00  0.00    +0.000 A 
ATOM      6  C   UNL     1       3.142   6.046  17.904  0.00  0.00    +0.000 A 
ATOM      7  C   UNL     1       2.445   4.839  17.805  0.00  0.00    +0.000 A 
ATOM      8  C   UNL     1       3.054   3.701  17.267  0.00  0.00    +0.000 A 
ATOM      9  C   UNL     1       4.356   3.787  16.771  0.00  0.00    +0.000 A 
BRANCH   4  11
ATOM     10  C   UNL     1       6.549   4.786  14.999  0.00  0.00    +0.000 C 
ATOM     11  O   UNL     1       6.322   5.180  16.350  0.00  0.00    +0.000 OA
ENDBRANCH   4  11
BRANCH   8  12
ATOM     12  O   UNL     1       2.291   2.565  17.311  0.00  0.00    +0.000 OA
ATOM     13  C   UNL     1       1.509   2.353  18.482  0.00  0.00    +0.000 C 
ENDBRANCH   8  12
ENDBRANCH   1   6
BRANCH   2  14
ATOM     14  C   UNL     1       1.463   8.377  20.436  0.00  0.00    +0.000 A 
ATOM     15  C   UNL     1       1.296   8.523  21.812  0.00  0.00    +0.000 A 
ATOM     16  C   UNL     1       0.760   9.703  22.327  0.00  0.00    +0.000 A 
ATOM     17  C   UNL     1       0.374  10.760  21.489  0.00  0.00    +0.000 A 
ATOM     18  C   UNL     1       0.542  10.630  20.098  0.00  0.00    +0.000 A 
ATOM     19  C   UNL     1       1.086   9.435  19.587  0.00  0.00    +0.000 A 
BRANCH  17  20
ATOM     20  O   UNL     1      -0.133  11.817  22.201  0.00  0.00    +0.000 OA
ATOM     21  C   UNL     1      -1.395  11.689  22.837  0.00  0.00    +0.000 C 
ENDBRANCH  17  20
BRANCH  18  22
ATOM     22  O   UNL     1       0.151  11.673  19.301  0.00  0.00    +0.000 OA
ATOM     23  C   UNL     1      -1.087  11.579  18.613  0.00  0.00    +0.000 C 
ENDBRANCH  18  22
ENDBRANCH   2  14
TORSDOF 6
ENDMDL
MODEL 8
REMARK VINA RESULT:      -6.9      2.569      8.547
REMARK  Name = 
REMARK  11 active torsions:
REMARK  status: ('A' for Active; 'I' for Inactive)
REMARK    1  A    between atoms: C_1  and  O_2
REMARK    2  A    between atoms: O_2  and  C_3
REMARK    3  A    between atoms: C_5  and  C_6
REMARK    4  A    between atoms: C_7  and  C_8
REMARK    5  A    between atoms: C_7  and  C_9
REMARK    6  A    between atoms: C_12  and  O_13
REMARK    7  A    between atoms: O_13  and  C_14
REMARK    8  A    between atoms: C_15  and  O_16
REMARK    9  A    between atoms: O_16  and  C_17
REMARK   10  A    between atoms: C_20  and  O_21
REMARK   11  A    between atoms: O_21  and  C_22
REMARK                            x       y       z     vdW  Elec       q    Type
REMARK                         _______ _______ _______ _____ _____    ______ ____
ROOT
ATOM      1  C   UNL     1       2.166   8.545  17.738  0.00  0.00    +0.000 C 
ATOM      2  C   UNL     1       2.549   7.484  18.472  0.00  0.00    +0.000 C 
ATOM      3  C   UNL     1       2.173   7.196  19.895  0.00  0.00    +0.000 C 
ENDROOT
BRANCH   1   6
ATOM      4  C   UNL     1       1.017  12.006  18.722  0.00  0.00    +0.000 A 
ATOM      5  C   UNL     1       1.853  10.906  18.494  0.00  0.00    +0.000 A 
ATOM      6  C   UNL     1       1.307   9.665  18.144  0.00  0.00    +0.000 A 
ATOM      7  C   UNL     1      -0.081   9.536  18.045  0.00  0.00    +0.000 A 
ATOM      8  C   UNL     1      -0.919  10.642  18.219  0.00  0.00    +0.000 A 
ATOM      9  C   UNL     1      -0.365  11.879  18.553  0.00  0.00    +0.000 A 
BRANCH   4  11
ATOM     10  C   UNL     1       0.814  14.338  19.040  0.00  0.00    +0.000 C 
ATOM     11  O   UNL     1       1.648  13.182  19.037  0.00  0.00    +0.000 OA
ENDBRANCH   4  11
BRANCH   8  12
ATOM     12  O   UNL     1      -2.249  10.395  18.007  0.00  0.00    +0.000 OA
ATOM     13  C   UNL     1      -2.913  11.208  17.045  0.00  0.00    +0.000 C 
ENDBRANCH   8  12
ENDBRANCH   1   6
BRANCH   2  14
ATOM     14  C   UNL     1       3.420   6.488  17.819  0.00  0.00    +0.000 A 
ATOM     15  C   UNL     1       4.446   6.901  16.972  0.00  0.00    +0.000 A 
ATOM     16  C   UNL     1       5.226   5.953  16.309  0.00  0.00    +0.000 A 
ATOM     17  C   UNL     1       5.001   4.578  16.469  0.00  0.00    +0.000 A 
ATOM     18  C   UNL     1       3.973   4.145  17.327  0.00  0.00    +0.000 A 
ATOM     19  C   UNL     1       3.192   5.109  17.994  0.00  0.00    +0.000 A 
BRANCH  17  20
ATOM     20  O   UNL     1       5.873   3.827  15.723  0.00  0.00    +0.000 OA
ATOM     21  C   UNL     1       6.016   4.096  14.337  0.00  0.00    +0.000 C 
ENDBRANCH  17  20
BRANCH  18  22
ATOM     22  O   UNL     1       3.769   2.797  17.461  0.00  0.00    +0.000 OA
ATOM     23  C   UNL     1       2.459   2.330  17.747  0.00  0.00    +0.000 C 
ENDBRANCH  18  22
ENDBRANCH   2  14
TORSDOF 6
ENDMDL
MODEL 9
REMARK VINA RESULT:      -6.9      1.035      2.684
REMARK  Name = 
REMARK  11 active torsions:
REMARK  status: ('A' for Active; 'I' for Inactive)
REMARK    1  A    between atoms: C_1  and  O_2
REMARK    2  A    between atoms: O_2  and  C_3
REMARK    3  A    between atoms: C_5  and  C_6
REMARK    4  A    between atoms: C_7  and  C_8
REMARK    5  A    between atoms: C_7  and  C_9
REMARK    6  A    between atoms: C_12  and  O_13
REMARK    7  A    between atoms: O_13  and  C_14
REMARK    8  A    between atoms: C_15  and  O_16
REMARK    9  A    between atoms: O_16  and  C_17
REMARK   10  A    between atoms: C_20  and  O_21
REMARK   11  A    between atoms: O_21  and  C_22
REMARK                            x       y       z     vdW  Elec       q    Type
REMARK                         _______ _______ _______ _____ _____    ______ ____
ROOT
ATOM      1  C   UNL     1       2.247   6.864  19.667  0.00  0.00    +0.000 C 
ATOM      2  C   UNL     1       1.867   8.079  19.232  0.00  0.00    +0.000 C 
ATOM      3  C   UNL     1       1.964   8.600  17.829  0.00  0.00    +0.000 C 
ENDROOT
BRANCH   1   6
ATOM      4  C   UNL     1       2.683   3.595  17.826  0.00  0.00    +0.000 A 
ATOM      5  C   UNL     1       2.169   4.562  18.698  0.00  0.00    +0.000 A 
ATOM      6  C   UNL     1       2.848   5.771  18.892  0.00  0.00    +0.000 A 
ATOM      7  C   UNL     1       4.053   5.990  18.218  0.00  0.00    +0.000 A 
ATOM      8  C   UNL     1       4.545   5.053  17.305  0.00  0.00    +0.000 A 
ATOM      9  C   UNL     1       3.854   3.856  17.108  0.00  0.00    +0.000 A 
BRANCH   4  11
ATOM     10  C   UNL     1       0.926   2.266  18.679  0.00  0.00    +0.000 C 
ATOM     11  O   UNL     1       1.934   2.455  17.688  0.00  0.00    +0.000 OA
ENDBRANCH   4  11
BRANCH   8  12
ATOM     12  O   UNL     1       5.687   5.431  16.650  0.00  0.00    +0.000 OA
ATOM     13  C   UNL     1       5.593   5.618  15.242  0.00  0.00    +0.000 C 
ENDBRANCH   8  12
ENDBRANCH   1   6
BRANCH   2  14
ATOM     14  C   UNL     1       1.281   9.001  20.224  0.00  0.00    +0.000 A 
ATOM     15  C   UNL     1       1.095   8.588  21.542  0.00  0.00    +0.000 A 
ATOM     16  C   UNL     1       0.483   9.441  22.460  0.00  0.00    +0.000 A 
ATOM     17  C   UNL     1       0.039  10.720  22.089  0.00  0.00    +0.000 A 
ATOM     18  C   UNL     1       0.226  11.155  20.764  0.00  0.00    +0.000 A 
ATOM     19  C   UNL     1       0.847  10.286  19.844  0.00  0.00    +0.000 A 
BRANCH  17  20
ATOM     20  O   UNL     1      -0.537  11.386  23.140  0.00  0.00    +0.000 OA
ATOM     21  C   UNL     1      -1.942  11.589  23.151  0.00  0.00    +0.000 C 
ENDBRANCH  17  20
BRANCH  18  22
ATOM     22  O   UNL     1      -0.222  12.404  20.425  0.00  0.00    +0.000 OA
ATOM     23  C   UNL     1       0.730  13.437  20.217  0.00  0.00    +0.000 C 
ENDBRANCH  18  22
ENDBRANCH   2  14
TORSDOF 6
ENDMDL
