MODEL 1
REMARK VINA RESULT:      -8.0      0.000      0.000
REMARK  Name = 
REMARK  9 active torsions:
REMARK  status: ('A' for Active; 'I' for Inactive)
REMARK    1  A    between atoms: C_1  and  C_2
REMARK    2  A    between atoms: C_2  and  C_3
REMARK    3  A    between atoms: C_3  and  N_4
REMARK    4  A    between atoms: C_3  and  C_19
REMARK    5  A    between atoms: N_4  and  C_5
REMARK    6  A    between atoms: C_5  and  C_6
REMARK    7  A    between atoms: C_9  and  C_10
REMARK    8  A    between atoms: C_14  and  O_15
REMARK    9  A    between atoms: O_15  and  C_16
REMARK                            x       y       z     vdW  Elec       q    Type
REMARK                         _______ _______ _______ _____ _____    ______ ____
ROOT
ATOM      1  C   UNL     1       6.250   5.157  17.949  0.00  0.00    +0.000 A 
ATOM      2  C   UNL     1       7.549   4.700  17.981  0.00  0.00    +0.000 A 
ATOM      3  O   UNL     1       7.946   4.442  16.703  0.00  0.00    +0.000 OA
ATOM      4  C   UNL     1       6.850   4.758  15.943  0.00  0.00    +0.000 A 
ATOM      5  N   UNL     1       5.813   5.173  16.643  0.00  0.00    +0.000 NA
ENDROOT
BRANCH   4   6
ATOM      6  C   UNL     1       6.948   4.615  14.495  0.00  0.00    +0.000 A 
ATOM      7  C   UNL     1       7.812   5.389  13.713  0.00  0.00    +0.000 A 
ATOM      8  C   UNL     1       7.832   5.232  12.324  0.00  0.00    +0.000 A 
ATOM      9  C   UNL     1       6.989   4.301  11.715  0.00  0.00    +0.000 A 
ATOM     10  C   UNL     1       6.128   3.513  12.479  0.00  0.00    +0.000 A 
ATOM     11  C   UNL     1       6.120   3.669  13.864  0.00  0.00    +0.000 A 
BRANCH  10  12
ATOM     12  O   UNL     1       5.345   2.643  11.771  0.00  0.00    +0.000 OA
ATOM     13  C   UNL     1       4.094   3.143  11.310  0.00  0.00    +0.000 C 
ENDBRANCH  10  12
ENDBRANCH   4   6
BRANCH   1  14
ATOM     14  C   UNL     1       5.313   5.524  19.048  0.00  0.00    +0.000 C 
BRANCH  14  15
ATOM     15  N   UNL     1       3.929   5.228  18.678  0.00  0.00    +0.000 NA
ATOM     16  H   UNL     1       3.706   5.690  17.801  0.00  0.00    +0.000 HD
BRANCH  15  17
ATOM     17  C   UNL     1       2.952   5.641  19.702  0.00  0.00    +0.000 C 
BRANCH  17  18
ATOM     18  C   UNL     1       2.340   7.009  19.403  0.00  0.00    +0.000 A 
ATOM     19  C   UNL     1       1.733   7.745  20.437  0.00  0.00    +0.000 A 
ATOM     20  C   UNL     1       1.168   9.002  20.186  0.00  0.00    +0.000 A 
ATOM     21  C   UNL     1       1.211   9.547  18.906  0.00  0.00    +0.000 A 
ATOM     22  C   UNL     1       1.827   8.845  17.876  0.00  0.00    +0.000 A 
ATOM     23  C   UNL     1       2.385   7.591  18.122  0.00  0.00    +0.000 A 
ENDBRANCH  17  18
BRANCH  17  25
ATOM     24  C   UNL     1       2.076   3.890  21.395  0.00  0.00    +0.000 C 
ATOM     25  C   UNL     1       1.885   4.570  20.046  0.00  0.00    +0.000 C 
ENDBRANCH  17  25
ENDBRANCH  15  17
ENDBRANCH  14  15
ENDBRANCH   1  14
TORSDOF 7
ENDMDL
MODEL 2
REMARK VINA RESULT:      -7.7      2.895      7.657
REMARK  Name = 
REMARK  9 active torsions:
REMARK  status: ('A' for Active; 'I' for Inactive)
REMARK    1  A    between atoms: C_1  and  C_2
REMARK    2  A    between atoms: C_2  and  C_3
REMARK    3  A    between atoms: C_3  and  N_4
REMARK    4  A    between atoms: C_3  and  C_19
REMARK    5  A    between atoms: N_4  and  C_5
REMARK    6  A    between atoms: C_5  and  C_6
REMARK    7  A    between atoms: C_9  and  C_10
REMARK    8  A    between atoms: C_14  and  O_15
REMARK    9  A    between atoms: O_15  and  C_16
REMARK                            x       y       z     vdW  Elec       q    Type
REMARK                         _______ _______ _______ _____ _____    ______ ____
ROOT
ATOM      1  C   UNL     1       3.389   4.464  18.265  0.00  0.00    +0.000 A 
ATOM      2  C   UNL     1       3.683   4.578  19.606  0.00  0.00    +0.000 A 
ATOM      3  O   UNL     1       3.237   5.789  20.043  0.00  0.00    +0.000 OA
ATOM      4  C   UNL     1       2.686   6.364  18.928  0.00  0.00    +0.000 A 
ATOM      5  N   UNL     1       2.768   5.619  17.844  0.00  0.00    +0.000 NA
ENDROOT
BRANCH   4   6
ATOM      6  C   UNL     1       2.084   7.686  19.058  0.00  0.00    +0.000 A 
ATOM      7  C   UNL     1       1.995   8.588  17.992  0.00  0.00    +0.000 A 
ATOM      8  C   UNL     1       1.441   9.856  18.190  0.00  0.00    +0.000 A 
ATOM      9  C   UNL     1       0.977  10.225  19.453  0.00  0.00    +0.000 A 
ATOM     10  C   UNL     1       1.047   9.336  20.526  0.00  0.00    +0.000 A 
ATOM     11  C   UNL     1       1.592   8.070  20.319  0.00  0.00    +0.000 A 
BRANCH  10  12
ATOM     12  O   UNL     1       0.568   9.812  21.715  0.00  0.00    +0.000 OA
ATOM     13  C   UNL     1      -0.258  10.971  21.650  0.00  0.00    +0.000 C 
ENDBRANCH  10  12
ENDBRANCH   4   6
BRANCH   1  14
ATOM     14  C   UNL     1       3.701   3.389  17.281  0.00  0.00    +0.000 C 
BRANCH  14  15
ATOM     15  N   UNL     1       5.145   3.261  17.085  0.00  0.00    +0.000 NA
ATOM     16  H   UNL     1       5.611   3.254  17.988  0.00  0.00    +0.000 HD
BRANCH  15  17
ATOM     17  C   UNL     1       5.718   4.336  16.256  0.00  0.00    +0.000 C 
BRANCH  17  18
ATOM     18  C   UNL     1       6.547   5.324  17.077  0.00  0.00    +0.000 A 
ATOM     19  C   UNL     1       7.238   4.877  18.219  0.00  0.00    +0.000 A 
ATOM     20  C   UNL     1       8.006   5.762  18.984  0.00  0.00    +0.000 A 
ATOM     21  C   UNL     1       8.106   7.101  18.617  0.00  0.00    +0.000 A 
ATOM     22  C   UNL     1       7.448   7.557  17.480  0.00  0.00    +0.000 A 
ATOM     23  C   UNL     1       6.679   6.678  16.718  0.00  0.00    +0.000 A 
ENDBRANCH  17  18
BRANCH  17  25
ATOM     24  C   UNL     1       5.692   4.053  13.683  0.00  0.00    +0.000 C 
ATOM     25  C   UNL     1       6.457   3.847  14.984  0.00  0.00    +0.000 C 
ENDBRANCH  17  25
ENDBRANCH  15  17
ENDBRANCH  14  15
ENDBRANCH   1  14
TORSDOF 7
ENDMDL
MODEL 3
REMARK VINA RESULT:      -7.7      1.057      1.593
REMARK  Name = 
REMARK  9 active torsions:
REMARK  status: ('A' for Active; 'I' for Inactive)
REMARK    1  A    between atoms: C_1  and  C_2
REMARK    2  A    between atoms: C_2  and  C_3
REMARK    3  A    between atoms: C_3  and  N_4
REMARK    4  A    between atoms: C_3  and  C_19
REMARK    5  A    between atoms: N_4  and  C_5
REMARK    6  A    between atoms: C_5  and  C_6
REMARK    7  A    between atoms: C_9  and  C_10
REMARK    8  A    between atoms: C_14  and  O_15
REMARK    9  A    between atoms: O_15  and  C_16
REMARK                            x       y       z     vdW  Elec       q    Type
REMARK                         _______ _______ _______ _____ _____    ______ ____
ROOT
ATOM      1  C   UNL     1       6.036   4.979  18.005  0.00  0.00    +0.000 A 
ATOM      2  C   UNL     1       7.390   4.730  18.051  0.00  0.00    +0.000 A 
ATOM      3  O   UNL     1       7.835   4.533  16.778  0.00  0.00    +0.000 OA
ATOM      4  C   UNL     1       6.711   4.671  16.007  0.00  0.00    +0.000 A 
ATOM      5  N   UNL     1       5.615   4.922  16.695  0.00  0.00    +0.000 NA
ENDROOT
BRANCH   4   6
ATOM      6  C   UNL     1       6.845   4.541  14.561  0.00  0.00    +0.000 A 
ATOM      7  C   UNL     1       7.736   5.312  13.808  0.00  0.00    +0.000 A 
ATOM      8  C   UNL     1       7.790   5.168  12.419  0.00  0.00    +0.000 A 
ATOM      9  C   UNL     1       6.953   4.252  11.780  0.00  0.00    +0.000 A 
ATOM     10  C   UNL     1       6.064   3.466  12.514  0.00  0.00    +0.000 A 
ATOM     11  C   UNL     1       6.023   3.610  13.900  0.00  0.00    +0.000 A 
BRANCH  10  12
ATOM     12  O   UNL     1       5.291   2.611  11.778  0.00  0.00    +0.000 OA
ATOM     13  C   UNL     1       4.105   3.157  11.207  0.00  0.00    +0.000 C 
ENDBRANCH  10  12
ENDBRANCH   4   6
BRANCH   1  14
ATOM     14  C   UNL     1       5.043   5.198  19.094  0.00  0.00    +0.000 C 
BRANCH  14  15
ATOM     15  N   UNL     1       4.209   4.012  19.290  0.00  0.00    +0.000 NA
ATOM     16  H   UNL     1       4.469   3.298  18.615  0.00  0.00    +0.000 HD
BRANCH  15  17
ATOM     17  C   UNL     1       2.766   4.288  19.166  0.00  0.00    +0.000 C 
BRANCH  17  18
ATOM     18  C   UNL     1       2.456   5.785  19.185  0.00  0.00    +0.000 A 
ATOM     19  C   UNL     1       2.533   6.530  17.995  0.00  0.00    +0.000 A 
ATOM     20  C   UNL     1       2.252   7.901  17.988  0.00  0.00    +0.000 A 
ATOM     21  C   UNL     1       1.878   8.546  19.165  0.00  0.00    +0.000 A 
ATOM     22  C   UNL     1       1.776   7.822  20.347  0.00  0.00    +0.000 A 
ATOM     23  C   UNL     1       2.060   6.457  20.356  0.00  0.00    +0.000 A 
ENDBRANCH  17  18
BRANCH  17  25
ATOM     24  C   UNL     1       2.893   2.444  17.353  0.00  0.00    +0.000 C 
ATOM     25  C   UNL     1       2.064   3.547  17.998  0.00  0.00    +0.000 C 
ENDBRANCH  17  25
ENDBRANCH  15  17
ENDBRANCH  14  15
ENDBRANCH   1  14
TORSDOF 7
ENDMDL
MODEL 4
REMARK VINA RESULT:      -7.5      1.299      1.682
REMARK  Name = 
REMARK  9 active torsions:
REMARK  status: ('A' for Active; 'I' for Inactive)
REMARK    1  A    between atoms: C_1  and  C_2
REMARK    2  A    between atoms: C_2  and  C_3
REMARK    3  A    between atoms: C_3  and  N_4
REMARK    4  A    between atoms: C_3  and  C_19
REMARK    5  A    between atoms: N_4  and  C_5
REMARK    6  A    between atoms: C_5  and  C_6
REMARK    7  A    between atoms: C_9  and  C_10
REMARK    8  A    between atoms: C_14  and  O_15
REMARK    9  A    between atoms: O_15  and  C_16
REMARK                            x       y       z     vdW  Elec       q    Type
REMARK                         _______ _______ _______ _____ _____    ______ ____
ROOT
ATOM      1  C   UNL     1       6.149   4.903  17.840  0.00  0.00    +0.000 A 
ATOM      2  C   UNL     1       7.046   5.934  17.664  0.00  0.00    +0.000 A 
ATOM      3  O   UNL     1       7.421   5.960  16.354  0.00  0.00    +0.000 OA
ATOM      4  C   UNL     1       6.725   4.925  15.787  0.00  0.00    +0.000 A 
ATOM      5  N   UNL     1       5.968   4.259  16.636  0.00  0.00    +0.000 NA
ENDROOT
BRANCH   4   6
ATOM      6  C   UNL     1       6.884   4.687  14.357  0.00  0.00    +0.000 A 
ATOM      7  C   UNL     1       7.742   5.443  13.553  0.00  0.00    +0.000 A 
ATOM      8  C   UNL     1       7.821   5.191  12.180  0.00  0.00    +0.000 A 
ATOM      9  C   UNL     1       7.042   4.183  11.610  0.00  0.00    +0.000 A 
ATOM     10  C   UNL     1       6.188   3.411  12.397  0.00  0.00    +0.000 A 
ATOM     11  C   UNL     1       6.122   3.663  13.767  0.00  0.00    +0.000 A 
BRANCH  10  12
ATOM     12  O   UNL     1       5.471   2.459  11.726  0.00  0.00    +0.000 OA
ATOM     13  C   UNL     1       6.214   1.384  11.161  0.00  0.00    +0.000 C 
ENDBRANCH  10  12
ENDBRANCH   4   6
BRANCH   1  14
ATOM     14  C   UNL     1       5.476   4.388  19.065  0.00  0.00    +0.000 C 
BRANCH  14  15
ATOM     15  N   UNL     1       4.620   3.244  18.751  0.00  0.00    +0.000 NA
ATOM     16  H   UNL     1       4.646   3.064  17.751  0.00  0.00    +0.000 HD
BRANCH  15  17
ATOM     17  C   UNL     1       3.219   3.433  19.170  0.00  0.00    +0.000 C 
BRANCH  17  18
ATOM     18  C   UNL     1       2.798   4.903  19.144  0.00  0.00    +0.000 A 
ATOM     19  C   UNL     1       2.427   5.545  20.340  0.00  0.00    +0.000 A 
ATOM     20  C   UNL     1       2.042   6.891  20.341  0.00  0.00    +0.000 A 
ATOM     21  C   UNL     1       2.032   7.618  19.154  0.00  0.00    +0.000 A 
ATOM     22  C   UNL     1       2.417   7.007  17.966  0.00  0.00    +0.000 A 
ATOM     23  C   UNL     1       2.797   5.666  17.962  0.00  0.00    +0.000 A 
ENDBRANCH  17  18
BRANCH  17  25
ATOM     24  C   UNL     1       0.764   2.643  18.945  0.00  0.00    +0.000 C 
ATOM     25  C   UNL     1       2.200   2.507  18.457  0.00  0.00    +0.000 C 
ENDBRANCH  17  25
ENDBRANCH  15  17
ENDBRANCH  14  15
ENDBRANCH   1  14
TORSDOF 7
ENDMDL
MODEL 5
REMARK VINA RESULT:      -7.5      2.862      7.608
REMARK  Name = 
REMARK  9 active torsions:
REMARK  status: ('A' for Active; 'I' for Inactive)
REMARK    1  A    between atoms: C_1  and  C_2
REMARK    2  A    between atoms: C_2  and  C_3
REMARK    3  A    between atoms: C_3  and  N_4
REMARK    4  A    between atoms: C_3  and  C_19
REMARK    5  A    between atoms: N_4  and  C_5
REMARK    6  A    between atoms: C_5  and  C_6
REMARK    7  A    between atoms: C_9  and  C_10
REMARK    8  A    between atoms: C_14  and  O_15
REMARK    9  A    between atoms: O_15  and  C_16
REMARK                            x       y       z     vdW  Elec       q    Type
REMARK                         _______ _______ _______ _____ _____    ______ ____
ROOT
ATOM      1  C   UNL     1       3.737   4.433  17.981  0.00  0.00    +0.000 A 
ATOM      2  C   UNL     1       3.931   4.423  19.345  0.00  0.00    +0.000 A 
ATOM      3  O   UNL     1       3.404   5.568  19.864  0.00  0.00    +0.000 OA
ATOM      4  C   UNL     1       2.909   6.232  18.772  0.00  0.00    +0.000 A 
ATOM      5  N   UNL     1       3.098   5.602  17.630  0.00  0.00    +0.000 NA
ENDROOT
BRANCH   4   6
ATOM      6  C   UNL     1       2.244   7.512  18.985  0.00  0.00    +0.000 A 
ATOM      7  C   UNL     1       2.104   8.472  17.977  0.00  0.00    +0.000 A 
ATOM      8  C   UNL     1       1.491   9.696  18.254  0.00  0.00    +0.000 A 
ATOM      9  C   UNL     1       1.015   9.964  19.539  0.00  0.00    +0.000 A 
ATOM     10  C   UNL     1       1.135   9.015  20.555  0.00  0.00    +0.000 A 
ATOM     11  C   UNL     1       1.741   7.793  20.268  0.00  0.00    +0.000 A 
BRANCH  10  12
ATOM     12  O   UNL     1       0.640   9.393  21.772  0.00  0.00    +0.000 OA
ATOM     13  C   UNL     1      -0.310  10.454  21.771  0.00  0.00    +0.000 C 
ENDBRANCH  10  12
ENDBRANCH   4   6
BRANCH   1  14
ATOM     14  C   UNL     1       4.162   3.474  16.924  0.00  0.00    +0.000 C 
BRANCH  14  15
ATOM     15  N   UNL     1       5.577   3.650  16.595  0.00  0.00    +0.000 NA
ATOM     16  H   UNL     1       6.142   3.480  17.423  0.00  0.00    +0.000 HD
BRANCH  15  17
ATOM     17  C   UNL     1       5.890   4.990  16.066  0.00  0.00    +0.000 C 
BRANCH  17  18
ATOM     18  C   UNL     1       6.746   5.810  17.032  0.00  0.00    +0.000 A 
ATOM     19  C   UNL     1       7.004   7.166  16.758  0.00  0.00    +0.000 A 
ATOM     20  C   UNL     1       7.783   7.937  17.629  0.00  0.00    +0.000 A 
ATOM     21  C   UNL     1       8.305   7.372  18.790  0.00  0.00    +0.000 A 
ATOM     22  C   UNL     1       8.043   6.039  19.088  0.00  0.00    +0.000 A 
ATOM     23  C   UNL     1       7.271   5.268  18.219  0.00  0.00    +0.000 A 
ENDBRANCH  17  18
BRANCH  17  25
ATOM     24  C   UNL     1       6.121   3.756  13.803  0.00  0.00    +0.000 C 
ATOM     25  C   UNL     1       6.444   5.000  14.618  0.00  0.00    +0.000 C 
ENDBRANCH  17  25
ENDBRANCH  15  17
ENDBRANCH  14  15
ENDBRANCH   1  14
TORSDOF 7
ENDMDL
MODEL 6
REMARK VINA RESULT:      -7.5      1.220      1.589
REMARK  Name = 
REMARK  9 active torsions:
REMARK  status: ('A' for Active; 'I' for Inactive)
REMARK    1  A    between atoms: C_1  and  C_2
REMARK    2  A    between atoms: C_2  and  C_3
REMARK    3  A    between atoms: C_3  and  N_4
REMARK    4  A    between atoms: C_3  and  C_19
REMARK    5  A    between atoms: N_4  and  C_5
REMARK    6  A    between atoms: C_5  and  C_6
REMARK    7  A    between atoms: C_9  and  C_10
REMARK    8  A    between atoms: C_14  and  O_15
REMARK    9  A    between atoms: O_15  and  C_16
REMARK                            x       y       z     vdW  Elec       q    Type
REMARK                         _______ _______ _______ _____ _____    ______ ____
ROOT
ATOM      1  C   UNL     1       4.657   5.162  17.534  0.00  0.00    +0.000 A 
ATOM      2  C   UNL     1       4.932   6.451  17.131  0.00  0.00    +0.000 A 
ATOM      3  O   UNL     1       5.505   6.402  15.895  0.00  0.00    +0.000 OA
ATOM      4  C   UNL     1       5.554   5.065  15.602  0.00  0.00    +0.000 A 
ATOM      5  N   UNL     1       5.075   4.289  16.554  0.00  0.00    +0.000 NA
ENDROOT
BRANCH   4   6
ATOM      6  C   UNL     1       6.102   4.659  14.313  0.00  0.00    +0.000 A 
ATOM      7  C   UNL     1       7.333   5.118  13.833  0.00  0.00    +0.000 A 
ATOM      8  C   UNL     1       7.786   4.723  12.571  0.00  0.00    +0.000 A 
ATOM      9  C   UNL     1       7.009   3.869  11.787  0.00  0.00    +0.000 A 
ATOM     10  C   UNL     1       5.783   3.392  12.252  0.00  0.00    +0.000 A 
ATOM     11  C   UNL     1       5.343   3.784  13.515  0.00  0.00    +0.000 A 
BRANCH  10  12
ATOM     12  O   UNL     1       5.109   2.569  11.393  0.00  0.00    +0.000 OA
ATOM     13  C   UNL     1       3.817   3.002  10.978  0.00  0.00    +0.000 C 
ENDBRANCH  10  12
ENDBRANCH   4   6
BRANCH   1  14
ATOM     14  C   UNL     1       4.096   4.633  18.808  0.00  0.00    +0.000 C 
BRANCH  14  15
ATOM     15  N   UNL     1       3.946   5.700  19.798  0.00  0.00    +0.000 NA
ATOM     16  H   UNL     1       4.537   5.504  20.601  0.00  0.00    +0.000 HD
BRANCH  15  17
ATOM     17  C   UNL     1       2.556   5.880  20.255  0.00  0.00    +0.000 C 
BRANCH  17  18
ATOM     18  C   UNL     1       2.016   7.275  19.940  0.00  0.00    +0.000 A 
ATOM     19  C   UNL     1       2.200   7.822  18.656  0.00  0.00    +0.000 A 
ATOM     20  C   UNL     1       1.711   9.096  18.344  0.00  0.00    +0.000 A 
ATOM     21  C   UNL     1       1.024   9.837  19.301  0.00  0.00    +0.000 A 
ATOM     22  C   UNL     1       0.813   9.305  20.568  0.00  0.00    +0.000 A 
ATOM     23  C   UNL     1       1.303   8.038  20.882  0.00  0.00    +0.000 A 
ENDBRANCH  17  18
BRANCH  17  25
ATOM     24  C   UNL     1       1.295   3.715  20.905  0.00  0.00    +0.000 C 
ATOM     25  C   UNL     1       1.584   4.751  19.827  0.00  0.00    +0.000 C 
ENDBRANCH  17  25
ENDBRANCH  15  17
ENDBRANCH  14  15
ENDBRANCH   1  14
TORSDOF 7
ENDMDL
MODEL 7
REMARK VINA RESULT:      -7.5      5.248      7.518
REMARK  Name = 
REMARK  9 active torsions:
REMARK  status: ('A' for Active; 'I' for Inactive)
REMARK    1  A    between atoms: C_1  and  C_2
REMARK    2  A    between atoms: C_2  and  C_3
REMARK    3  A    between atoms: C_3  and  N_4
REMARK    4  A    between atoms: C_3  and  C_19
REMARK    5  A    between atoms: N_4  and  C_5
REMARK    6  A    between atoms: C_5  and  C_6
REMARK    7  A    between atoms: C_9  and  C_10
REMARK    8  A    between atoms: C_14  and  O_15
REMARK    9  A    between atoms: O_15  and  C_16
REMARK                            x       y       z     vdW  Elec       q    Type
REMARK                         _______ _______ _______ _____ _____    ______ ____
ROOT
ATOM      1  C   UNL     1       7.866   7.150  18.223  0.00  0.00    +0.000 A 
ATOM      2  C   UNL     1       7.330   7.920  17.213  0.00  0.00    +0.000 A 
ATOM      3  O   UNL     1       7.787   9.196  17.356  0.00  0.00    +0.000 OA
ATOM      4  C   UNL     1       8.590   9.140  18.465  0.00  0.00    +0.000 A 
ATOM      5  N   UNL     1       8.654   7.948  19.022  0.00  0.00    +0.000 NA
ENDROOT
BRANCH   4   6
ATOM      6  C   UNL     1       9.269  10.360  18.889  0.00  0.00    +0.000 A 
ATOM      7  C   UNL     1       9.566  10.637  20.227  0.00  0.00    +0.000 A 
ATOM      8  C   UNL     1      10.183  11.842  20.573  0.00  0.00    +0.000 A 
ATOM      9  C   UNL     1      10.504  12.772  19.583  0.00  0.00    +0.000 A 
ATOM     10  C   UNL     1      10.225  12.509  18.242  0.00  0.00    +0.000 A 
ATOM     11  C   UNL     1       9.618  11.301  17.903  0.00  0.00    +0.000 A 
BRANCH  10  12
ATOM     12  O   UNL     1      10.578  13.497  17.364  0.00  0.00    +0.000 OA
ATOM     13  C   UNL     1      11.877  14.058  17.528  0.00  0.00    +0.000 C 
ENDBRANCH  10  12
ENDBRANCH   4   6
BRANCH   1  14
ATOM     14  C   UNL     1       7.656   5.719  18.579  0.00  0.00    +0.000 C 
BRANCH  14  15
ATOM     15  N   UNL     1       6.232   5.417  18.722  0.00  0.00    +0.000 NA
ATOM     16  H   UNL     1       6.029   5.187  19.690  0.00  0.00    +0.000 HD
BRANCH  15  17
ATOM     17  C   UNL     1       5.783   4.309  17.859  0.00  0.00    +0.000 C 
BRANCH  17  18
ATOM     18  C   UNL     1       4.261   4.155  17.857  0.00  0.00    +0.000 A 
ATOM     19  C   UNL     1       3.687   2.887  17.656  0.00  0.00    +0.000 A 
ATOM     20  C   UNL     1       2.297   2.722  17.652  0.00  0.00    +0.000 A 
ATOM     21  C   UNL     1       1.461   3.816  17.861  0.00  0.00    +0.000 A 
ATOM     22  C   UNL     1       2.010   5.073  18.083  0.00  0.00    +0.000 A 
ATOM     23  C   UNL     1       3.394   5.241  18.082  0.00  0.00    +0.000 A 
ENDBRANCH  17  18
BRANCH  17  25
ATOM     24  C   UNL     1       5.665   5.217  15.438  0.00  0.00    +0.000 C 
ATOM     25  C   UNL     1       6.386   4.315  16.431  0.00  0.00    +0.000 C 
ENDBRANCH  17  25
ENDBRANCH  15  17
ENDBRANCH  14  15
ENDBRANCH   1  14
TORSDOF 7
ENDMDL
MODEL 8
REMARK VINA RESULT:      -7.4      2.672      7.437
REMARK  Name = 
REMARK  9 active torsions:
REMARK  status: ('A' for Active; 'I' for Inactive)
REMARK    1  A    between atoms: C_1  and  C_2
REMARK    2  A    between atoms: C_2  and  C_3
REMARK    3  A    between atoms: C_3  and  N_4
REMARK    4  A    between atoms: C_3  and  C_19
REMARK    5  A    between atoms: N_4  and  C_5
REMARK    6  A    between atoms: C_5  and  C_6
REMARK    7  A    between atoms: C_9  and  C_10
REMARK    8  A    between atoms: C_14  and  O_15
REMARK    9  A    between atoms: O_15  and  C_16
REMARK                            x       y       z     vdW  Elec       q    Type
REMARK                         _______ _______ _______ _____ _____    ______ ____
ROOT
ATOM      1  C   UNL     1       3.777   4.115  17.879  0.00  0.00    +0.000 A 
ATOM      2  C   UNL     1       3.924   3.794  19.211  0.00  0.00    +0.000 A 
ATOM      3  O   UNL     1       3.403   4.807  19.959  0.00  0.00    +0.000 OA
ATOM      4  C   UNL     1       2.957   5.711  19.031  0.00  0.00    +0.000 A 
ATOM      5  N   UNL     1       3.173   5.349  17.782  0.00  0.00    +0.000 NA
ENDROOT
BRANCH   4   6
ATOM      6  C   UNL     1       2.310   6.928  19.507  0.00  0.00    +0.000 A 
ATOM      7  C   UNL     1       1.897   7.099  20.833  0.00  0.00    +0.000 A 
ATOM      8  C   UNL     1       1.246   8.274  21.219  0.00  0.00    +0.000 A 
ATOM      9  C   UNL     1       1.005   9.279  20.281  0.00  0.00    +0.000 A 
ATOM     10  C   UNL     1       1.419   9.132  18.957  0.00  0.00    +0.000 A 
ATOM     11  C   UNL     1       2.076   7.961  18.582  0.00  0.00    +0.000 A 
BRANCH  10  12
ATOM     12  O   UNL     1       1.122  10.179  18.129  0.00  0.00    +0.000 OA
ATOM     13  C   UNL     1       0.074  11.046  18.552  0.00  0.00    +0.000 C 
ENDBRANCH  10  12
ENDBRANCH   4   6
BRANCH   1  14
ATOM     14  C   UNL     1       4.219   3.407  16.646  0.00  0.00    +0.000 C 
BRANCH  14  15
ATOM     15  N   UNL     1       5.667   3.522  16.466  0.00  0.00    +0.000 NA
ATOM     16  H   UNL     1       6.132   3.379  17.358  0.00  0.00    +0.000 HD
BRANCH  15  17
ATOM     17  C   UNL     1       6.084   4.821  15.908  0.00  0.00    +0.000 C 
BRANCH  17  18
ATOM     18  C   UNL     1       6.840   5.675  16.927  0.00  0.00    +0.000 A 
ATOM     19  C   UNL     1       6.985   7.057  16.711  0.00  0.00    +0.000 A 
ATOM     20  C   UNL     1       7.671   7.859  17.631  0.00  0.00    +0.000 A 
ATOM     21  C   UNL     1       8.212   7.296  18.784  0.00  0.00    +0.000 A 
ATOM     22  C   UNL     1       8.060   5.935  19.026  0.00  0.00    +0.000 A 
ATOM     23  C   UNL     1       7.381   5.135  18.109  0.00  0.00    +0.000 A 
ENDBRANCH  17  18
BRANCH  17  25
ATOM     24  C   UNL     1       6.108   3.876  13.499  0.00  0.00    +0.000 C 
ATOM     25  C   UNL     1       6.810   4.735  14.542  0.00  0.00    +0.000 C 
ENDBRANCH  17  25
ENDBRANCH  15  17
ENDBRANCH  14  15
ENDBRANCH   1  14
TORSDOF 7
ENDMDL
MODEL 9
REMARK VINA RESULT:      -7.4      2.594      4.917
REMARK  Name = 
REMARK  9 active torsions:
REMARK  status: ('A' for Active; 'I' for Inactive)
REMARK    1  A    between atoms: C_1  and  C_2
REMARK    2  A    between atoms: C_2  and  C_3
REMARK    3  A    between atoms: C_3  and  N_4
REMARK    4  A    between atoms: C_3  and  C_19
REMARK    5  A    between atoms: N_4  and  C_5
REMARK    6  A    between atoms: C_5  and  C_6
REMARK    7  A    between atoms: C_9  and  C_10
REMARK    8  A    between atoms: C_14  and  O_15
REMARK    9  A    between atoms: O_15  and  C_16
REMARK                            x       y       z     vdW  Elec       q    Type
REMARK                         _______ _______ _______ _____ _____    ______ ____
ROOT
ATOM      1  C   UNL     1       2.188   5.677  19.901  0.00  0.00    +0.000 A 
ATOM      2  C   UNL     1       1.882   4.391  19.515  0.00  0.00    +0.000 A 
ATOM      3  O   UNL     1       2.777   4.003  18.562  0.00  0.00    +0.000 OA
ATOM      4  C   UNL     1       3.596   5.091  18.412  0.00  0.00    +0.000 A 
ATOM      5  N   UNL     1       3.274   6.115  19.176  0.00  0.00    +0.000 NA
ENDROOT
BRANCH   4   6
ATOM      6  C   UNL     1       4.700   4.999  17.463  0.00  0.00    +0.000 A 
ATOM      7  C   UNL     1       4.868   3.915  16.596  0.00  0.00    +0.000 A 
ATOM      8  C   UNL     1       5.969   3.866  15.737  0.00  0.00    +0.000 A 
ATOM      9  C   UNL     1       6.905   4.901  15.743  0.00  0.00    +0.000 A 
ATOM     10  C   UNL     1       6.750   5.997  16.594  0.00  0.00    +0.000 A 
ATOM     11  C   UNL     1       5.644   6.042  17.441  0.00  0.00    +0.000 A 
BRANCH  10  12
ATOM     12  O   UNL     1       7.733   6.944  16.516  0.00  0.00    +0.000 OA
ATOM     13  C   UNL     1       7.806   7.876  17.591  0.00  0.00    +0.000 C 
ENDBRANCH  10  12
ENDBRANCH   4   6
BRANCH   1  14
ATOM     14  C   UNL     1       1.510   6.601  20.852  0.00  0.00    +0.000 C 
BRANCH  14  15
ATOM     15  N   UNL     1       1.963   7.978  20.659  0.00  0.00    +0.000 NA
ATOM     16  H   UNL     1       2.226   8.378  21.555  0.00  0.00    +0.000 HD
BRANCH  15  17
ATOM     17  C   UNL     1       0.950   8.842  20.026  0.00  0.00    +0.000 C 
BRANCH  17  18
ATOM     18  C   UNL     1       0.207   9.708  21.043  0.00  0.00    +0.000 A 
ATOM     19  C   UNL     1      -0.014   9.223  22.346  0.00  0.00    +0.000 A 
ATOM     20  C   UNL     1      -0.689   9.999  23.295  0.00  0.00    +0.000 A 
ATOM     21  C   UNL     1      -1.143  11.273  22.964  0.00  0.00    +0.000 A 
ATOM     22  C   UNL     1      -0.915  11.779  21.689  0.00  0.00    +0.000 A 
ATOM     23  C   UNL     1      -0.246  11.005  20.741  0.00  0.00    +0.000 A 
ENDBRANCH  17  18
BRANCH  17  25
ATOM     24  C   UNL     1       1.985   8.812  17.654  0.00  0.00    +0.000 C 
ATOM     25  C   UNL     1       1.463   9.655  18.809  0.00  0.00    +0.000 C 
ENDBRANCH  17  25
ENDBRANCH  15  17
ENDBRANCH  14  15
ENDBRANCH   1  14
TORSDOF 7
ENDMDL
