MODEL 1
REMARK VINA RESULT:      -9.3      0.000      0.000
REMARK  Name = 
REMARK  10 active torsions:
REMARK  status: ('A' for Active; 'I' for Inactive)
REMARK    1  A    between atoms: C_1  and  C_2
REMARK    2  A    between atoms: C_5  and  C_6
REMARK    3  A    between atoms: C_6  and  N_7
REMARK    4  A    between atoms: N_7  and  C_8
REMARK    5  A    between atoms: C_8  and  C_9
REMARK    6  A    between atoms: C_8  and  C_27
REMARK    7  A    between atoms: C_11  and  C_12
REMARK    8  A    between atoms: C_12  and  C_13
REMARK    9  A    between atoms: C_19  and  N_20
REMARK   10  A    between atoms: C_32  and  C_33
REMARK                            x       y       z     vdW  Elec       q    Type
REMARK                         _______ _______ _______ _____ _____    ______ ____
ROOT
ATOM      1  C   UNL     1       1.582   9.703  19.160  0.00  0.00    +0.000 C 
ENDROOT
BRANCH   1   2
ATOM      2  C   UNL     1       0.807   9.781  20.490  0.00  0.00    +0.000 A 
ATOM      3  C   UNL     1       0.393   8.581  21.110  0.00  0.00    +0.000 A 
ATOM      4  C   UNL     1      -0.364   8.577  22.280  0.00  0.00    +0.000 A 
ATOM      5  C   UNL     1      -0.694   9.778  22.888  0.00  0.00    +0.000 A 
ATOM      6  C   UNL     1      -0.244  10.980  22.336  0.00  0.00    +0.000 A 
ATOM      7  C   UNL     1       0.521  11.000  21.150  0.00  0.00    +0.000 A 
ATOM      8  C   UNL     1       1.013  12.334  20.660  0.00  0.00    +0.000 C 
ENDBRANCH   1   2
BRANCH   1   9
ATOM      9  C   UNL     1       1.991   8.272  18.850  0.00  0.00    +0.000 A 
ATOM     10  N   UNL     1       2.814   7.849  17.915  0.00  0.00    +0.000 NA
ATOM     11  C   UNL     1       3.105   6.549  18.272  0.00  0.00    +0.000 A 
ATOM     12  C   UNL     1       2.369   6.189  19.396  0.00  0.00    +0.000 A 
ATOM     13  O   UNL     1       1.642   7.302  19.761  0.00  0.00    +0.000 OA
BRANCH  12  14
ATOM     14  N   UNL     1       2.235   5.066  20.151  0.00  0.00    +0.000 N 
ATOM     15  C   UNL     1       3.371   4.190  20.475  0.00  0.00    +0.000 C 
ATOM     16  C   UNL     1       3.200   2.812  19.811  0.00  0.00    +0.000 C 
ATOM     17  O   UNL     1       1.930   2.215  20.129  0.00  0.00    +0.000 OA
ATOM     18  C   UNL     1       0.862   3.071  19.696  0.00  0.00    +0.000 C 
ATOM     19  C   UNL     1       0.934   4.434  20.402  0.00  0.00    +0.000 C 
ENDBRANCH  12  14
BRANCH  11  20
ATOM     20  C   UNL     1       4.078   5.805  17.434  0.00  0.00    +0.000 C 
BRANCH  20  21
ATOM     21  C   UNL     1       5.489   6.186  17.851  0.00  0.00    +0.000 A 
ATOM     22  C   UNL     1       6.098   5.461  18.890  0.00  0.00    +0.000 A 
ATOM     23  C   UNL     1       7.415   5.724  19.278  0.00  0.00    +0.000 A 
ATOM     24  C   UNL     1       8.152   6.708  18.625  0.00  0.00    +0.000 A 
ATOM     25  C   UNL     1       7.574   7.427  17.582  0.00  0.00    +0.000 A 
ATOM     26  C   UNL     1       6.259   7.159  17.190  0.00  0.00    +0.000 A 
ENDBRANCH  20  21
ENDBRANCH  11  20
ENDBRANCH   1   9
BRANCH   1  27
ATOM     27  N   UNL     1       0.796  10.190  17.996  0.00  0.00    +0.000 NA
ATOM     28  H   UNL     1       0.408  11.102  18.230  0.00  0.00    +0.000 HD
BRANCH  27  29
ATOM     29  C   UNL     1      -0.274   9.319  17.531  0.00  0.00    +0.000 C 
BRANCH  29  34
ATOM     30  C   UNL     1      -5.344  12.231  17.506  0.00  0.00    +0.000 C 
ATOM     31  C   UNL     1      -4.045  11.478  17.500  0.00  0.00    +0.000 A 
ATOM     32  C   UNL     1      -3.720  10.605  16.458  0.00  0.00    +0.000 A 
ATOM     33  C   UNL     1      -2.506   9.912  16.470  0.00  0.00    +0.000 A 
ATOM     34  C   UNL     1      -1.588  10.081  17.520  0.00  0.00    +0.000 A 
ATOM     35  C   UNL     1      -1.923  10.950  18.565  0.00  0.00    +0.000 A 
ATOM     36  C   UNL     1      -3.139  11.642  18.554  0.00  0.00    +0.000 A 
ENDBRANCH  29  34
ENDBRANCH  27  29
ENDBRANCH   1  27
TORSDOF 8
ENDMDL
MODEL 2
REMARK VINA RESULT:      -9.0      1.682      3.685
REMARK  Name = 
REMARK  10 active torsions:
REMARK  status: ('A' for Active; 'I' for Inactive)
REMARK    1  A    between atoms: C_1  and  C_2
REMARK    2  A    between atoms: C_5  and  C_6
REMARK    3  A    between atoms: C_6  and  N_7
REMARK    4  A    between atoms: N_7  and  C_8
REMARK    5  A    between atoms: C_8  and  C_9
REMARK    6  A    between atoms: C_8  and  C_27
REMARK    7  A    between atoms: C_11  and  C_12
REMARK    8  A    between atoms: C_12  and  C_13
REMARK    9  A    between atoms: C_19  and  N_20
REMARK   10  A    between atoms: C_32  and  C_33
REMARK                            x       y       z     vdW  Elec       q    Type
REMARK                         _______ _______ _______ _____ _____    ______ ____
ROOT
ATOM      1  C   UNL     1       1.483   9.537  18.920  0.00  0.00    +0.000 C 
ENDROOT
BRANCH   1   2
ATOM      2  C   UNL     1       0.821   9.589  20.311  0.00  0.00    +0.000 A 
ATOM      3  C   UNL     1       0.329   8.391  20.877  0.00  0.00    +0.000 A 
ATOM      4  C   UNL     1      -0.335   8.372  22.101  0.00  0.00    +0.000 A 
ATOM      5  C   UNL     1      -0.490   9.549  22.817  0.00  0.00    +0.000 A 
ATOM      6  C   UNL     1       0.043  10.739  22.315  0.00  0.00    +0.000 A 
ATOM      7  C   UNL     1       0.715  10.775  21.075  0.00  0.00    +0.000 A 
ATOM      8  C   UNL     1       1.308  12.087  20.641  0.00  0.00    +0.000 C 
ENDBRANCH   1   2
BRANCH   1   9
ATOM      9  C   UNL     1       2.138   8.187  18.676  0.00  0.00    +0.000 A 
ATOM     10  N   UNL     1       1.570   7.001  18.662  0.00  0.00    +0.000 NA
ATOM     11  C   UNL     1       2.502   6.177  18.068  0.00  0.00    +0.000 A 
ATOM     12  C   UNL     1       3.668   6.889  17.807  0.00  0.00    +0.000 A 
ATOM     13  O   UNL     1       3.433   8.186  18.211  0.00  0.00    +0.000 OA
BRANCH  12  14
ATOM     14  N   UNL     1       4.885   6.600  17.273  0.00  0.00    +0.000 N 
ATOM     15  C   UNL     1       5.092   6.425  15.828  0.00  0.00    +0.000 C 
ATOM     16  C   UNL     1       5.486   4.971  15.508  0.00  0.00    +0.000 C 
ATOM     17  O   UNL     1       6.613   4.534  16.288  0.00  0.00    +0.000 OA
ATOM     18  C   UNL     1       6.309   4.633  17.689  0.00  0.00    +0.000 C 
ATOM     19  C   UNL     1       5.998   6.086  18.079  0.00  0.00    +0.000 C 
ENDBRANCH  12  14
BRANCH  11  20
ATOM     20  C   UNL     1       2.126   4.758  17.844  0.00  0.00    +0.000 C 
BRANCH  20  21
ATOM     21  C   UNL     1       2.243   3.998  19.155  0.00  0.00    +0.000 A 
ATOM     22  C   UNL     1       1.083   3.816  19.928  0.00  0.00    +0.000 A 
ATOM     23  C   UNL     1       1.115   3.074  21.112  0.00  0.00    +0.000 A 
ATOM     24  C   UNL     1       2.305   2.490  21.539  0.00  0.00    +0.000 A 
ATOM     25  C   UNL     1       3.461   2.644  20.781  0.00  0.00    +0.000 A 
ATOM     26  C   UNL     1       3.428   3.380  19.593  0.00  0.00    +0.000 A 
ENDBRANCH  20  21
ENDBRANCH  11  20
ENDBRANCH   1   9
BRANCH   1  27
ATOM     27  N   UNL     1       0.523   9.759  17.806  0.00  0.00    +0.000 NA
ATOM     28  H   UNL     1       0.993   9.543  16.929  0.00  0.00    +0.000 HD
BRANCH  27  29
ATOM     29  C   UNL     1      -0.065  11.088  17.719  0.00  0.00    +0.000 C 
BRANCH  29  34
ATOM     30  C   UNL     1      -5.861  10.755  18.403  0.00  0.00    +0.000 C 
ATOM     31  C   UNL     1      -4.373  10.851  18.237  0.00  0.00    +0.000 A 
ATOM     32  C   UNL     1      -3.631  11.828  18.908  0.00  0.00    +0.000 A 
ATOM     33  C   UNL     1      -2.245  11.902  18.740  0.00  0.00    +0.000 A 
ATOM     34  C   UNL     1      -1.570  10.998  17.903  0.00  0.00    +0.000 A 
ATOM     35  C   UNL     1      -2.319  10.028  17.227  0.00  0.00    +0.000 A 
ATOM     36  C   UNL     1      -3.706   9.955  17.393  0.00  0.00    +0.000 A 
ENDBRANCH  29  34
ENDBRANCH  27  29
ENDBRANCH   1  27
TORSDOF 8
ENDMDL
MODEL 3
REMARK VINA RESULT:      -8.9      1.588      3.667
REMARK  Name = 
REMARK  10 active torsions:
REMARK  status: ('A' for Active; 'I' for Inactive)
REMARK    1  A    between atoms: C_1  and  C_2
REMARK    2  A    between atoms: C_5  and  C_6
REMARK    3  A    between atoms: C_6  and  N_7
REMARK    4  A    between atoms: N_7  and  C_8
REMARK    5  A    between atoms: C_8  and  C_9
REMARK    6  A    between atoms: C_8  and  C_27
REMARK    7  A    between atoms: C_11  and  C_12
REMARK    8  A    between atoms: C_12  and  C_13
REMARK    9  A    between atoms: C_19  and  N_20
REMARK   10  A    between atoms: C_32  and  C_33
REMARK                            x       y       z     vdW  Elec       q    Type
REMARK                         _______ _______ _______ _____ _____    ______ ____
ROOT
ATOM      1  C   UNL     1       1.625   9.837  18.752  0.00  0.00    +0.000 C 
ENDROOT
BRANCH   1   2
ATOM      2  C   UNL     1       0.935   9.890  20.130  0.00  0.00    +0.000 A 
ATOM      3  C   UNL     1       0.699   8.680  20.821  0.00  0.00    +0.000 A 
ATOM      4  C   UNL     1       0.026   8.646  22.040  0.00  0.00    +0.000 A 
ATOM      5  C   UNL     1      -0.394   9.829  22.626  0.00  0.00    +0.000 A 
ATOM      6  C   UNL     1      -0.118  11.048  22.000  0.00  0.00    +0.000 A 
ATOM      7  C   UNL     1       0.560  11.098  20.763  0.00  0.00    +0.000 A 
ATOM      8  C   UNL     1       0.867  12.455  20.192  0.00  0.00    +0.000 C 
ENDBRANCH   1   2
BRANCH   1   9
ATOM      9  C   UNL     1       2.248   8.473  18.505  0.00  0.00    +0.000 A 
ATOM     10  N   UNL     1       1.664   7.295  18.549  0.00  0.00    +0.000 NA
ATOM     11  C   UNL     1       2.553   6.445  17.925  0.00  0.00    +0.000 A 
ATOM     12  C   UNL     1       3.712   7.134  17.585  0.00  0.00    +0.000 A 
ATOM     13  O   UNL     1       3.515   8.443  17.971  0.00  0.00    +0.000 OA
BRANCH  12  14
ATOM     14  N   UNL     1       4.894   6.817  16.993  0.00  0.00    +0.000 N 
ATOM     15  C   UNL     1       5.013   5.752  15.986  0.00  0.00    +0.000 C 
ATOM     16  C   UNL     1       5.873   4.592  16.520  0.00  0.00    +0.000 C 
ATOM     17  O   UNL     1       7.151   5.047  17.001  0.00  0.00    +0.000 OA
ATOM     18  C   UNL     1       6.966   6.008  18.053  0.00  0.00    +0.000 C 
ATOM     19  C   UNL     1       6.190   7.232  17.545  0.00  0.00    +0.000 C 
ENDBRANCH  12  14
BRANCH  11  20
ATOM     20  C   UNL     1       2.147   5.027  17.755  0.00  0.00    +0.000 C 
BRANCH  20  21
ATOM     21  C   UNL     1       1.961   4.393  19.123  0.00  0.00    +0.000 A 
ATOM     22  C   UNL     1       1.197   3.216  19.217  0.00  0.00    +0.000 A 
ATOM     23  C   UNL     1       1.040   2.554  20.437  0.00  0.00    +0.000 A 
ATOM     24  C   UNL     1       1.654   3.048  21.585  0.00  0.00    +0.000 A 
ATOM     25  C   UNL     1       2.428   4.202  21.512  0.00  0.00    +0.000 A 
ATOM     26  C   UNL     1       2.591   4.862  20.290  0.00  0.00    +0.000 A 
ENDBRANCH  20  21
ENDBRANCH  11  20
ENDBRANCH   1   9
BRANCH   1  27
ATOM     27  N   UNL     1       0.694  10.099  17.622  0.00  0.00    +0.000 NA
ATOM     28  H   UNL     1       0.351  11.054  17.704  0.00  0.00    +0.000 HD
BRANCH  27  29
ATOM     29  C   UNL     1      -0.438   9.193  17.497  0.00  0.00    +0.000 C 
BRANCH  29  34
ATOM     30  C   UNL     1      -5.408  12.244  17.095  0.00  0.00    +0.000 C 
ATOM     31  C   UNL     1      -4.134  11.456  17.185  0.00  0.00    +0.000 A 
ATOM     32  C   UNL     1      -3.730  10.613  16.146  0.00  0.00    +0.000 A 
ATOM     33  C   UNL     1      -2.540   9.886  16.248  0.00  0.00    +0.000 A 
ATOM     34  C   UNL     1      -1.725   9.991  17.389  0.00  0.00    +0.000 A 
ATOM     35  C   UNL     1      -2.140  10.830  18.430  0.00  0.00    +0.000 A 
ATOM     36  C   UNL     1      -3.331  11.555  18.328  0.00  0.00    +0.000 A 
ENDBRANCH  29  34
ENDBRANCH  27  29
ENDBRANCH   1  27
TORSDOF 8
ENDMDL
MODEL 4
REMARK VINA RESULT:      -8.9      2.139      8.263
REMARK  Name = 
REMARK  10 active torsions:
REMARK  status: ('A' for Active; 'I' for Inactive)
REMARK    1  A    between atoms: C_1  and  C_2
REMARK    2  A    between atoms: C_5  and  C_6
REMARK    3  A    between atoms: C_6  and  N_7
REMARK    4  A    between atoms: N_7  and  C_8
REMARK    5  A    between atoms: C_8  and  C_9
REMARK    6  A    between atoms: C_8  and  C_27
REMARK    7  A    between atoms: C_11  and  C_12
REMARK    8  A    between atoms: C_12  and  C_13
REMARK    9  A    between atoms: C_19  and  N_20
REMARK   10  A    between atoms: C_32  and  C_33
REMARK                            x       y       z     vdW  Elec       q    Type
REMARK                         _______ _______ _______ _____ _____    ______ ____
ROOT
ATOM      1  C   UNL     1       2.465   7.053  17.996  0.00  0.00    +0.000 C 
ENDROOT
BRANCH   1   2
ATOM      2  C   UNL     1       2.129   5.936  19.004  0.00  0.00    +0.000 A 
ATOM      3  C   UNL     1       2.236   6.211  20.386  0.00  0.00    +0.000 A 
ATOM      4  C   UNL     1       2.009   5.233  21.352  0.00  0.00    +0.000 A 
ATOM      5  C   UNL     1       1.625   3.959  20.963  0.00  0.00    +0.000 A 
ATOM      6  C   UNL     1       1.447   3.674  19.607  0.00  0.00    +0.000 A 
ATOM      7  C   UNL     1       1.677   4.653  18.616  0.00  0.00    +0.000 A 
ATOM      8  C   UNL     1       1.403   4.275  17.186  0.00  0.00    +0.000 C 
ENDBRANCH   1   2
BRANCH   1   9
ATOM      9  C   UNL     1       1.989   8.406  18.501  0.00  0.00    +0.000 A 
ATOM     10  N   UNL     1       1.443   9.383  17.810  0.00  0.00    +0.000 NA
ATOM     11  C   UNL     1       0.893  10.215  18.762  0.00  0.00    +0.000 A 
ATOM     12  C   UNL     1       1.200   9.748  20.036  0.00  0.00    +0.000 A 
ATOM     13  O   UNL     1       1.918   8.584  19.863  0.00  0.00    +0.000 OA
BRANCH  12  14
ATOM     14  N   UNL     1       0.953  10.159  21.308  0.00  0.00    +0.000 N 
ATOM     15  C   UNL     1       0.885   9.226  22.442  0.00  0.00    +0.000 C 
ATOM     16  C   UNL     1      -0.540   9.176  23.021  0.00  0.00    +0.000 C 
ATOM     17  O   UNL     1      -1.033  10.487  23.351  0.00  0.00    +0.000 OA
ATOM     18  C   UNL     1      -1.039  11.319  22.181  0.00  0.00    +0.000 C 
ATOM     19  C   UNL     1       0.380  11.477  21.614  0.00  0.00    +0.000 C 
ENDBRANCH  12  14
BRANCH  11  20
ATOM     20  C   UNL     1       0.134  11.399  18.288  0.00  0.00    +0.000 C 
BRANCH  20  21
ATOM     21  C   UNL     1      -1.329  11.021  18.123  0.00  0.00    +0.000 A 
ATOM     22  C   UNL     1      -2.303  11.835  18.729  0.00  0.00    +0.000 A 
ATOM     23  C   UNL     1      -3.665  11.573  18.563  0.00  0.00    +0.000 A 
ATOM     24  C   UNL     1      -4.080  10.500  17.779  0.00  0.00    +0.000 A 
ATOM     25  C   UNL     1      -3.134   9.692  17.156  0.00  0.00    +0.000 A 
ATOM     26  C   UNL     1      -1.770   9.957  17.317  0.00  0.00    +0.000 A 
ENDBRANCH  20  21
ENDBRANCH  11  20
ENDBRANCH   1   9
BRANCH   1  27
ATOM     27  N   UNL     1       3.921   7.179  17.726  0.00  0.00    +0.000 NA
ATOM     28  H   UNL     1       4.045   7.461  16.755  0.00  0.00    +0.000 HD
BRANCH  27  29
ATOM     29  C   UNL     1       4.730   5.997  17.988  0.00  0.00    +0.000 C 
BRANCH  29  34
ATOM     30  C   UNL     1       6.247   3.501  12.925  0.00  0.00    +0.000 C 
ATOM     31  C   UNL     1       5.859   4.129  14.231  0.00  0.00    +0.000 A 
ATOM     32  C   UNL     1       5.641   3.351  15.372  0.00  0.00    +0.000 A 
ATOM     33  C   UNL     1       5.278   3.954  16.580  0.00  0.00    +0.000 A 
ATOM     34  C   UNL     1       5.132   5.348  16.676  0.00  0.00    +0.000 A 
ATOM     35  C   UNL     1       5.342   6.122  15.528  0.00  0.00    +0.000 A 
ATOM     36  C   UNL     1       5.702   5.518  14.319  0.00  0.00    +0.000 A 
ENDBRANCH  29  34
ENDBRANCH  27  29
ENDBRANCH   1  27
TORSDOF 8
ENDMDL
MODEL 5
REMARK VINA RESULT:      -8.8      0.651      1.066
REMARK  Name = 
REMARK  10 active torsions:
REMARK  status: ('A' for Active; 'I' for Inactive)
REMARK    1  A    between atoms: C_1  and  C_2
REMARK    2  A    between atoms: C_5  and  C_6
REMARK    3  A    between atoms: C_6  and  N_7
REMARK    4  A    between atoms: N_7  and  C_8
REMARK    5  A    between atoms: C_8  and  C_9
REMARK    6  A    between atoms: C_8  and  C_27
REMARK    7  A    between atoms: C_11  and  C_12
REMARK    8  A    between atoms: C_12  and  C_13
REMARK    9  A    between atoms: C_19  and  N_20
REMARK   10  A    between atoms: C_32  and  C_33
REMARK                            x       y       z     vdW  Elec       q    Type
REMARK                         _______ _______ _______ _____ _____    ______ ____
ROOT
ATOM      1  C   UNL     1       1.711   9.639  19.008  0.00  0.00    +0.000 C 
ENDROOT
BRANCH   1   2
ATOM      2  C   UNL     1       0.954   9.597  20.350  0.00  0.00    +0.000 A 
ATOM      3  C   UNL     1       0.499   8.351  20.837  0.00  0.00    +0.000 A 
ATOM      4  C   UNL     1      -0.245   8.245  22.010  0.00  0.00    +0.000 A 
ATOM      5  C   UNL     1      -0.520   9.381  22.755  0.00  0.00    +0.000 A 
ATOM      6  C   UNL     1      -0.028  10.619  22.335  0.00  0.00    +0.000 A 
ATOM      7  C   UNL     1       0.725  10.743  21.147  0.00  0.00    +0.000 A 
ATOM      8  C   UNL     1       1.265  12.104  20.803  0.00  0.00    +0.000 C 
ENDBRANCH   1   2
BRANCH   1   9
ATOM      9  C   UNL     1       2.108   8.242  18.560  0.00  0.00    +0.000 A 
ATOM     10  N   UNL     1       2.999   7.903  17.654  0.00  0.00    +0.000 NA
ATOM     11  C   UNL     1       3.222   6.560  17.872  0.00  0.00    +0.000 A 
ATOM     12  C   UNL     1       2.381   6.095  18.877  0.00  0.00    +0.000 A 
ATOM     13  O   UNL     1       1.654   7.183  19.313  0.00  0.00    +0.000 OA
BRANCH  12  14
ATOM     14  N   UNL     1       2.151   4.896  19.475  0.00  0.00    +0.000 N 
ATOM     15  C   UNL     1       3.026   4.356  20.526  0.00  0.00    +0.000 C 
ATOM     16  C   UNL     1       3.740   3.083  20.037  0.00  0.00    +0.000 C 
ATOM     17  O   UNL     1       2.814   2.106  19.529  0.00  0.00    +0.000 OA
ATOM     18  C   UNL     1       2.062   2.662  18.439  0.00  0.00    +0.000 C 
ATOM     19  C   UNL     1       1.255   3.886  18.898  0.00  0.00    +0.000 C 
ENDBRANCH  12  14
BRANCH  11  20
ATOM     20  C   UNL     1       4.246   5.886  17.034  0.00  0.00    +0.000 C 
BRANCH  20  21
ATOM     21  C   UNL     1       5.621   6.131  17.633  0.00  0.00    +0.000 A 
ATOM     22  C   UNL     1       6.395   7.187  17.122  0.00  0.00    +0.000 A 
ATOM     23  C   UNL     1       7.641   7.500  17.672  0.00  0.00    +0.000 A 
ATOM     24  C   UNL     1       8.132   6.769  18.751  0.00  0.00    +0.000 A 
ATOM     25  C   UNL     1       7.375   5.729  19.283  0.00  0.00    +0.000 A 
ATOM     26  C   UNL     1       6.125   5.421  18.737  0.00  0.00    +0.000 A 
ENDBRANCH  20  21
ENDBRANCH  11  20
ENDBRANCH   1   9
BRANCH   1  27
ATOM     27  N   UNL     1       0.913  10.237  17.905  0.00  0.00    +0.000 NA
ATOM     28  H   UNL     1       0.602  11.161  18.198  0.00  0.00    +0.000 HD
BRANCH  27  29
ATOM     29  C   UNL     1      -0.236   9.466  17.451  0.00  0.00    +0.000 C 
BRANCH  29  34
ATOM     30  C   UNL     1      -5.168  12.316  18.767  0.00  0.00    +0.000 C 
ATOM     31  C   UNL     1      -3.909  11.575  18.422  0.00  0.00    +0.000 A 
ATOM     32  C   UNL     1      -3.950  10.370  17.713  0.00  0.00    +0.000 A 
ATOM     33  C   UNL     1      -2.766   9.694  17.402  0.00  0.00    +0.000 A 
ATOM     34  C   UNL     1      -1.517  10.210  17.785  0.00  0.00    +0.000 A 
ATOM     35  C   UNL     1      -1.483  11.411  18.503  0.00  0.00    +0.000 A 
ATOM     36  C   UNL     1      -2.667  12.087  18.817  0.00  0.00    +0.000 A 
ENDBRANCH  29  34
ENDBRANCH  27  29
ENDBRANCH   1  27
TORSDOF 8
ENDMDL
MODEL 6
REMARK VINA RESULT:      -8.8      1.565      3.314
REMARK  Name = 
REMARK  10 active torsions:
REMARK  status: ('A' for Active; 'I' for Inactive)
REMARK    1  A    between atoms: C_1  and  C_2
REMARK    2  A    between atoms: C_5  and  C_6
REMARK    3  A    between atoms: C_6  and  N_7
REMARK    4  A    between atoms: N_7  and  C_8
REMARK    5  A    between atoms: C_8  and  C_9
REMARK    6  A    between atoms: C_8  and  C_27
REMARK    7  A    between atoms: C_11  and  C_12
REMARK    8  A    between atoms: C_12  and  C_13
REMARK    9  A    between atoms: C_19  and  N_20
REMARK   10  A    between atoms: C_32  and  C_33
REMARK                            x       y       z     vdW  Elec       q    Type
REMARK                         _______ _______ _______ _____ _____    ______ ____
ROOT
ATOM      1  C   UNL     1       1.628  10.077  18.438  0.00  0.00    +0.000 C 
ENDROOT
BRANCH   1   2
ATOM      2  C   UNL     1       0.088  10.047  18.380  0.00  0.00    +0.000 A 
ATOM      3  C   UNL     1      -0.543   9.727  17.156  0.00  0.00    +0.000 A 
ATOM      4  C   UNL     1      -1.928   9.741  17.014  0.00  0.00    +0.000 A 
ATOM      5  C   UNL     1      -2.728  10.036  18.107  0.00  0.00    +0.000 A 
ATOM      6  C   UNL     1      -2.138  10.293  19.347  0.00  0.00    +0.000 A 
ATOM      7  C   UNL     1      -0.735  10.285  19.505  0.00  0.00    +0.000 A 
ATOM      8  C   UNL     1      -0.189  10.513  20.889  0.00  0.00    +0.000 C 
ENDBRANCH   1   2
BRANCH   1   9
ATOM      9  C   UNL     1       2.216   8.741  18.015  0.00  0.00    +0.000 A 
ATOM     10  N   UNL     1       3.145   8.513  17.111  0.00  0.00    +0.000 NA
ATOM     11  C   UNL     1       3.555   7.219  17.353  0.00  0.00    +0.000 A 
ATOM     12  C   UNL     1       2.788   6.660  18.370  0.00  0.00    +0.000 A 
ATOM     13  O   UNL     1       1.916   7.643  18.788  0.00  0.00    +0.000 OA
BRANCH  12  14
ATOM     14  N   UNL     1       2.729   5.452  18.992  0.00  0.00    +0.000 N 
ATOM     15  C   UNL     1       2.678   4.183  18.251  0.00  0.00    +0.000 C 
ATOM     16  C   UNL     1       1.328   3.478  18.472  0.00  0.00    +0.000 C 
ATOM     17  O   UNL     1       1.027   3.317  19.870  0.00  0.00    +0.000 OA
ATOM     18  C   UNL     1       0.990   4.600  20.516  0.00  0.00    +0.000 C 
ATOM     19  C   UNL     1       2.348   5.309  20.402  0.00  0.00    +0.000 C 
ENDBRANCH  12  14
BRANCH  11  20
ATOM     20  C   UNL     1       4.662   6.680  16.524  0.00  0.00    +0.000 C 
BRANCH  20  21
ATOM     21  C   UNL     1       5.910   6.551  17.382  0.00  0.00    +0.000 A 
ATOM     22  C   UNL     1       6.181   5.311  17.987  0.00  0.00    +0.000 A 
ATOM     23  C   UNL     1       7.343   5.114  18.737  0.00  0.00    +0.000 A 
ATOM     24  C   UNL     1       8.263   6.148  18.886  0.00  0.00    +0.000 A 
ATOM     25  C   UNL     1       8.023   7.378  18.281  0.00  0.00    +0.000 A 
ATOM     26  C   UNL     1       6.863   7.574  17.525  0.00  0.00    +0.000 A 
ENDBRANCH  20  21
ENDBRANCH  11  20
ENDBRANCH   1   9
BRANCH   1  27
ATOM     27  N   UNL     1       2.226  11.113  17.554  0.00  0.00    +0.000 NA
ATOM     28  H   UNL     1       2.917  10.664  16.956  0.00  0.00    +0.000 HD
BRANCH  27  29
ATOM     29  C   UNL     1       2.840  12.252  18.222  0.00  0.00    +0.000 C 
BRANCH  29  34
ATOM     30  C   UNL     1      -1.194  15.196  21.261  0.00  0.00    +0.000 C 
ATOM     31  C   UNL     1      -0.151  14.438  20.492  0.00  0.00    +0.000 A 
ATOM     32  C   UNL     1       1.035  14.020  21.102  0.00  0.00    +0.000 A 
ATOM     33  C   UNL     1       1.996  13.316  20.370  0.00  0.00    +0.000 A 
ATOM     34  C   UNL     1       1.789  13.010  19.014  0.00  0.00    +0.000 A 
ATOM     35  C   UNL     1       0.603  13.440  18.407  0.00  0.00    +0.000 A 
ATOM     36  C   UNL     1      -0.357  14.146  19.139  0.00  0.00    +0.000 A 
ENDBRANCH  29  34
ENDBRANCH  27  29
ENDBRANCH   1  27
TORSDOF 8
ENDMDL
MODEL 7
REMARK VINA RESULT:      -8.7      2.197      8.327
REMARK  Name = 
REMARK  10 active torsions:
REMARK  status: ('A' for Active; 'I' for Inactive)
REMARK    1  A    between atoms: C_1  and  C_2
REMARK    2  A    between atoms: C_5  and  C_6
REMARK    3  A    between atoms: C_6  and  N_7
REMARK    4  A    between atoms: N_7  and  C_8
REMARK    5  A    between atoms: C_8  and  C_9
REMARK    6  A    between atoms: C_8  and  C_27
REMARK    7  A    between atoms: C_11  and  C_12
REMARK    8  A    between atoms: C_12  and  C_13
REMARK    9  A    between atoms: C_19  and  N_20
REMARK   10  A    between atoms: C_32  and  C_33
REMARK                            x       y       z     vdW  Elec       q    Type
REMARK                         _______ _______ _______ _____ _____    ______ ____
ROOT
ATOM      1  C   UNL     1       2.364   6.891  18.065  0.00  0.00    +0.000 C 
ENDROOT
BRANCH   1   2
ATOM      2  C   UNL     1       2.069   5.689  18.984  0.00  0.00    +0.000 A 
ATOM      3  C   UNL     1       2.060   5.887  20.383  0.00  0.00    +0.000 A 
ATOM      4  C   UNL     1       1.863   4.836  21.276  0.00  0.00    +0.000 A 
ATOM      5  C   UNL     1       1.627   3.559  20.792  0.00  0.00    +0.000 A 
ATOM      6  C   UNL     1       1.564   3.342  19.413  0.00  0.00    +0.000 A 
ATOM      7  C   UNL     1       1.766   4.397  18.496  0.00  0.00    +0.000 A 
ATOM      8  C   UNL     1       1.621   4.084  17.032  0.00  0.00    +0.000 C 
ENDBRANCH   1   2
BRANCH   1   9
ATOM      9  C   UNL     1       1.603   8.126  18.520  0.00  0.00    +0.000 A 
ATOM     10  N   UNL     1       1.962   9.012  19.423  0.00  0.00    +0.000 NA
ATOM     11  C   UNL     1       1.119  10.082  19.213  0.00  0.00    +0.000 A 
ATOM     12  C   UNL     1       0.199   9.774  18.217  0.00  0.00    +0.000 A 
ATOM     13  O   UNL     1       0.508   8.504  17.778  0.00  0.00    +0.000 OA
BRANCH  12  14
ATOM     14  N   UNL     1      -0.847  10.413  17.628  0.00  0.00    +0.000 N 
ATOM     15  C   UNL     1      -1.272  11.764  18.022  0.00  0.00    +0.000 C 
ATOM     16  C   UNL     1      -2.673  11.730  18.659  0.00  0.00    +0.000 C 
ATOM     17  O   UNL     1      -3.633  11.071  17.814  0.00  0.00    +0.000 OA
ATOM     18  C   UNL     1      -3.212   9.723  17.551  0.00  0.00    +0.000 C 
ATOM     19  C   UNL     1      -1.856   9.704  16.830  0.00  0.00    +0.000 C 
ENDBRANCH  12  14
BRANCH  11  20
ATOM     20  C   UNL     1       1.318  11.292  20.050  0.00  0.00    +0.000 C 
BRANCH  20  21
ATOM     21  C   UNL     1       0.367  11.243  21.234  0.00  0.00    +0.000 A 
ATOM     22  C   UNL     1      -0.407  12.381  21.519  0.00  0.00    +0.000 A 
ATOM     23  C   UNL     1      -1.342  12.377  22.557  0.00  0.00    +0.000 A 
ATOM     24  C   UNL     1      -1.529  11.229  23.323  0.00  0.00    +0.000 A 
ATOM     25  C   UNL     1      -0.786  10.085  23.048  0.00  0.00    +0.000 A 
ATOM     26  C   UNL     1       0.145  10.088  22.005  0.00  0.00    +0.000 A 
ENDBRANCH  20  21
ENDBRANCH  11  20
ENDBRANCH   1   9
BRANCH   1  27
ATOM     27  N   UNL     1       3.804   7.259  18.026  0.00  0.00    +0.000 NA
ATOM     28  H   UNL     1       4.001   7.690  17.125  0.00  0.00    +0.000 HD
BRANCH  27  29
ATOM     29  C   UNL     1       4.751   6.177  18.256  0.00  0.00    +0.000 C 
BRANCH  29  34
ATOM     30  C   UNL     1       6.173   3.654  13.178  0.00  0.00    +0.000 C 
ATOM     31  C   UNL     1       5.806   4.314  14.475  0.00  0.00    +0.000 A 
ATOM     32  C   UNL     1       5.600   5.695  14.551  0.00  0.00    +0.000 A 
ATOM     33  C   UNL     1       5.260   6.292  15.769  0.00  0.00    +0.000 A 
ATOM     34  C   UNL     1       5.113   5.522  16.935  0.00  0.00    +0.000 A 
ATOM     35  C   UNL     1       5.330   4.141  16.854  0.00  0.00    +0.000 A 
ATOM     36  C   UNL     1       5.672   3.544  15.637  0.00  0.00    +0.000 A 
ENDBRANCH  29  34
ENDBRANCH  27  29
ENDBRANCH   1  27
TORSDOF 8
ENDMDL
MODEL 8
REMARK VINA RESULT:      -8.7      2.472      7.843
REMARK  Name = 
REMARK  10 active torsions:
REMARK  status: ('A' for Active; 'I' for Inactive)
REMARK    1  A    between atoms: C_1  and  C_2
REMARK    2  A    between atoms: C_5  and  C_6
REMARK    3  A    between atoms: C_6  and  N_7
REMARK    4  A    between atoms: N_7  and  C_8
REMARK    5  A    between atoms: C_8  and  C_9
REMARK    6  A    between atoms: C_8  and  C_27
REMARK    7  A    between atoms: C_11  and  C_12
REMARK    8  A    between atoms: C_12  and  C_13
REMARK    9  A    between atoms: C_19  and  N_20
REMARK   10  A    between atoms: C_32  and  C_33
REMARK                            x       y       z     vdW  Elec       q    Type
REMARK                         _______ _______ _______ _____ _____    ______ ____
ROOT
ATOM      1  C   UNL     1       2.978   6.409  18.693  0.00  0.00    +0.000 C 
ENDROOT
BRANCH   1   2
ATOM      2  C   UNL     1       2.327   5.227  19.437  0.00  0.00    +0.000 A 
ATOM      3  C   UNL     1       2.480   5.136  20.839  0.00  0.00    +0.000 A 
ATOM      4  C   UNL     1       1.973   4.064  21.569  0.00  0.00    +0.000 A 
ATOM      5  C   UNL     1       1.258   3.069  20.921  0.00  0.00    +0.000 A 
ATOM      6  C   UNL     1       1.032   3.163  19.546  0.00  0.00    +0.000 A 
ATOM      7  C   UNL     1       1.543   4.242  18.792  0.00  0.00    +0.000 A 
ATOM      8  C   UNL     1       1.201   4.293  17.328  0.00  0.00    +0.000 C 
ENDBRANCH   1   2
BRANCH   1   9
ATOM      9  C   UNL     1       2.286   7.719  19.036  0.00  0.00    +0.000 A 
ATOM     10  N   UNL     1       2.212   8.812  18.308  0.00  0.00    +0.000 NA
ATOM     11  C   UNL     1       1.214   9.556  18.901  0.00  0.00    +0.000 A 
ATOM     12  C   UNL     1       0.757   8.911  20.046  0.00  0.00    +0.000 A 
ATOM     13  O   UNL     1       1.460   7.729  20.136  0.00  0.00    +0.000 OA
BRANCH  12  14
ATOM     14  N   UNL     1      -0.167   9.177  21.008  0.00  0.00    +0.000 N 
ATOM     15  C   UNL     1      -0.982  10.400  21.006  0.00  0.00    +0.000 C 
ATOM     16  C   UNL     1      -0.629  11.292  22.210  0.00  0.00    +0.000 C 
ATOM     17  O   UNL     1      -0.710  10.573  23.454  0.00  0.00    +0.000 OA
ATOM     18  C   UNL     1       0.186   9.450  23.432  0.00  0.00    +0.000 C 
ATOM     19  C   UNL     1      -0.183   8.479  22.300  0.00  0.00    +0.000 C 
ENDBRANCH  12  14
BRANCH  11  20
ATOM     20  C   UNL     1       0.840  10.842  18.262  0.00  0.00    +0.000 C 
BRANCH  20  21
ATOM     21  C   UNL     1       1.728  11.948  18.808  0.00  0.00    +0.000 A 
ATOM     22  C   UNL     1       2.578  12.625  17.915  0.00  0.00    +0.000 A 
ATOM     23  C   UNL     1       3.374  13.690  18.345  0.00  0.00    +0.000 A 
ATOM     24  C   UNL     1       3.325  14.106  19.673  0.00  0.00    +0.000 A 
ATOM     25  C   UNL     1       2.479  13.462  20.570  0.00  0.00    +0.000 A 
ATOM     26  C   UNL     1       1.678  12.400  20.138  0.00  0.00    +0.000 A 
ENDBRANCH  20  21
ENDBRANCH  11  20
ENDBRANCH   1   9
BRANCH   1  27
ATOM     27  N   UNL     1       4.418   6.582  19.016  0.00  0.00    +0.000 NA
ATOM     28  H   UNL     1       4.811   7.270  18.376  0.00  0.00    +0.000 HD
BRANCH  27  29
ATOM     29  C   UNL     1       5.235   5.378  18.984  0.00  0.00    +0.000 C 
BRANCH  29  34
ATOM     30  C   UNL     1       6.507   3.965  13.455  0.00  0.00    +0.000 C 
ATOM     31  C   UNL     1       6.191   4.337  14.875  0.00  0.00    +0.000 A 
ATOM     32  C   UNL     1       7.004   5.222  15.589  0.00  0.00    +0.000 A 
ATOM     33  C   UNL     1       6.694   5.556  16.910  0.00  0.00    +0.000 A 
ATOM     34  C   UNL     1       5.562   5.018  17.545  0.00  0.00    +0.000 A 
ATOM     35  C   UNL     1       4.757   4.124  16.828  0.00  0.00    +0.000 A 
ATOM     36  C   UNL     1       5.068   3.788  15.507  0.00  0.00    +0.000 A 
ENDBRANCH  29  34
ENDBRANCH  27  29
ENDBRANCH   1  27
TORSDOF 8
ENDMDL
MODEL 9
REMARK VINA RESULT:      -8.6      2.363      8.014
REMARK  Name = 
REMARK  10 active torsions:
REMARK  status: ('A' for Active; 'I' for Inactive)
REMARK    1  A    between atoms: C_1  and  C_2
REMARK    2  A    between atoms: C_5  and  C_6
REMARK    3  A    between atoms: C_6  and  N_7
REMARK    4  A    between atoms: N_7  and  C_8
REMARK    5  A    between atoms: C_8  and  C_9
REMARK    6  A    between atoms: C_8  and  C_27
REMARK    7  A    between atoms: C_11  and  C_12
REMARK    8  A    between atoms: C_12  and  C_13
REMARK    9  A    between atoms: C_19  and  N_20
REMARK   10  A    between atoms: C_32  and  C_33
REMARK                            x       y       z     vdW  Elec       q    Type
REMARK                         _______ _______ _______ _____ _____    ______ ____
ROOT
ATOM      1  C   UNL     1       2.645   6.742  18.172  0.00  0.00    +0.000 C 
ENDROOT
BRANCH   1   2
ATOM      2  C   UNL     1       2.185   5.579  19.074  0.00  0.00    +0.000 A 
ATOM      3  C   UNL     1       2.263   5.732  20.476  0.00  0.00    +0.000 A 
ATOM      4  C   UNL     1       1.923   4.701  21.351  0.00  0.00    +0.000 A 
ATOM      5  C   UNL     1       1.453   3.499  20.846  0.00  0.00    +0.000 A 
ATOM      6  C   UNL     1       1.302   3.340  19.466  0.00  0.00    +0.000 A 
ATOM      7  C   UNL     1       1.646   4.374  18.568  0.00  0.00    +0.000 A 
ATOM      8  C   UNL     1       1.394   4.137  17.104  0.00  0.00    +0.000 C 
ENDBRANCH   1   2
BRANCH   1   9
ATOM      9  C   UNL     1       2.010   8.054  18.605  0.00  0.00    +0.000 A 
ATOM     10  N   UNL     1       1.226   8.845  17.905  0.00  0.00    +0.000 NA
ATOM     11  C   UNL     1       0.660   9.687  18.838  0.00  0.00    +0.000 A 
ATOM     12  C   UNL     1       1.191   9.427  20.098  0.00  0.00    +0.000 A 
ATOM     13  O   UNL     1       2.072   8.377  19.941  0.00  0.00    +0.000 OA
BRANCH  12  14
ATOM     14  N   UNL     1       1.031   9.941  21.346  0.00  0.00    +0.000 N 
ATOM     15  C   UNL     1       0.760   9.098  22.520  0.00  0.00    +0.000 C 
ATOM     16  C   UNL     1      -0.646   9.379  23.079  0.00  0.00    +0.000 C 
ATOM     17  O   UNL     1      -0.851  10.779  23.342  0.00  0.00    +0.000 OA
ATOM     18  C   UNL     1      -0.673  11.537  22.135  0.00  0.00    +0.000 C 
ATOM     19  C   UNL     1       0.750  11.362  21.583  0.00  0.00    +0.000 C 
ENDBRANCH  12  14
BRANCH  11  20
ATOM     20  C   UNL     1      -0.341  10.674  18.361  0.00  0.00    +0.000 C 
BRANCH  20  21
ATOM     21  C   UNL     1       0.262  12.067  18.425  0.00  0.00    +0.000 A 
ATOM     22  C   UNL     1      -0.589  13.153  18.698  0.00  0.00    +0.000 A 
ATOM     23  C   UNL     1      -0.085  14.449  18.829  0.00  0.00    +0.000 A 
ATOM     24  C   UNL     1       1.282  14.683  18.702  0.00  0.00    +0.000 A 
ATOM     25  C   UNL     1       2.145  13.621  18.449  0.00  0.00    +0.000 A 
ATOM     26  C   UNL     1       1.641  12.323  18.324  0.00  0.00    +0.000 A 
ENDBRANCH  20  21
ENDBRANCH  11  20
ENDBRANCH   1   9
BRANCH   1  27
ATOM     27  N   UNL     1       4.118   6.948  18.190  0.00  0.00    +0.000 NA
ATOM     28  H   UNL     1       4.381   7.455  17.347  0.00  0.00    +0.000 HD
BRANCH  27  29
ATOM     29  C   UNL     1       4.935   5.748  18.302  0.00  0.00    +0.000 C 
BRANCH  29  34
ATOM     30  C   UNL     1       6.098   3.623  12.982  0.00  0.00    +0.000 C 
ATOM     31  C   UNL     1       5.799   4.181  14.342  0.00  0.00    +0.000 A 
ATOM     32  C   UNL     1       5.732   5.561  14.559  0.00  0.00    +0.000 A 
ATOM     33  C   UNL     1       5.453   6.063  15.834  0.00  0.00    +0.000 A 
ATOM     34  C   UNL     1       5.229   5.197  16.918  0.00  0.00    +0.000 A 
ATOM     35  C   UNL     1       5.307   3.817  16.697  0.00  0.00    +0.000 A 
ATOM     36  C   UNL     1       5.588   3.315  15.422  0.00  0.00    +0.000 A 
ENDBRANCH  29  34
ENDBRANCH  27  29
ENDBRANCH   1  27
TORSDOF 8
ENDMDL
