MODEL 1
REMARK VINA RESULT:      -8.1      0.000      0.000
REMARK  Name = 
REMARK  5 active torsions:
REMARK  status: ('A' for Active; 'I' for Inactive)
REMARK    1  A    between atoms: C_1  and  N_2
REMARK    2  A    between atoms: N_2  and  S_3
REMARK    3  A    between atoms: S_3  and  C_6
REMARK    4  A    between atoms: C_9  and  C_10
REMARK    5  A    between atoms: C_15  and  C_16
REMARK                            x       y       z     vdW  Elec       q    Type
REMARK                         _______ _______ _______ _____ _____    ______ ____
ROOT
ATOM      1  C   UNL     1       5.892   5.475  17.499  0.00  0.00    +0.000 A 
ATOM      2  C   UNL     1       5.995   4.360  18.331  0.00  0.00    +0.000 A 
ATOM      3  C   UNL     1       4.913   4.046  19.131  0.00  0.00    +0.000 A 
ATOM      4  C   UNL     1       3.688   4.767  19.093  0.00  0.00    +0.000 A 
ATOM      5  C   UNL     1       3.617   5.982  18.302  0.00  0.00    +0.000 A 
ATOM      6  C   UNL     1       4.721   6.291  17.478  0.00  0.00    +0.000 A 
ENDROOT
BRANCH   5   7
ATOM      7  C   UNL     1       2.380   6.875  18.310  0.00  0.00    +0.000 C 
ATOM      8  O   UNL     1       1.449   6.491  17.600  0.00  0.00    +0.000 OA
ATOM      9  N   UNL     1       2.326   8.233  18.800  0.00  0.00    +0.000 N 
ATOM     10  C   UNL     1       1.523   9.014  17.774  0.00  0.00    +0.000 C 
ATOM     11  C   UNL     1       1.055  10.279  18.440  0.00  0.00    +0.000 C 
ATOM     12  C   UNL     1       0.641   9.598  19.696  0.00  0.00    +0.000 A 
ATOM     13  C   UNL     1      -0.474   9.875  20.466  0.00  0.00    +0.000 A 
ATOM     14  C   UNL     1      -0.461   9.432  21.773  0.00  0.00    +0.000 A 
ATOM     15  C   UNL     1       0.691   8.787  22.253  0.00  0.00    +0.000 A 
ATOM     16  C   UNL     1       1.704   8.318  21.367  0.00  0.00    +0.000 A 
ATOM     17  C   UNL     1       1.591   8.612  20.022  0.00  0.00    +0.000 A 
ENDBRANCH   5   7
BRANCH   4  18
ATOM     18  C   UNL     1       2.584   4.084  19.852  0.00  0.00    +0.000 A 
ATOM     19  C   UNL     1       2.301   3.986  21.202  0.00  0.00    +0.000 A 
ATOM     20  C   UNL     1       1.136   3.213  21.496  0.00  0.00    +0.000 A 
ATOM     21  C   UNL     1       0.590   2.651  20.370  0.00  0.00    +0.000 A 
ATOM     22  S   UNL     1       1.396   3.168  18.960  0.00  0.00    +0.000 S 
ENDBRANCH   4  18
BRANCH   1  23
ATOM     23  S   UNL     1       7.192   5.673  16.303  0.00  0.00    +0.000 S 
ATOM     24  O   UNL     1       7.988   4.468  16.309  0.00  0.00    +0.000 OA
ATOM     25  O   UNL     1       7.795   6.976  16.481  0.00  0.00    +0.000 OA
BRANCH  23  27
ATOM     26  C   UNL     1       5.862   4.394  14.326  0.00  0.00    +0.000 C 
ATOM     27  N   UNL     1       6.369   5.665  14.851  0.00  0.00    +0.000 NA
ATOM     28  H   UNL     1       5.755   6.467  14.785  0.00  0.00    +0.000 HD
ENDBRANCH  23  27
ENDBRANCH   1  23
TORSDOF 4
ENDMDL
MODEL 2
REMARK VINA RESULT:      -7.7      0.925      1.309
REMARK  Name = 
REMARK  5 active torsions:
REMARK  status: ('A' for Active; 'I' for Inactive)
REMARK    1  A    between atoms: C_1  and  N_2
REMARK    2  A    between atoms: N_2  and  S_3
REMARK    3  A    between atoms: S_3  and  C_6
REMARK    4  A    between atoms: C_9  and  C_10
REMARK    5  A    between atoms: C_15  and  C_16
REMARK                            x       y       z     vdW  Elec       q    Type
REMARK                         _______ _______ _______ _____ _____    ______ ____
ROOT
ATOM      1  C   UNL     1       5.803   5.405  17.356  0.00  0.00    +0.000 A 
ATOM      2  C   UNL     1       5.942   4.316  18.215  0.00  0.00    +0.000 A 
ATOM      3  C   UNL     1       4.897   4.030  19.073  0.00  0.00    +0.000 A 
ATOM      4  C   UNL     1       3.673   4.754  19.069  0.00  0.00    +0.000 A 
ATOM      5  C   UNL     1       3.569   5.944  18.246  0.00  0.00    +0.000 A 
ATOM      6  C   UNL     1       4.634   6.224  17.363  0.00  0.00    +0.000 A 
ENDROOT
BRANCH   5   7
ATOM      7  C   UNL     1       2.334   6.841  18.283  0.00  0.00    +0.000 C 
ATOM      8  O   UNL     1       1.389   6.466  17.587  0.00  0.00    +0.000 OA
ATOM      9  N   UNL     1       2.294   8.196  18.784  0.00  0.00    +0.000 N 
ATOM     10  C   UNL     1       1.475   8.987  17.778  0.00  0.00    +0.000 C 
ATOM     11  C   UNL     1       1.023  10.248  18.462  0.00  0.00    +0.000 C 
ATOM     12  C   UNL     1       0.630   9.559  19.721  0.00  0.00    +0.000 A 
ATOM     13  C   UNL     1      -0.470   9.833  20.513  0.00  0.00    +0.000 A 
ATOM     14  C   UNL     1      -0.435   9.381  21.816  0.00  0.00    +0.000 A 
ATOM     15  C   UNL     1       0.723   8.728  22.270  0.00  0.00    +0.000 A 
ATOM     16  C   UNL     1       1.719   8.263  21.363  0.00  0.00    +0.000 A 
ATOM     17  C   UNL     1       1.583   8.568  20.021  0.00  0.00    +0.000 A 
ENDBRANCH   5   7
BRANCH   4  18
ATOM     18  C   UNL     1       2.604   4.098  19.898  0.00  0.00    +0.000 A 
ATOM     19  C   UNL     1       2.385   4.039  21.262  0.00  0.00    +0.000 A 
ATOM     20  C   UNL     1       1.232   3.281  21.633  0.00  0.00    +0.000 A 
ATOM     21  C   UNL     1       0.631   2.689  20.550  0.00  0.00    +0.000 A 
ATOM     22  S   UNL     1       1.372   3.163  19.089  0.00  0.00    +0.000 S 
ENDBRANCH   4  18
BRANCH   1  23
ATOM     23  S   UNL     1       7.048   5.563  16.096  0.00  0.00    +0.000 S 
ATOM     24  O   UNL     1       6.386   5.906  14.858  0.00  0.00    +0.000 OA
ATOM     25  O   UNL     1       7.945   4.431  16.182  0.00  0.00    +0.000 OA
BRANCH  23  27
ATOM     26  C   UNL     1       7.799   7.377  17.955  0.00  0.00    +0.000 C 
ATOM     27  N   UNL     1       7.879   6.933  16.560  0.00  0.00    +0.000 NA
ATOM     28  H   UNL     1       8.790   6.964  16.120  0.00  0.00    +0.000 HD
ENDBRANCH  23  27
ENDBRANCH   1  23
TORSDOF 4
ENDMDL
MODEL 3
REMARK VINA RESULT:      -7.0      3.229      5.451
REMARK  Name = 
REMARK  5 active torsions:
REMARK  status: ('A' for Active; 'I' for Inactive)
REMARK    1  A    between atoms: C_1  and  N_2
REMARK    2  A    between atoms: N_2  and  S_3
REMARK    3  A    between atoms: S_3  and  C_6
REMARK    4  A    between atoms: C_9  and  C_10
REMARK    5  A    between atoms: C_15  and  C_16
REMARK                            x       y       z     vdW  Elec       q    Type
REMARK                         _______ _______ _______ _____ _____    ______ ____
ROOT
ATOM      1  C   UNL     1       5.871   4.021  13.396  0.00  0.00    +0.000 A 
ATOM      2  C   UNL     1       6.934   4.914  13.525  0.00  0.00    +0.000 A 
ATOM      3  C   UNL     1       7.225   5.398  14.786  0.00  0.00    +0.000 A 
ATOM      4  C   UNL     1       6.532   4.977  15.955  0.00  0.00    +0.000 A 
ATOM      5  C   UNL     1       5.366   4.126  15.806  0.00  0.00    +0.000 A 
ATOM      6  C   UNL     1       5.082   3.625  14.517  0.00  0.00    +0.000 A 
ENDROOT
BRANCH   5   7
ATOM      7  C   UNL     1       4.500   3.735  17.000  0.00  0.00    +0.000 C 
ATOM      8  O   UNL     1       4.952   2.832  17.706  0.00  0.00    +0.000 OA
ATOM      9  N   UNL     1       3.111   4.090  17.184  0.00  0.00    +0.000 N 
ATOM     10  C   UNL     1       2.422   2.830  17.681  0.00  0.00    +0.000 C 
ATOM     11  C   UNL     1       1.123   3.249  18.312  0.00  0.00    +0.000 C 
ATOM     12  C   UNL     1       1.720   4.396  19.048  0.00  0.00    +0.000 A 
ATOM     13  C   UNL     1       1.411   4.815  20.329  0.00  0.00    +0.000 A 
ATOM     14  C   UNL     1       1.758   6.107  20.668  0.00  0.00    +0.000 A 
ATOM     15  C   UNL     1       2.343   6.926  19.688  0.00  0.00    +0.000 A 
ATOM     16  C   UNL     1       2.854   6.382  18.474  0.00  0.00    +0.000 A 
ATOM     17  C   UNL     1       2.660   5.037  18.220  0.00  0.00    +0.000 A 
ENDBRANCH   5   7
BRANCH   4  18
ATOM     18  C   UNL     1       7.194   5.438  17.224  0.00  0.00    +0.000 A 
ATOM     19  C   UNL     1       7.639   4.759  18.343  0.00  0.00    +0.000 A 
ATOM     20  C   UNL     1       8.206   5.604  19.347  0.00  0.00    +0.000 A 
ATOM     21  C   UNL     1       8.106   6.933  19.022  0.00  0.00    +0.000 A 
ATOM     22  S   UNL     1       7.461   7.146  17.458  0.00  0.00    +0.000 S 
ENDBRANCH   4  18
BRANCH   1  23
ATOM     23  S   UNL     1       5.714   3.225  11.814  0.00  0.00    +0.000 S 
ATOM     24  O   UNL     1       6.815   3.659  10.987  0.00  0.00    +0.000 OA
ATOM     25  O   UNL     1       4.343   3.342  11.367  0.00  0.00    +0.000 OA
BRANCH  23  27
ATOM     26  C   UNL     1       6.331   0.697  11.076  0.00  0.00    +0.000 C 
ATOM     27  N   UNL     1       6.019   1.623  12.169  0.00  0.00    +0.000 NA
ATOM     28  H   UNL     1       6.576   1.544  13.010  0.00  0.00    +0.000 HD
ENDBRANCH  23  27
ENDBRANCH   1  23
TORSDOF 4
ENDMDL
MODEL 4
REMARK VINA RESULT:      -7.0      1.315      1.642
REMARK  Name = 
REMARK  5 active torsions:
REMARK  status: ('A' for Active; 'I' for Inactive)
REMARK    1  A    between atoms: C_1  and  N_2
REMARK    2  A    between atoms: N_2  and  S_3
REMARK    3  A    between atoms: S_3  and  C_6
REMARK    4  A    between atoms: C_9  and  C_10
REMARK    5  A    between atoms: C_15  and  C_16
REMARK                            x       y       z     vdW  Elec       q    Type
REMARK                         _______ _______ _______ _____ _____    ______ ____
ROOT
ATOM      1  C   UNL     1       5.969   5.959  18.130  0.00  0.00    +0.000 A 
ATOM      2  C   UNL     1       5.942   4.655  18.623  0.00  0.00    +0.000 A 
ATOM      3  C   UNL     1       4.725   4.139  19.027  0.00  0.00    +0.000 A 
ATOM      4  C   UNL     1       3.502   4.854  18.901  0.00  0.00    +0.000 A 
ATOM      5  C   UNL     1       3.546   6.242  18.480  0.00  0.00    +0.000 A 
ATOM      6  C   UNL     1       4.790   6.759  18.058  0.00  0.00    +0.000 A 
ENDROOT
BRANCH   5   7
ATOM      7  C   UNL     1       2.290   7.109  18.440  0.00  0.00    +0.000 C 
ATOM      8  O   UNL     1       1.386   6.695  17.712  0.00  0.00    +0.000 OA
ATOM      9  N   UNL     1       2.195   8.474  18.906  0.00  0.00    +0.000 N 
ATOM     10  C   UNL     1       1.404   9.221  17.846  0.00  0.00    +0.000 C 
ATOM     11  C   UNL     1       0.892  10.486  18.478  0.00  0.00    +0.000 C 
ATOM     12  C   UNL     1       0.459   9.817  19.735  0.00  0.00    +0.000 A 
ATOM     13  C   UNL     1      -0.682  10.083  20.470  0.00  0.00    +0.000 A 
ATOM     14  C   UNL     1      -0.694   9.662  21.784  0.00  0.00    +0.000 A 
ATOM     15  C   UNL     1       0.457   9.049  22.305  0.00  0.00    +0.000 A 
ATOM     16  C   UNL     1       1.503   8.587  21.454  0.00  0.00    +0.000 A 
ATOM     17  C   UNL     1       1.420   8.857  20.101  0.00  0.00    +0.000 A 
ENDBRANCH   5   7
BRANCH   4  18
ATOM     18  C   UNL     1       2.295   3.996  19.159  0.00  0.00    +0.000 A 
ATOM     19  C   UNL     1       1.330   4.018  20.149  0.00  0.00    +0.000 A 
ATOM     20  C   UNL     1       0.345   2.990  20.023  0.00  0.00    +0.000 A 
ATOM     21  C   UNL     1       0.621   2.134  18.986  0.00  0.00    +0.000 A 
ATOM     22  S   UNL     1       1.976   2.653  18.091  0.00  0.00    +0.000 S 
ENDBRANCH   4  18
BRANCH   1  23
ATOM     23  S   UNL     1       7.495   6.472  17.376  0.00  0.00    +0.000 S 
ATOM     24  O   UNL     1       7.530   5.938  16.035  0.00  0.00    +0.000 OA
ATOM     25  O   UNL     1       8.577   6.239  18.308  0.00  0.00    +0.000 OA
BRANCH  23  27
ATOM     26  C   UNL     1       8.144   9.028  17.976  0.00  0.00    +0.000 C 
ATOM     27  N   UNL     1       7.292   8.119  17.203  0.00  0.00    +0.000 NA
ATOM     28  H   UNL     1       7.127   8.358  16.233  0.00  0.00    +0.000 HD
ENDBRANCH  23  27
ENDBRANCH   1  23
TORSDOF 4
ENDMDL
MODEL 5
REMARK VINA RESULT:      -6.9      1.057      1.131
REMARK  Name = 
REMARK  5 active torsions:
REMARK  status: ('A' for Active; 'I' for Inactive)
REMARK    1  A    between atoms: C_1  and  N_2
REMARK    2  A    between atoms: N_2  and  S_3
REMARK    3  A    between atoms: S_3  and  C_6
REMARK    4  A    between atoms: C_9  and  C_10
REMARK    5  A    between atoms: C_15  and  C_16
REMARK                            x       y       z     vdW  Elec       q    Type
REMARK                         _______ _______ _______ _____ _____    ______ ____
ROOT
ATOM      1  C   UNL     1       5.578   4.845  16.810  0.00  0.00    +0.000 A 
ATOM      2  C   UNL     1       5.687   3.753  17.671  0.00  0.00    +0.000 A 
ATOM      3  C   UNL     1       4.691   3.566  18.611  0.00  0.00    +0.000 A 
ATOM      4  C   UNL     1       3.540   4.397  18.692  0.00  0.00    +0.000 A 
ATOM      5  C   UNL     1       3.477   5.586  17.863  0.00  0.00    +0.000 A 
ATOM      6  C   UNL     1       4.491   5.764  16.897  0.00  0.00    +0.000 A 
ENDROOT
BRANCH   5   7
ATOM      7  C   UNL     1       2.334   6.590  17.984  0.00  0.00    +0.000 C 
ATOM      8  O   UNL     1       1.349   6.354  17.282  0.00  0.00    +0.000 OA
ATOM      9  N   UNL     1       2.429   7.905  18.576  0.00  0.00    +0.000 N 
ATOM     10  C   UNL     1       1.676   8.837  17.641  0.00  0.00    +0.000 C 
ATOM     11  C   UNL     1       1.353  10.085  18.416  0.00  0.00    +0.000 C 
ATOM     12  C   UNL     1       0.913   9.350  19.633  0.00  0.00    +0.000 A 
ATOM     13  C   UNL     1      -0.147   9.672  20.463  0.00  0.00    +0.000 A 
ATOM     14  C   UNL     1      -0.137   9.130  21.732  0.00  0.00    +0.000 A 
ATOM     15  C   UNL     1       0.959   8.342  22.119  0.00  0.00    +0.000 A 
ATOM     16  C   UNL     1       1.894   7.849  21.163  0.00  0.00    +0.000 A 
ATOM     17  C   UNL     1       1.771   8.256  19.849  0.00  0.00    +0.000 A 
ENDBRANCH   5   7
BRANCH   4  18
ATOM     18  C   UNL     1       2.485   3.844  19.610  0.00  0.00    +0.000 A 
ATOM     19  C   UNL     1       1.103   3.871  19.566  0.00  0.00    +0.000 A 
ATOM     20  C   UNL     1       0.474   3.222  20.673  0.00  0.00    +0.000 A 
ATOM     21  C   UNL     1       1.385   2.784  21.601  0.00  0.00    +0.000 A 
ATOM     22  S   UNL     1       2.986   3.030  21.070  0.00  0.00    +0.000 S 
ENDBRANCH   4  18
BRANCH   1  23
ATOM     23  S   UNL     1       6.729   4.882  15.456  0.00  0.00    +0.000 S 
ATOM     24  O   UNL     1       8.047   4.621  15.985  0.00  0.00    +0.000 OA
ATOM     25  O   UNL     1       6.461   6.051  14.647  0.00  0.00    +0.000 OA
BRANCH  23  27
ATOM     26  C   UNL     1       6.039   3.662  13.143  0.00  0.00    +0.000 C 
ATOM     27  N   UNL     1       6.317   3.525  14.576  0.00  0.00    +0.000 NA
ATOM     28  H   UNL     1       6.877   2.731  14.861  0.00  0.00    +0.000 HD
ENDBRANCH  23  27
ENDBRANCH   1  23
TORSDOF 4
ENDMDL
MODEL 6
REMARK VINA RESULT:      -6.8      3.463      8.129
REMARK  Name = 
REMARK  5 active torsions:
REMARK  status: ('A' for Active; 'I' for Inactive)
REMARK    1  A    between atoms: C_1  and  N_2
REMARK    2  A    between atoms: N_2  and  S_3
REMARK    3  A    between atoms: S_3  and  C_6
REMARK    4  A    between atoms: C_9  and  C_10
REMARK    5  A    between atoms: C_15  and  C_16
REMARK                            x       y       z     vdW  Elec       q    Type
REMARK                         _______ _______ _______ _____ _____    ______ ____
ROOT
ATOM      1  C   UNL     1       3.403   3.979  18.211  0.00  0.00    +0.000 A 
ATOM      2  C   UNL     1       3.668   4.871  19.250  0.00  0.00    +0.000 A 
ATOM      3  C   UNL     1       4.838   5.604  19.192  0.00  0.00    +0.000 A 
ATOM      4  C   UNL     1       5.741   5.534  18.096  0.00  0.00    +0.000 A 
ATOM      5  C   UNL     1       5.513   4.536  17.066  0.00  0.00    +0.000 A 
ATOM      6  C   UNL     1       4.310   3.800  17.125  0.00  0.00    +0.000 A 
ENDROOT
BRANCH   5   7
ATOM      7  C   UNL     1       6.504   4.318  15.926  0.00  0.00    +0.000 C 
ATOM      8  O   UNL     1       7.610   3.893  16.264  0.00  0.00    +0.000 OA
ATOM      9  N   UNL     1       6.374   4.845  14.587  0.00  0.00    +0.000 N 
ATOM     10  C   UNL     1       7.752   5.362  14.208  0.00  0.00    +0.000 C 
ATOM     11  C   UNL     1       7.786   5.490  12.710  0.00  0.00    +0.000 C 
ATOM     12  C   UNL     1       7.132   4.175  12.470  0.00  0.00    +0.000 A 
ATOM     13  C   UNL     1       7.434   3.263  11.475  0.00  0.00    +0.000 A 
ATOM     14  C   UNL     1       6.470   2.325  11.169  0.00  0.00    +0.000 A 
ATOM     15  C   UNL     1       5.236   2.386  11.837  0.00  0.00    +0.000 A 
ATOM     16  C   UNL     1       5.063   3.181  13.007  0.00  0.00    +0.000 A 
ATOM     17  C   UNL     1       6.106   3.990  13.415  0.00  0.00    +0.000 A 
ENDBRANCH   5   7
BRANCH   4  18
ATOM     18  C   UNL     1       6.795   6.606  18.137  0.00  0.00    +0.000 A 
ATOM     19  C   UNL     1       7.966   6.735  18.860  0.00  0.00    +0.000 A 
ATOM     20  C   UNL     1       8.679   7.946  18.599  0.00  0.00    +0.000 A 
ATOM     21  C   UNL     1       7.996   8.774  17.744  0.00  0.00    +0.000 A 
ATOM     22  S   UNL     1       6.579   8.032  17.155  0.00  0.00    +0.000 S 
ENDBRANCH   4  18
BRANCH   1  23
ATOM     23  S   UNL     1       1.772   3.271  18.195  0.00  0.00    +0.000 S 
ATOM     24  O   UNL     1       1.912   1.835  18.120  0.00  0.00    +0.000 OA
ATOM     25  O   UNL     1       0.956   3.999  17.247  0.00  0.00    +0.000 OA
BRANCH  23  27
ATOM     26  C   UNL     1       1.402   2.591  20.786  0.00  0.00    +0.000 C 
ATOM     27  N   UNL     1       1.209   3.592  19.732  0.00  0.00    +0.000 NA
ATOM     28  H   UNL     1       1.381   4.558  19.981  0.00  0.00    +0.000 HD
ENDBRANCH  23  27
ENDBRANCH   1  23
TORSDOF 4
ENDMDL
MODEL 7
REMARK VINA RESULT:      -6.8      1.002      1.038
REMARK  Name = 
REMARK  5 active torsions:
REMARK  status: ('A' for Active; 'I' for Inactive)
REMARK    1  A    between atoms: C_1  and  N_2
REMARK    2  A    between atoms: N_2  and  S_3
REMARK    3  A    between atoms: S_3  and  C_6
REMARK    4  A    between atoms: C_9  and  C_10
REMARK    5  A    between atoms: C_15  and  C_16
REMARK                            x       y       z     vdW  Elec       q    Type
REMARK                         _______ _______ _______ _____ _____    ______ ____
ROOT
ATOM      1  C   UNL     1       5.946   5.834  18.339  0.00  0.00    +0.000 A 
ATOM      2  C   UNL     1       5.893   4.559  18.901  0.00  0.00    +0.000 A 
ATOM      3  C   UNL     1       4.664   4.086  19.319  0.00  0.00    +0.000 A 
ATOM      4  C   UNL     1       3.454   4.813  19.143  0.00  0.00    +0.000 A 
ATOM      5  C   UNL     1       3.525   6.176  18.650  0.00  0.00    +0.000 A 
ATOM      6  C   UNL     1       4.781   6.649  18.213  0.00  0.00    +0.000 A 
ENDROOT
BRANCH   5   7
ATOM      7  C   UNL     1       2.285   7.060  18.552  0.00  0.00    +0.000 C 
ATOM      8  O   UNL     1       1.397   6.642  17.806  0.00  0.00    +0.000 OA
ATOM      9  N   UNL     1       2.197   8.437  18.983  0.00  0.00    +0.000 N 
ATOM     10  C   UNL     1       1.450   9.170  17.883  0.00  0.00    +0.000 C 
ATOM     11  C   UNL     1       0.938  10.458  18.469  0.00  0.00    +0.000 C 
ATOM     12  C   UNL     1       0.457   9.824  19.727  0.00  0.00    +0.000 A 
ATOM     13  C   UNL     1      -0.701  10.123  20.420  0.00  0.00    +0.000 A 
ATOM     14  C   UNL     1      -0.760   9.734  21.743  0.00  0.00    +0.000 A 
ATOM     15  C   UNL     1       0.365   9.116  22.313  0.00  0.00    +0.000 A 
ATOM     16  C   UNL     1       1.429   8.619  21.505  0.00  0.00    +0.000 A 
ATOM     17  C   UNL     1       1.392   8.859  20.145  0.00  0.00    +0.000 A 
ENDBRANCH   5   7
BRANCH   4  18
ATOM     18  C   UNL     1       2.230   3.990  19.435  0.00  0.00    +0.000 A 
ATOM     19  C   UNL     1       1.465   3.828  20.576  0.00  0.00    +0.000 A 
ATOM     20  C   UNL     1       0.372   2.920  20.418  0.00  0.00    +0.000 A 
ATOM     21  C   UNL     1       0.368   2.327  19.180  0.00  0.00    +0.000 A 
ATOM     22  S   UNL     1       1.587   2.967  18.176  0.00  0.00    +0.000 S 
ENDBRANCH   4  18
BRANCH   1  23
ATOM     23  S   UNL     1       7.488   6.281  17.574  0.00  0.00    +0.000 S 
ATOM     24  O   UNL     1       8.501   6.311  18.602  0.00  0.00    +0.000 OA
ATOM     25  O   UNL     1       7.265   7.415  16.703  0.00  0.00    +0.000 OA
BRANCH  23  27
ATOM     26  C   UNL     1       7.087   4.738  15.390  0.00  0.00    +0.000 C 
ATOM     27  N   UNL     1       7.837   4.950  16.631  0.00  0.00    +0.000 NA
ATOM     28  H   UNL     1       8.836   4.790  16.596  0.00  0.00    +0.000 HD
ENDBRANCH  23  27
ENDBRANCH   1  23
TORSDOF 4
ENDMDL
MODEL 8
REMARK VINA RESULT:      -6.8      2.712      4.385
REMARK  Name = 
REMARK  5 active torsions:
REMARK  status: ('A' for Active; 'I' for Inactive)
REMARK    1  A    between atoms: C_1  and  N_2
REMARK    2  A    between atoms: N_2  and  S_3
REMARK    3  A    between atoms: S_3  and  C_6
REMARK    4  A    between atoms: C_9  and  C_10
REMARK    5  A    between atoms: C_15  and  C_16
REMARK                            x       y       z     vdW  Elec       q    Type
REMARK                         _______ _______ _______ _____ _____    ______ ____
ROOT
ATOM      1  C   UNL     1       3.017   5.382  18.514  0.00  0.00    +0.000 A 
ATOM      2  C   UNL     1       2.867   5.069  19.865  0.00  0.00    +0.000 A 
ATOM      3  C   UNL     1       2.295   6.019  20.690  0.00  0.00    +0.000 A 
ATOM      4  C   UNL     1       1.801   7.263  20.211  0.00  0.00    +0.000 A 
ATOM      5  C   UNL     1       2.047   7.626  18.827  0.00  0.00    +0.000 A 
ATOM      6  C   UNL     1       2.619   6.646  17.987  0.00  0.00    +0.000 A 
ENDROOT
BRANCH   5   7
ATOM      7  C   UNL     1       1.657   8.993  18.273  0.00  0.00    +0.000 C 
ATOM      8  O   UNL     1       2.299   9.366  17.290  0.00  0.00    +0.000 OA
ATOM      9  N   UNL     1       0.860   9.983  18.961  0.00  0.00    +0.000 N 
ATOM     10  C   UNL     1       1.552  11.314  18.721  0.00  0.00    +0.000 C 
ATOM     11  C   UNL     1       0.550  12.399  19.009  0.00  0.00    +0.000 C 
ATOM     12  C   UNL     1      -0.557  11.724  18.279  0.00  0.00    +0.000 A 
ATOM     13  C   UNL     1      -1.519  12.323  17.486  0.00  0.00    +0.000 A 
ATOM     14  C   UNL     1      -2.672  11.603  17.244  0.00  0.00    +0.000 A 
ATOM     15  C   UNL     1      -2.821  10.347  17.856  0.00  0.00    +0.000 A 
ATOM     16  C   UNL     1      -1.717   9.679  18.460  0.00  0.00    +0.000 A 
ATOM     17  C   UNL     1      -0.507  10.342  18.538  0.00  0.00    +0.000 A 
ENDBRANCH   5   7
BRANCH   4  18
ATOM     18  C   UNL     1       0.996   8.008  21.240  0.00  0.00    +0.000 A 
ATOM     19  C   UNL     1      -0.359   8.053  21.511  0.00  0.00    +0.000 A 
ATOM     20  C   UNL     1      -0.706   8.921  22.592  0.00  0.00    +0.000 A 
ATOM     21  C   UNL     1       0.381   9.603  23.078  0.00  0.00    +0.000 A 
ATOM     22  S   UNL     1       1.824   9.092  22.329  0.00  0.00    +0.000 S 
ENDBRANCH   4  18
BRANCH   1  23
ATOM     23  S   UNL     1       3.499   4.036  17.456  0.00  0.00    +0.000 S 
ATOM     24  O   UNL     1       4.523   4.521  16.560  0.00  0.00    +0.000 OA
ATOM     25  O   UNL     1       2.307   3.385  16.957  0.00  0.00    +0.000 OA
BRANCH  23  27
ATOM     26  C   UNL     1       3.702   1.662  18.735  0.00  0.00    +0.000 C 
ATOM     27  N   UNL     1       4.271   2.994  18.505  0.00  0.00    +0.000 NA
ATOM     28  H   UNL     1       5.275   3.049  18.389  0.00  0.00    +0.000 HD
ENDBRANCH  23  27
ENDBRANCH   1  23
TORSDOF 4
ENDMDL
MODEL 9
REMARK VINA RESULT:      -6.7      3.227      5.421
REMARK  Name = 
REMARK  5 active torsions:
REMARK  status: ('A' for Active; 'I' for Inactive)
REMARK    1  A    between atoms: C_1  and  N_2
REMARK    2  A    between atoms: N_2  and  S_3
REMARK    3  A    between atoms: S_3  and  C_6
REMARK    4  A    between atoms: C_9  and  C_10
REMARK    5  A    between atoms: C_15  and  C_16
REMARK                            x       y       z     vdW  Elec       q    Type
REMARK                         _______ _______ _______ _____ _____    ______ ____
ROOT
ATOM      1  C   UNL     1       5.857   3.898  13.391  0.00  0.00    +0.000 A 
ATOM      2  C   UNL     1       6.913   4.804  13.493  0.00  0.00    +0.000 A 
ATOM      3  C   UNL     1       7.200   5.327  14.740  0.00  0.00    +0.000 A 
ATOM      4  C   UNL     1       6.512   4.934  15.920  0.00  0.00    +0.000 A 
ATOM      5  C   UNL     1       5.353   4.068  15.798  0.00  0.00    +0.000 A 
ATOM      6  C   UNL     1       5.073   3.528  14.524  0.00  0.00    +0.000 A 
ENDROOT
BRANCH   5   7
ATOM      7  C   UNL     1       4.491   3.704  17.004  0.00  0.00    +0.000 C 
ATOM      8  O   UNL     1       4.946   2.816  17.727  0.00  0.00    +0.000 OA
ATOM      9  N   UNL     1       3.104   4.064  17.185  0.00  0.00    +0.000 N 
ATOM     10  C   UNL     1       2.416   2.817  17.712  0.00  0.00    +0.000 C 
ATOM     11  C   UNL     1       1.119   3.250  18.338  0.00  0.00    +0.000 C 
ATOM     12  C   UNL     1       1.720   4.413  19.047  0.00  0.00    +0.000 A 
ATOM     13  C   UNL     1       1.416   4.861  20.320  0.00  0.00    +0.000 A 
ATOM     14  C   UNL     1       1.765   6.160  20.629  0.00  0.00    +0.000 A 
ATOM     15  C   UNL     1       2.348   6.955  19.629  0.00  0.00    +0.000 A 
ATOM     16  C   UNL     1       2.853   6.384  18.425  0.00  0.00    +0.000 A 
ATOM     17  C   UNL     1       2.657   5.035  18.202  0.00  0.00    +0.000 A 
ENDBRANCH   5   7
BRANCH   4  18
ATOM     18  C   UNL     1       7.171   5.437  17.175  0.00  0.00    +0.000 A 
ATOM     19  C   UNL     1       7.608   4.797  18.320  0.00  0.00    +0.000 A 
ATOM     20  C   UNL     1       8.175   5.674  19.295  0.00  0.00    +0.000 A 
ATOM     21  C   UNL     1       8.082   6.991  18.922  0.00  0.00    +0.000 A 
ATOM     22  S   UNL     1       7.445   7.151  17.349  0.00  0.00    +0.000 S 
ENDBRANCH   4  18
BRANCH   1  23
ATOM     23  S   UNL     1       5.706   3.055  11.833  0.00  0.00    +0.000 S 
ATOM     24  O   UNL     1       5.994   1.657  12.054  0.00  0.00    +0.000 OA
ATOM     25  O   UNL     1       6.404   3.817  10.821  0.00  0.00    +0.000 OA
BRANCH  23  27
ATOM     26  C   UNL     1       3.604   3.874  10.343  0.00  0.00    +0.000 C 
ATOM     27  N   UNL     1       4.069   3.136  11.521  0.00  0.00    +0.000 NA
ATOM     28  H   UNL     1       3.625   2.246  11.709  0.00  0.00    +0.000 HD
ENDBRANCH  23  27
ENDBRANCH   1  23
TORSDOF 4
ENDMDL
