MODEL 1
REMARK VINA RESULT:      -8.1      0.000      0.000
REMARK  Name = 
REMARK  8 active torsions:
REMARK  status: ('A' for Active; 'I' for Inactive)
REMARK    1  A    between atoms: C_1  and  C_2
REMARK    2  A    between atoms: C_2  and  C_3
REMARK    3  A    between atoms: N_5  and  C_6
REMARK    4  A    between atoms: N_5  and  C_7
REMARK    5  A    between atoms: C_12  and  C_13
REMARK    6  A    between atoms: C_13  and  O_14
REMARK    7  A    between atoms: O_14  and  C_15
REMARK    8  A    between atoms: C_22  and  C_23
REMARK                            x       y       z     vdW  Elec       q    Type
REMARK                         _______ _______ _______ _____ _____    ______ ____
ROOT
ATOM      1  C   UNL     1       5.098   4.338  17.293  0.00  0.00    +0.000 A 
ATOM      2  C   UNL     1       4.788   3.020  17.640  0.00  0.00    +0.000 A 
ATOM      3  C   UNL     1       3.538   2.726  18.174  0.00  0.00    +0.000 A 
ATOM      4  C   UNL     1       2.587   3.740  18.359  0.00  0.00    +0.000 A 
ATOM      5 CL   UNL     1       1.062   3.259  19.021  0.00  0.00    +0.000 Cl
ATOM      6  C   UNL     1       2.860   5.076  18.001  0.00  0.00    +0.000 A 
ATOM      7  C   UNL     1       4.137   5.362  17.468  0.00  0.00    +0.000 A 
ATOM      8 CL   UNL     1       4.558   6.990  17.018  0.00  0.00    +0.000 Cl
ENDROOT
BRANCH   1  11
ATOM      9  C   UNL     1       6.700   4.663  15.438  0.00  0.00    +0.000 C 
ATOM     10  O   UNL     1       7.844   4.867  15.024  0.00  0.00    +0.000 OA
ATOM     11  N   UNL     1       6.401   4.608  16.801  0.00  0.00    +0.000 N 
ATOM     12  C   UNL     1       7.457   4.791  17.788  0.00  0.00    +0.000 C 
BRANCH   9  14
ATOM     13  C   UNL     1       5.887   3.636  13.265  0.00  0.00    +0.000 C 
ATOM     14  C   UNL     1       5.530   4.481  14.476  0.00  0.00    +0.000 C 
ENDBRANCH   9  14
ENDBRANCH   1  11
BRANCH   6  15
ATOM     15  C   UNL     1       1.817   6.163  18.182  0.00  0.00    +0.000 C 
BRANCH  15  16
ATOM     16  O   UNL     1       2.198   7.065  19.220  0.00  0.00    +0.000 OA
BRANCH  16  17
ATOM     17  C   UNL     1       1.898   8.404  19.037  0.00  0.00    +0.000 A 
ATOM     18  C   UNL     1       2.148   9.154  17.934  0.00  0.00    +0.000 A 
ATOM     19  C   UNL     1       1.804  10.566  17.862  0.00  0.00    +0.000 A 
ATOM     20  C   UNL     1       1.220  11.151  18.921  0.00  0.00    +0.000 A 
ATOM     21  N   UNL     1       0.952  10.388  20.058  0.00  0.00    +0.000 N 
ATOM     22  C   UNL     1       0.366  10.753  21.248  0.00  0.00    +0.000 A 
ATOM     23 BR   UNL     1      -0.257  12.451  21.713  0.00  0.00    +0.000 Br
ATOM     24  C   UNL     1       0.325   9.616  22.023  0.00  0.00    +0.000 A 
ATOM     25  C   UNL     1      -0.206   9.399  23.388  0.00  0.00    +0.000 C 
ATOM     26  N   UNL     1       0.888   8.556  21.339  0.00  0.00    +0.000 NA
ATOM     27  C   UNL     1       1.261   9.031  20.166  0.00  0.00    +0.000 A 
ENDBRANCH  16  17
ENDBRANCH  15  16
ENDBRANCH   6  15
TORSDOF 5
ENDMDL
MODEL 2
REMARK VINA RESULT:      -7.9      1.377      2.377
REMARK  Name = 
REMARK  8 active torsions:
REMARK  status: ('A' for Active; 'I' for Inactive)
REMARK    1  A    between atoms: C_1  and  C_2
REMARK    2  A    between atoms: C_2  and  C_3
REMARK    3  A    between atoms: N_5  and  C_6
REMARK    4  A    between atoms: N_5  and  C_7
REMARK    5  A    between atoms: C_12  and  C_13
REMARK    6  A    between atoms: C_13  and  O_14
REMARK    7  A    between atoms: O_14  and  C_15
REMARK    8  A    between atoms: C_22  and  C_23
REMARK                            x       y       z     vdW  Elec       q    Type
REMARK                         _______ _______ _______ _____ _____    ______ ____
ROOT
ATOM      1  C   UNL     1       5.153   4.914  18.375  0.00  0.00    +0.000 A 
ATOM      2  C   UNL     1       4.840   3.827  19.196  0.00  0.00    +0.000 A 
ATOM      3  C   UNL     1       3.591   3.764  19.805  0.00  0.00    +0.000 A 
ATOM      4  C   UNL     1       2.646   4.779  19.596  0.00  0.00    +0.000 A 
ATOM      5 CL   UNL     1       1.122   4.594  20.395  0.00  0.00    +0.000 Cl
ATOM      6  C   UNL     1       2.923   5.879  18.757  0.00  0.00    +0.000 A 
ATOM      7  C   UNL     1       4.198   5.934  18.153  0.00  0.00    +0.000 A 
ATOM      8 CL   UNL     1       4.626   7.268  17.119  0.00  0.00    +0.000 Cl
ENDROOT
BRANCH   1  11
ATOM      9  C   UNL     1       6.749   4.496  16.532  0.00  0.00    +0.000 C 
ATOM     10  O   UNL     1       7.892   4.522  16.069  0.00  0.00    +0.000 OA
ATOM     11  N   UNL     1       6.455   4.969  17.813  0.00  0.00    +0.000 N 
ATOM     12  C   UNL     1       7.516   5.512  18.652  0.00  0.00    +0.000 C 
BRANCH   9  14
ATOM     13  C   UNL     1       5.807   4.056  14.218  0.00  0.00    +0.000 C 
ATOM     14  C   UNL     1       5.574   3.965  15.717  0.00  0.00    +0.000 C 
ENDBRANCH   9  14
ENDBRANCH   1  11
BRANCH   6  15
ATOM     15  C   UNL     1       1.886   6.960  18.518  0.00  0.00    +0.000 C 
BRANCH  15  16
ATOM     16  O   UNL     1       2.260   8.176  19.167  0.00  0.00    +0.000 OA
BRANCH  16  17
ATOM     17  C   UNL     1       1.396   8.671  20.129  0.00  0.00    +0.000 A 
ATOM     18  C   UNL     1       0.926   8.016  21.220  0.00  0.00    +0.000 A 
ATOM     19  C   UNL     1       0.000   8.634  22.158  0.00  0.00    +0.000 A 
ATOM     20  C   UNL     1      -0.407   9.895  21.937  0.00  0.00    +0.000 A 
ATOM     21  N   UNL     1       0.075  10.581  20.822  0.00  0.00    +0.000 N 
ATOM     22  C   UNL     1      -0.186  11.861  20.392  0.00  0.00    +0.000 A 
ATOM     23 BR   UNL     1      -1.319  13.104  21.204  0.00  0.00    +0.000 Br
ATOM     24  C   UNL     1       0.559  12.044  19.249  0.00  0.00    +0.000 A 
ATOM     25  C   UNL     1       0.691  13.225  18.365  0.00  0.00    +0.000 C 
ATOM     26  N   UNL     1       1.267  10.896  18.956  0.00  0.00    +0.000 NA
ATOM     27  C   UNL     1       0.968  10.026  19.902  0.00  0.00    +0.000 A 
ENDBRANCH  16  17
ENDBRANCH  15  16
ENDBRANCH   6  15
TORSDOF 5
ENDMDL
MODEL 3
REMARK VINA RESULT:      -7.9      0.893      1.776
REMARK  Name = 
REMARK  8 active torsions:
REMARK  status: ('A' for Active; 'I' for Inactive)
REMARK    1  A    between atoms: C_1  and  C_2
REMARK    2  A    between atoms: C_2  and  C_3
REMARK    3  A    between atoms: N_5  and  C_6
REMARK    4  A    between atoms: N_5  and  C_7
REMARK    5  A    between atoms: C_12  and  C_13
REMARK    6  A    between atoms: C_13  and  O_14
REMARK    7  A    between atoms: O_14  and  C_15
REMARK    8  A    between atoms: C_22  and  C_23
REMARK                            x       y       z     vdW  Elec       q    Type
REMARK                         _______ _______ _______ _____ _____    ______ ____
ROOT
ATOM      1  C   UNL     1       4.533   4.526  17.201  0.00  0.00    +0.000 A 
ATOM      2  C   UNL     1       3.956   3.288  17.496  0.00  0.00    +0.000 A 
ATOM      3  C   UNL     1       2.981   3.203  18.485  0.00  0.00    +0.000 A 
ATOM      4  C   UNL     1       2.571   4.349  19.180  0.00  0.00    +0.000 A 
ATOM      5 CL   UNL     1       1.346   4.128  20.382  0.00  0.00    +0.000 Cl
ATOM      6  C   UNL     1       3.118   5.617  18.893  0.00  0.00    +0.000 A 
ATOM      7  C   UNL     1       4.113   5.688  17.893  0.00  0.00    +0.000 A 
ATOM      8 CL   UNL     1       4.852   7.212  17.492  0.00  0.00    +0.000 Cl
ENDROOT
BRANCH   1  11
ATOM      9  C   UNL     1       6.918   4.615  16.550  0.00  0.00    +0.000 C 
ATOM     10  O   UNL     1       7.798   4.680  15.690  0.00  0.00    +0.000 OA
ATOM     11  N   UNL     1       5.561   4.565  16.223  0.00  0.00    +0.000 N 
ATOM     12  C   UNL     1       5.145   4.596  14.827  0.00  0.00    +0.000 C 
BRANCH   9  14
ATOM     13  C   UNL     1       7.794   5.875  18.570  0.00  0.00    +0.000 C 
ATOM     14  C   UNL     1       7.262   4.557  18.035  0.00  0.00    +0.000 C 
ENDBRANCH   9  14
ENDBRANCH   1  11
BRANCH   6  15
ATOM     15  C   UNL     1       2.651   6.856  19.633  0.00  0.00    +0.000 C 
BRANCH  15  16
ATOM     16  O   UNL     1       1.552   7.468  18.958  0.00  0.00    +0.000 OA
BRANCH  16  17
ATOM     17  C   UNL     1       1.555   8.849  18.868  0.00  0.00    +0.000 A 
ATOM     18  C   UNL     1       2.073   9.602  17.866  0.00  0.00    +0.000 A 
ATOM     19  C   UNL     1       2.037  11.057  17.889  0.00  0.00    +0.000 A 
ATOM     20  C   UNL     1       1.473  11.680  18.937  0.00  0.00    +0.000 A 
ATOM     21  N   UNL     1       0.931  10.916  19.971  0.00  0.00    +0.000 N 
ATOM     22  C   UNL     1       0.306  11.315  21.129  0.00  0.00    +0.000 A 
ATOM     23 BR   UNL     1      -0.003  13.071  21.685  0.00  0.00    +0.000 Br
ATOM     24  C   UNL     1      -0.053  10.162  21.792  0.00  0.00    +0.000 A 
ATOM     25  C   UNL     1      -0.764   9.972  23.077  0.00  0.00    +0.000 C 
ATOM     26  N   UNL     1       0.352   9.056  21.071  0.00  0.00    +0.000 NA
ATOM     27  C   UNL     1       0.941   9.519  19.985  0.00  0.00    +0.000 A 
ENDBRANCH  16  17
ENDBRANCH  15  16
ENDBRANCH   6  15
TORSDOF 5
ENDMDL
MODEL 4
REMARK VINA RESULT:      -7.8      1.157      1.192
REMARK  Name = 
REMARK  8 active torsions:
REMARK  status: ('A' for Active; 'I' for Inactive)
REMARK    1  A    between atoms: C_1  and  C_2
REMARK    2  A    between atoms: C_2  and  C_3
REMARK    3  A    between atoms: N_5  and  C_6
REMARK    4  A    between atoms: N_5  and  C_7
REMARK    5  A    between atoms: C_12  and  C_13
REMARK    6  A    between atoms: C_13  and  O_14
REMARK    7  A    between atoms: O_14  and  C_15
REMARK    8  A    between atoms: C_22  and  C_23
REMARK                            x       y       z     vdW  Elec       q    Type
REMARK                         _______ _______ _______ _____ _____    ______ ____
ROOT
ATOM      1  C   UNL     1       5.154   4.823  18.278  0.00  0.00    +0.000 A 
ATOM      2  C   UNL     1       4.855   3.716  19.077  0.00  0.00    +0.000 A 
ATOM      3  C   UNL     1       3.609   3.627  19.689  0.00  0.00    +0.000 A 
ATOM      4  C   UNL     1       2.653   4.636  19.504  0.00  0.00    +0.000 A 
ATOM      5 CL   UNL     1       1.134   4.418  20.304  0.00  0.00    +0.000 Cl
ATOM      6  C   UNL     1       2.914   5.756  18.687  0.00  0.00    +0.000 A 
ATOM      7  C   UNL     1       4.187   5.837  18.079  0.00  0.00    +0.000 A 
ATOM      8 CL   UNL     1       4.596   7.197  17.073  0.00  0.00    +0.000 Cl
ENDROOT
BRANCH   1  11
ATOM      9  C   UNL     1       6.732   4.534  16.395  0.00  0.00    +0.000 C 
ATOM     10  O   UNL     1       7.872   4.580  15.927  0.00  0.00    +0.000 OA
ATOM     11  N   UNL     1       6.453   4.904  17.713  0.00  0.00    +0.000 N 
ATOM     12  C   UNL     1       7.528   5.359  18.586  0.00  0.00    +0.000 C 
BRANCH   9  14
ATOM     13  C   UNL     1       5.918   3.824  14.099  0.00  0.00    +0.000 C 
ATOM     14  C   UNL     1       5.543   4.091  15.547  0.00  0.00    +0.000 C 
ENDBRANCH   9  14
ENDBRANCH   1  11
BRANCH   6  15
ATOM     15  C   UNL     1       1.866   6.830  18.473  0.00  0.00    +0.000 C 
BRANCH  15  16
ATOM     16  O   UNL     1       2.216   8.029  19.166  0.00  0.00    +0.000 OA
BRANCH  16  17
ATOM     17  C   UNL     1       1.289   9.056  19.162  0.00  0.00    +0.000 A 
ATOM     18  C   UNL     1       0.835   9.744  18.085  0.00  0.00    +0.000 A 
ATOM     19  C   UNL     1      -0.132  10.825  18.204  0.00  0.00    +0.000 A 
ATOM     20  C   UNL     1      -0.592  11.157  19.422  0.00  0.00    +0.000 A 
ATOM     21  N   UNL     1      -0.138  10.452  20.537  0.00  0.00    +0.000 N 
ATOM     22  C   UNL     1      -0.461  10.600  21.866  0.00  0.00    +0.000 A 
ATOM     23 BR   UNL     1      -1.642  11.847  22.598  0.00  0.00    +0.000 Br
ATOM     24  C   UNL     1       0.255   9.640  22.546  0.00  0.00    +0.000 A 
ATOM     25  C   UNL     1       0.299   9.314  23.989  0.00  0.00    +0.000 C 
ATOM     26  N   UNL     1       1.026   8.910  21.663  0.00  0.00    +0.000 NA
ATOM     27  C   UNL     1       0.784   9.406  20.464  0.00  0.00    +0.000 A 
ENDBRANCH  16  17
ENDBRANCH  15  16
ENDBRANCH   6  15
TORSDOF 5
ENDMDL
MODEL 5
REMARK VINA RESULT:      -7.6      1.220      2.016
REMARK  Name = 
REMARK  8 active torsions:
REMARK  status: ('A' for Active; 'I' for Inactive)
REMARK    1  A    between atoms: C_1  and  C_2
REMARK    2  A    between atoms: C_2  and  C_3
REMARK    3  A    between atoms: N_5  and  C_6
REMARK    4  A    between atoms: N_5  and  C_7
REMARK    5  A    between atoms: C_12  and  C_13
REMARK    6  A    between atoms: C_13  and  O_14
REMARK    7  A    between atoms: O_14  and  C_15
REMARK    8  A    between atoms: C_22  and  C_23
REMARK                            x       y       z     vdW  Elec       q    Type
REMARK                         _______ _______ _______ _____ _____    ______ ____
ROOT
ATOM      1  C   UNL     1       4.746   4.003  18.168  0.00  0.00    +0.000 A 
ATOM      2  C   UNL     1       4.783   2.903  19.028  0.00  0.00    +0.000 A 
ATOM      3  C   UNL     1       3.829   2.785  20.033  0.00  0.00    +0.000 A 
ATOM      4  C   UNL     1       2.830   3.757  20.183  0.00  0.00    +0.000 A 
ATOM      5 CL   UNL     1       1.690   3.506  21.461  0.00  0.00    +0.000 Cl
ATOM      6  C   UNL     1       2.752   4.869  19.319  0.00  0.00    +0.000 A 
ATOM      7  C   UNL     1       3.733   4.981  18.308  0.00  0.00    +0.000 A 
ATOM      8 CL   UNL     1       3.718   6.333  17.212  0.00  0.00    +0.000 Cl
ENDROOT
BRANCH   1  11
ATOM      9  C   UNL     1       6.946   4.833  17.400  0.00  0.00    +0.000 C 
ATOM     10  O   UNL     1       7.810   4.948  16.528  0.00  0.00    +0.000 OA
ATOM     11  N   UNL     1       5.767   4.115  17.188  0.00  0.00    +0.000 N 
ATOM     12  C   UNL     1       5.523   3.476  15.901  0.00  0.00    +0.000 C 
BRANCH   9  14
ATOM     13  C   UNL     1       8.046   6.661  18.773  0.00  0.00    +0.000 C 
ATOM     14  C   UNL     1       7.128   5.451  18.783  0.00  0.00    +0.000 C 
ENDBRANCH   9  14
ENDBRANCH   1  11
BRANCH   6  15
ATOM     15  C   UNL     1       1.654   5.904  19.473  0.00  0.00    +0.000 C 
BRANCH  15  16
ATOM     16  O   UNL     1       2.145   7.072  20.131  0.00  0.00    +0.000 OA
BRANCH  16  17
ATOM     17  C   UNL     1       1.814   8.297  19.577  0.00  0.00    +0.000 A 
ATOM     18  C   UNL     1       2.169   8.762  18.353  0.00  0.00    +0.000 A 
ATOM     19  C   UNL     1       1.778  10.083  17.882  0.00  0.00    +0.000 A 
ATOM     20  C   UNL     1       1.042  10.871  18.683  0.00  0.00    +0.000 A 
ATOM     21  N   UNL     1       0.666  10.400  19.941  0.00  0.00    +0.000 N 
ATOM     22  C   UNL     1      -0.078  11.008  20.925  0.00  0.00    +0.000 A 
ATOM     23 BR   UNL     1      -0.825  12.719  20.865  0.00  0.00    +0.000 Br
ATOM     24  C   UNL     1      -0.169  10.102  21.957  0.00  0.00    +0.000 A 
ATOM     25  C   UNL     1      -0.857  10.197  23.265  0.00  0.00    +0.000 C 
ATOM     26  N   UNL     1       0.519   8.948  21.636  0.00  0.00    +0.000 NA
ATOM     27  C   UNL     1       1.016   9.139  20.429  0.00  0.00    +0.000 A 
ENDBRANCH  16  17
ENDBRANCH  15  16
ENDBRANCH   6  15
TORSDOF 5
ENDMDL
MODEL 6
REMARK VINA RESULT:      -7.6      2.426      3.585
REMARK  Name = 
REMARK  8 active torsions:
REMARK  status: ('A' for Active; 'I' for Inactive)
REMARK    1  A    between atoms: C_1  and  C_2
REMARK    2  A    between atoms: C_2  and  C_3
REMARK    3  A    between atoms: N_5  and  C_6
REMARK    4  A    between atoms: N_5  and  C_7
REMARK    5  A    between atoms: C_12  and  C_13
REMARK    6  A    between atoms: C_13  and  O_14
REMARK    7  A    between atoms: O_14  and  C_15
REMARK    8  A    between atoms: C_22  and  C_23
REMARK                            x       y       z     vdW  Elec       q    Type
REMARK                         _______ _______ _______ _____ _____    ______ ____
ROOT
ATOM      1  C   UNL     1       4.738   5.350  17.972  0.00  0.00    +0.000 A 
ATOM      2  C   UNL     1       4.410   4.862  19.239  0.00  0.00    +0.000 A 
ATOM      3  C   UNL     1       3.408   5.482  19.977  0.00  0.00    +0.000 A 
ATOM      4  C   UNL     1       2.721   6.588  19.454  0.00  0.00    +0.000 A 
ATOM      5 CL   UNL     1       1.487   7.276  20.454  0.00  0.00    +0.000 Cl
ATOM      6  C   UNL     1       3.013   7.093  18.170  0.00  0.00    +0.000 A 
ATOM      7  C   UNL     1       4.039   6.459  17.436  0.00  0.00    +0.000 A 
ATOM      8 CL   UNL     1       4.473   7.033  15.852  0.00  0.00    +0.000 Cl
ENDROOT
BRANCH   1  11
ATOM      9  C   UNL     1       7.137   5.096  17.430  0.00  0.00    +0.000 C 
ATOM     10  O   UNL     1       8.048   4.563  16.791  0.00  0.00    +0.000 OA
ATOM     11  N   UNL     1       5.801   4.723  17.271  0.00  0.00    +0.000 N 
ATOM     12  C   UNL     1       5.442   3.677  16.322  0.00  0.00    +0.000 C 
BRANCH   9  14
ATOM     13  C   UNL     1       7.763   7.522  17.825  0.00  0.00    +0.000 C 
ATOM     14  C   UNL     1       7.423   6.184  18.460  0.00  0.00    +0.000 C 
ENDBRANCH   9  14
ENDBRANCH   1  11
BRANCH   6  15
ATOM     15  C   UNL     1       2.249   8.275  17.603  0.00  0.00    +0.000 C 
BRANCH  15  16
ATOM     16  O   UNL     1       2.481   9.450  18.380  0.00  0.00    +0.000 OA
BRANCH  16  17
ATOM     17  C   UNL     1       1.388  10.257  18.648  0.00  0.00    +0.000 A 
ATOM     18  C   UNL     1       0.134   9.853  18.972  0.00  0.00    +0.000 A 
ATOM     19  C   UNL     1      -0.947  10.797  19.214  0.00  0.00    +0.000 A 
ATOM     20  C   UNL     1      -0.699  12.113  19.114  0.00  0.00    +0.000 A 
ATOM     21  N   UNL     1       0.589  12.541  18.788  0.00  0.00    +0.000 N 
ATOM     22  C   UNL     1       1.083  13.814  18.634  0.00  0.00    +0.000 A 
ATOM     23 BR   UNL     1       0.132  15.412  18.811  0.00  0.00    +0.000 Br
ATOM     24  C   UNL     1       2.419  13.676  18.330  0.00  0.00    +0.000 A 
ATOM     25  C   UNL     1       3.459  14.699  18.073  0.00  0.00    +0.000 C 
ATOM     26  N   UNL     1       2.757  12.339  18.280  0.00  0.00    +0.000 NA
ATOM     27  C   UNL     1       1.654  11.668  18.553  0.00  0.00    +0.000 A 
ENDBRANCH  16  17
ENDBRANCH  15  16
ENDBRANCH   6  15
TORSDOF 5
ENDMDL
MODEL 7
REMARK VINA RESULT:      -7.5      1.306      2.853
REMARK  Name = 
REMARK  8 active torsions:
REMARK  status: ('A' for Active; 'I' for Inactive)
REMARK    1  A    between atoms: C_1  and  C_2
REMARK    2  A    between atoms: C_2  and  C_3
REMARK    3  A    between atoms: N_5  and  C_6
REMARK    4  A    between atoms: N_5  and  C_7
REMARK    5  A    between atoms: C_12  and  C_13
REMARK    6  A    between atoms: C_13  and  O_14
REMARK    7  A    between atoms: O_14  and  C_15
REMARK    8  A    between atoms: C_22  and  C_23
REMARK                            x       y       z     vdW  Elec       q    Type
REMARK                         _______ _______ _______ _____ _____    ______ ____
ROOT
ATOM      1  C   UNL     1       4.562   4.402  17.579  0.00  0.00    +0.000 A 
ATOM      2  C   UNL     1       4.176   3.303  18.352  0.00  0.00    +0.000 A 
ATOM      3  C   UNL     1       3.085   3.414  19.207  0.00  0.00    +0.000 A 
ATOM      4  C   UNL     1       2.368   4.616  19.293  0.00  0.00    +0.000 A 
ATOM      5 CL   UNL     1       1.023   4.639  20.382  0.00  0.00    +0.000 Cl
ATOM      6  C   UNL     1       2.718   5.738  18.512  0.00  0.00    +0.000 A 
ATOM      7  C   UNL     1       3.834   5.614  17.655  0.00  0.00    +0.000 A 
ATOM      8 CL   UNL     1       4.342   6.957  16.672  0.00  0.00    +0.000 Cl
ENDROOT
BRANCH   1  11
ATOM      9  C   UNL     1       6.991   4.633  17.178  0.00  0.00    +0.000 C 
ATOM     10  O   UNL     1       7.976   4.540  16.442  0.00  0.00    +0.000 OA
ATOM     11  N   UNL     1       5.711   4.267  16.758  0.00  0.00    +0.000 N 
ATOM     12  C   UNL     1       5.503   3.760  15.408  0.00  0.00    +0.000 C 
BRANCH   9  14
ATOM     13  C   UNL     1       7.835   6.470  18.711  0.00  0.00    +0.000 C 
ATOM     14  C   UNL     1       7.119   5.134  18.614  0.00  0.00    +0.000 C 
ENDBRANCH   9  14
ENDBRANCH   1  11
BRANCH   6  15
ATOM     15  C   UNL     1       1.923   7.026  18.594  0.00  0.00    +0.000 C 
BRANCH  15  16
ATOM     16  O   UNL     1       2.370   7.832  19.684  0.00  0.00    +0.000 OA
BRANCH  16  17
ATOM     17  C   UNL     1       1.407   8.529  20.393  0.00  0.00    +0.000 A 
ATOM     18  C   UNL     1       0.653   8.065  21.421  0.00  0.00    +0.000 A 
ATOM     19  C   UNL     1      -0.349   8.888  22.081  0.00  0.00    +0.000 A 
ATOM     20  C   UNL     1      -0.538  10.150  21.661  0.00  0.00    +0.000 A 
ATOM     21  N   UNL     1       0.236  10.641  20.610  0.00  0.00    +0.000 N 
ATOM     22  C   UNL     1       0.232  11.880  20.014  0.00  0.00    +0.000 A 
ATOM     23 BR   UNL     1      -0.866  13.326  20.449  0.00  0.00    +0.000 Br
ATOM     24  C   UNL     1       1.203  11.843  19.039  0.00  0.00    +0.000 A 
ATOM     25  C   UNL     1       1.657  12.887  18.092  0.00  0.00    +0.000 C 
ATOM     26  N   UNL     1       1.799  10.598  19.010  0.00  0.00    +0.000 NA
ATOM     27  C   UNL     1       1.211   9.886  19.953  0.00  0.00    +0.000 A 
ENDBRANCH  16  17
ENDBRANCH  15  16
ENDBRANCH   6  15
TORSDOF 5
ENDMDL
MODEL 8
REMARK VINA RESULT:      -7.3      2.789      4.449
REMARK  Name = 
REMARK  8 active torsions:
REMARK  status: ('A' for Active; 'I' for Inactive)
REMARK    1  A    between atoms: C_1  and  C_2
REMARK    2  A    between atoms: C_2  and  C_3
REMARK    3  A    between atoms: N_5  and  C_6
REMARK    4  A    between atoms: N_5  and  C_7
REMARK    5  A    between atoms: C_12  and  C_13
REMARK    6  A    between atoms: C_13  and  O_14
REMARK    7  A    between atoms: O_14  and  C_15
REMARK    8  A    between atoms: C_22  and  C_23
REMARK                            x       y       z     vdW  Elec       q    Type
REMARK                         _______ _______ _______ _____ _____    ______ ____
ROOT
ATOM      1  C   UNL     1       3.423   5.630  18.739  0.00  0.00    +0.000 A 
ATOM      2  C   UNL     1       3.690   6.437  17.630  0.00  0.00    +0.000 A 
ATOM      3  C   UNL     1       3.104   7.695  17.539  0.00  0.00    +0.000 A 
ATOM      4  C   UNL     1       2.255   8.159  18.553  0.00  0.00    +0.000 A 
ATOM      5 CL   UNL     1       1.588   9.742  18.341  0.00  0.00    +0.000 Cl
ATOM      6  C   UNL     1       1.981   7.379  19.696  0.00  0.00    +0.000 A 
ATOM      7  C   UNL     1       2.576   6.100  19.771  0.00  0.00    +0.000 A 
ATOM      8 CL   UNL     1       2.273   5.067  21.139  0.00  0.00    +0.000 Cl
ENDROOT
BRANCH   1  11
ATOM      9  C   UNL     1       3.283   3.178  18.446  0.00  0.00    +0.000 C 
ATOM     10  O   UNL     1       3.786   2.054  18.510  0.00  0.00    +0.000 OA
ATOM     11  N   UNL     1       3.997   4.333  18.772  0.00  0.00    +0.000 N 
ATOM     12  C   UNL     1       5.384   4.234  19.209  0.00  0.00    +0.000 C 
BRANCH   9  14
ATOM     13  C   UNL     1       0.846   2.550  18.770  0.00  0.00    +0.000 C 
ATOM     14  C   UNL     1       1.844   3.377  17.978  0.00  0.00    +0.000 C 
ENDBRANCH   9  14
ENDBRANCH   1  11
BRANCH   6  15
ATOM     15  C   UNL     1       1.080   7.899  20.800  0.00  0.00    +0.000 C 
BRANCH  15  16
ATOM     16  O   UNL     1       1.532   9.169  21.270  0.00  0.00    +0.000 OA
BRANCH  16  17
ATOM     17  C   UNL     1       0.592   9.997  21.858  0.00  0.00    +0.000 A 
ATOM     18  C   UNL     1      -0.402   9.632  22.707  0.00  0.00    +0.000 A 
ATOM     19  C   UNL     1      -1.350  10.593  23.250  0.00  0.00    +0.000 A 
ATOM     20  C   UNL     1      -1.243  11.885  22.901  0.00  0.00    +0.000 A 
ATOM     21  N   UNL     1      -0.221  12.274  22.035  0.00  0.00    +0.000 N 
ATOM     22  C   UNL     1       0.093  13.519  21.543  0.00  0.00    +0.000 A 
ATOM     23 BR   UNL     1      -0.801  15.119  21.896  0.00  0.00    +0.000 Br
ATOM     24  C   UNL     1       1.202  13.350  20.744  0.00  0.00    +0.000 A 
ATOM     25  C   UNL     1       1.990  14.336  19.968  0.00  0.00    +0.000 C 
ATOM     26  N   UNL     1       1.572  12.020  20.722  0.00  0.00    +0.000 NA
ATOM     27  C   UNL     1       0.712  11.385  21.496  0.00  0.00    +0.000 A 
ENDBRANCH  16  17
ENDBRANCH  15  16
ENDBRANCH   6  15
TORSDOF 5
ENDMDL
MODEL 9
REMARK VINA RESULT:      -7.3      1.680      2.412
REMARK  Name = 
REMARK  8 active torsions:
REMARK  status: ('A' for Active; 'I' for Inactive)
REMARK    1  A    between atoms: C_1  and  C_2
REMARK    2  A    between atoms: C_2  and  C_3
REMARK    3  A    between atoms: N_5  and  C_6
REMARK    4  A    between atoms: N_5  and  C_7
REMARK    5  A    between atoms: C_12  and  C_13
REMARK    6  A    between atoms: C_13  and  O_14
REMARK    7  A    between atoms: O_14  and  C_15
REMARK    8  A    between atoms: C_22  and  C_23
REMARK                            x       y       z     vdW  Elec       q    Type
REMARK                         _______ _______ _______ _____ _____    ______ ____
ROOT
ATOM      1  C   UNL     1       4.753   5.031  18.020  0.00  0.00    +0.000 A 
ATOM      2  C   UNL     1       4.412   4.355  19.195  0.00  0.00    +0.000 A 
ATOM      3  C   UNL     1       3.396   4.855  20.004  0.00  0.00    +0.000 A 
ATOM      4  C   UNL     1       2.712   6.025  19.645  0.00  0.00    +0.000 A 
ATOM      5 CL   UNL     1       1.462   6.550  20.721  0.00  0.00    +0.000 Cl
ATOM      6  C   UNL     1       3.018   6.719  18.457  0.00  0.00    +0.000 A 
ATOM      7  C   UNL     1       4.057   6.206  17.649  0.00  0.00    +0.000 A 
ATOM      8 CL   UNL     1       4.508   7.014  16.176  0.00  0.00    +0.000 Cl
ENDROOT
BRANCH   1  11
ATOM      9  C   UNL     1       7.163   4.854  17.490  0.00  0.00    +0.000 C 
ATOM     10  O   UNL     1       8.084   4.427  16.790  0.00  0.00    +0.000 OA
ATOM     11  N   UNL     1       5.828   4.520  17.248  0.00  0.00    +0.000 N 
ATOM     12  C   UNL     1       5.486   3.643  16.135  0.00  0.00    +0.000 C 
BRANCH   9  14
ATOM     13  C   UNL     1       7.909   7.145  18.285  0.00  0.00    +0.000 C 
ATOM     14  C   UNL     1       7.431   5.760  18.688  0.00  0.00    +0.000 C 
ENDBRANCH   9  14
ENDBRANCH   1  11
BRANCH   6  15
ATOM     15  C   UNL     1       2.256   7.971  18.064  0.00  0.00    +0.000 C 
BRANCH  15  16
ATOM     16  O   UNL     1       1.781   8.661  19.220  0.00  0.00    +0.000 OA
BRANCH  16  17
ATOM     17  C   UNL     1       1.644  10.035  19.126  0.00  0.00    +0.000 A 
ATOM     18  C   UNL     1       2.175  10.845  18.176  0.00  0.00    +0.000 A 
ATOM     19  C   UNL     1       1.980  12.288  18.190  0.00  0.00    +0.000 A 
ATOM     20  C   UNL     1       1.251  12.839  19.175  0.00  0.00    +0.000 A 
ATOM     21  N   UNL     1       0.694  12.014  20.153  0.00  0.00    +0.000 N 
ATOM     22  C   UNL     1      -0.082  12.336  21.241  0.00  0.00    +0.000 A 
ATOM     23 BR   UNL     1      -0.631  14.045  21.757  0.00  0.00    +0.000 Br
ATOM     24  C   UNL     1      -0.378  11.148  21.870  0.00  0.00    +0.000 A 
ATOM     25  C   UNL     1      -1.188  10.873  23.078  0.00  0.00    +0.000 C 
ATOM     26  N   UNL     1       0.212  10.096  21.197  0.00  0.00    +0.000 NA
ATOM     27  C   UNL     1       0.853  10.627  20.173  0.00  0.00    +0.000 A 
ENDBRANCH  16  17
ENDBRANCH  15  16
ENDBRANCH   6  15
TORSDOF 5
ENDMDL
