MODEL 1
REMARK VINA RESULT:      -6.4      0.000      0.000
REMARK  Name = 
REMARK  1 active torsions:
REMARK  status: ('A' for Active; 'I' for Inactive)
REMARK    1  A    between atoms: N_17  and  C_18
REMARK                            x       y       z     vdW  Elec       q    Type
REMARK                         _______ _______ _______ _____ _____    ______ ____
ROOT
ATOM      1  O   UNL     1       5.755   3.932  19.386  0.00  0.00    +0.000 OA
ATOM      2  S   UNL     1       5.781   4.654  18.130  0.00  0.00    +0.000 S 
ATOM      3  O   UNL     1       7.018   5.274  17.689  0.00  0.00    +0.000 OA
ATOM      4  C   UNL     1       4.532   5.919  18.153  0.00  0.00    +0.000 A 
ATOM      5  C   UNL     1       4.896   7.229  17.795  0.00  0.00    +0.000 A 
ATOM      6  C   UNL     1       3.918   8.210  17.691  0.00  0.00    +0.000 A 
ATOM      7  C   UNL     1       2.597   7.883  17.964  0.00  0.00    +0.000 A 
ATOM      8 BR   UNL     1       1.252   9.194  17.761  0.00  0.00    +0.000 Br
ATOM      9  C   UNL     1       2.244   6.577  18.348  0.00  0.00    +0.000 A 
ATOM     10  C   UNL     1       3.207   5.564  18.439  0.00  0.00    +0.000 A 
ATOM     11  N   UNL     1       2.867   4.264  18.736  0.00  0.00    +0.000 N 
ATOM     12  C   UNL     1       2.062   3.918  19.897  0.00  0.00    +0.000 C 
ATOM     13  C   UNL     1       1.858   2.416  19.750  0.00  0.00    +0.000 C 
ATOM     14  C   UNL     1       1.833   2.193  18.243  0.00  0.00    +0.000 C 
ATOM     15  C   UNL     1       2.791   3.256  17.667  0.00  0.00    +0.000 C 
ATOM     16  C   UNL     1       4.164   2.648  17.293  0.00  0.00    +0.000 C 
ATOM     17  N   UNL     1       5.210   3.639  16.854  0.00  0.00    +0.000 NA
ENDROOT
BRANCH  17  18
ATOM     18  C   UNL     1       4.876   4.335  15.579  0.00  0.00    +0.000 C 
ATOM     19  C   UNL     1       5.844   5.195  14.810  0.00  0.00    +0.000 C 
ATOM     20  C   UNL     1       5.443   3.859  14.269  0.00  0.00    +0.000 C 
ENDBRANCH  17  18
TORSDOF 1
ENDMDL
MODEL 2
REMARK VINA RESULT:      -6.2      2.256      4.354
REMARK  Name = 
REMARK  1 active torsions:
REMARK  status: ('A' for Active; 'I' for Inactive)
REMARK    1  A    between atoms: N_17  and  C_18
REMARK                            x       y       z     vdW  Elec       q    Type
REMARK                         _______ _______ _______ _____ _____    ______ ____
ROOT
ATOM      1  O   UNL     1       4.151   3.369  16.716  0.00  0.00    +0.000 OA
ATOM      2  S   UNL     1       3.102   3.674  17.667  0.00  0.00    +0.000 S 
ATOM      3  O   UNL     1       1.811   3.020  17.540  0.00  0.00    +0.000 OA
ATOM      4  C   UNL     1       2.809   5.427  17.679  0.00  0.00    +0.000 A 
ATOM      5  C   UNL     1       1.487   5.889  17.550  0.00  0.00    +0.000 A 
ATOM      6  C   UNL     1       1.218   7.246  17.674  0.00  0.00    +0.000 A 
ATOM      7  C   UNL     1       2.266   8.128  17.902  0.00  0.00    +0.000 A 
ATOM      8 BR   UNL     1       1.900   9.967  18.137  0.00  0.00    +0.000 Br
ATOM      9  C   UNL     1       3.589   7.663  18.002  0.00  0.00    +0.000 A 
ATOM     10  C   UNL     1       3.885   6.297  17.904  0.00  0.00    +0.000 A 
ATOM     11  N   UNL     1       5.163   5.817  18.078  0.00  0.00    +0.000 N 
ATOM     12  C   UNL     1       6.300   6.351  17.344  0.00  0.00    +0.000 C 
ATOM     13  C   UNL     1       7.486   5.604  17.939  0.00  0.00    +0.000 C 
ATOM     14  C   UNL     1       7.081   5.365  19.388  0.00  0.00    +0.000 C 
ATOM     15  C   UNL     1       5.549   5.187  19.350  0.00  0.00    +0.000 C 
ATOM     16  C   UNL     1       5.143   3.697  19.449  0.00  0.00    +0.000 C 
ATOM     17  N   UNL     1       3.673   3.417  19.277  0.00  0.00    +0.000 NA
ENDROOT
BRANCH  17  18
ATOM     18  C   UNL     1       2.825   3.991  20.360  0.00  0.00    +0.000 C 
ATOM     19  C   UNL     1       1.399   3.584  20.620  0.00  0.00    +0.000 C 
ATOM     20  C   UNL     1       2.475   3.180  21.579  0.00  0.00    +0.000 C 
ENDBRANCH  17  18
TORSDOF 1
ENDMDL
MODEL 3
REMARK VINA RESULT:      -6.1      2.990      4.085
REMARK  Name = 
REMARK  1 active torsions:
REMARK  status: ('A' for Active; 'I' for Inactive)
REMARK    1  A    between atoms: N_17  and  C_18
REMARK                            x       y       z     vdW  Elec       q    Type
REMARK                         _______ _______ _______ _____ _____    ______ ____
ROOT
ATOM      1  O   UNL     1       2.985   6.196  18.301  0.00  0.00    +0.000 OA
ATOM      2  S   UNL     1       4.379   6.402  17.967  0.00  0.00    +0.000 S 
ATOM      3  O   UNL     1       4.886   7.755  17.821  0.00  0.00    +0.000 OA
ATOM      4  C   UNL     1       4.760   5.528  16.467  0.00  0.00    +0.000 A 
ATOM      5  C   UNL     1       5.418   6.220  15.434  0.00  0.00    +0.000 A 
ATOM      6  C   UNL     1       5.831   5.531  14.301  0.00  0.00    +0.000 A 
ATOM      7  C   UNL     1       5.567   4.172  14.197  0.00  0.00    +0.000 A 
ATOM      8 BR   UNL     1       6.183   3.217  12.689  0.00  0.00    +0.000 Br
ATOM      9  C   UNL     1       4.884   3.492  15.221  0.00  0.00    +0.000 A 
ATOM     10  C   UNL     1       4.477   4.158  16.385  0.00  0.00    +0.000 A 
ATOM     11  N   UNL     1       3.878   3.491  17.429  0.00  0.00    +0.000 N 
ATOM     12  C   UNL     1       2.720   2.632  17.241  0.00  0.00    +0.000 C 
ATOM     13  C   UNL     1       2.489   2.041  18.625  0.00  0.00    +0.000 C 
ATOM     14  C   UNL     1       3.887   1.948  19.223  0.00  0.00    +0.000 C 
ATOM     15  C   UNL     1       4.656   3.147  18.630  0.00  0.00    +0.000 C 
ATOM     16  C   UNL     1       4.774   4.310  19.643  0.00  0.00    +0.000 C 
ATOM     17  N   UNL     1       5.386   5.576  19.103  0.00  0.00    +0.000 NA
ENDROOT
BRANCH  17  18
ATOM     18  C   UNL     1       6.815   5.427  18.707  0.00  0.00    +0.000 C 
ATOM     19  C   UNL     1       7.788   6.573  18.616  0.00  0.00    +0.000 C 
ATOM     20  C   UNL     1       7.916   5.573  19.722  0.00  0.00    +0.000 C 
ENDBRANCH  17  18
TORSDOF 1
ENDMDL
MODEL 4
REMARK VINA RESULT:      -6.0      6.890      9.013
REMARK  Name = 
REMARK  1 active torsions:
REMARK  status: ('A' for Active; 'I' for Inactive)
REMARK    1  A    between atoms: N_17  and  C_18
REMARK                            x       y       z     vdW  Elec       q    Type
REMARK                         _______ _______ _______ _____ _____    ______ ____
ROOT
ATOM      1  O   UNL     1       1.872  11.519  18.257  0.00  0.00    +0.000 OA
ATOM      2  S   UNL     1       1.032  10.410  18.662  0.00  0.00    +0.000 S 
ATOM      3  O   UNL     1       1.326   9.076  18.170  0.00  0.00    +0.000 OA
ATOM      4  C   UNL     1      -0.658  10.769  18.246  0.00  0.00    +0.000 A 
ATOM      5  C   UNL     1      -1.396   9.803  17.540  0.00  0.00    +0.000 A 
ATOM      6  C   UNL     1      -2.750  10.009  17.305  0.00  0.00    +0.000 A 
ATOM      7  C   UNL     1      -3.347  11.178  17.755  0.00  0.00    +0.000 A 
ATOM      8 BR   UNL     1      -5.201  11.435  17.498  0.00  0.00    +0.000 Br
ATOM      9  C   UNL     1      -2.597  12.153  18.436  0.00  0.00    +0.000 A 
ATOM     10  C   UNL     1      -1.236  11.960  18.706  0.00  0.00    +0.000 A 
ATOM     11  N   UNL     1      -0.506  12.868  19.440  0.00  0.00    +0.000 N 
ATOM     12  C   UNL     1      -0.476  14.285  19.114  0.00  0.00    +0.000 C 
ATOM     13  C   UNL     1       0.350  14.889  20.243  0.00  0.00    +0.000 C 
ATOM     14  C   UNL     1       0.035  14.006  21.443  0.00  0.00    +0.000 C 
ATOM     15  C   UNL     1      -0.199  12.599  20.854  0.00  0.00    +0.000 C 
ATOM     16  C   UNL     1       1.031  11.682  21.054  0.00  0.00    +0.000 C 
ATOM     17  N   UNL     1       0.947  10.335  20.386  0.00  0.00    +0.000 NA
ENDROOT
BRANCH  17  18
ATOM     18  C   UNL     1      -0.126   9.460  20.939  0.00  0.00    +0.000 C 
ATOM     19  C   UNL     1       0.127   8.120  21.579  0.00  0.00    +0.000 C 
ATOM     20  C   UNL     1      -0.287   9.283  22.425  0.00  0.00    +0.000 C 
ENDBRANCH  17  18
TORSDOF 1
ENDMDL
MODEL 5
REMARK VINA RESULT:      -6.0     10.368     11.439
REMARK  Name = 
REMARK  1 active torsions:
REMARK  status: ('A' for Active; 'I' for Inactive)
REMARK    1  A    between atoms: N_17  and  C_18
REMARK                            x       y       z     vdW  Elec       q    Type
REMARK                         _______ _______ _______ _____ _____    ______ ____
ROOT
ATOM      1  O   UNL     1      11.287  15.646  19.478  0.00  0.00    +0.000 OA
ATOM      2  S   UNL     1       9.880  15.778  19.795  0.00  0.00    +0.000 S 
ATOM      3  O   UNL     1       9.342  17.086  20.123  0.00  0.00    +0.000 OA
ATOM      4  C   UNL     1       9.473  14.684  21.136  0.00  0.00    +0.000 A 
ATOM      5  C   UNL     1       8.772  15.205  22.239  0.00  0.00    +0.000 A 
ATOM      6  C   UNL     1       8.341  14.350  23.244  0.00  0.00    +0.000 A 
ATOM      7  C   UNL     1       8.629  12.995  23.154  0.00  0.00    +0.000 A 
ATOM      8 BR   UNL     1       7.989  11.816  24.484  0.00  0.00    +0.000 Br
ATOM      9  C   UNL     1       9.355  12.485  22.063  0.00  0.00    +0.000 A 
ATOM     10  C   UNL     1       9.782  13.322  21.024  0.00  0.00    +0.000 A 
ATOM     11  N   UNL     1      10.424  12.828  19.911  0.00  0.00    +0.000 N 
ATOM     12  C   UNL     1      11.593  11.968  20.007  0.00  0.00    +0.000 C 
ATOM     13  C   UNL     1      11.876  11.593  18.558  0.00  0.00    +0.000 C 
ATOM     14  C   UNL     1      10.498  11.568  17.909  0.00  0.00    +0.000 C 
ATOM     15  C   UNL     1       9.688  12.653  18.649  0.00  0.00    +0.000 C 
ATOM     16  C   UNL     1       9.576  13.952  17.815  0.00  0.00    +0.000 C 
ATOM     17  N   UNL     1       8.923  15.114  18.518  0.00  0.00    +0.000 NA
ENDROOT
BRANCH  17  18
ATOM     18  C   UNL     1       7.486  14.886  18.842  0.00  0.00    +0.000 C 
ATOM     19  C   UNL     1       6.380  15.845  18.490  0.00  0.00    +0.000 C 
ATOM     20  C   UNL     1       6.496  14.542  17.762  0.00  0.00    +0.000 C 
ENDBRANCH  17  18
TORSDOF 1
ENDMDL
MODEL 6
REMARK VINA RESULT:      -5.9      8.319     10.384
REMARK  Name = 
REMARK  1 active torsions:
REMARK  status: ('A' for Active; 'I' for Inactive)
REMARK    1  A    between atoms: N_17  and  C_18
REMARK                            x       y       z     vdW  Elec       q    Type
REMARK                         _______ _______ _______ _____ _____    ______ ____
ROOT
ATOM      1  O   UNL     1      -0.294  14.372  21.553  0.00  0.00    +0.000 OA
ATOM      2  S   UNL     1      -0.010  13.047  21.041  0.00  0.00    +0.000 S 
ATOM      3  O   UNL     1       1.281  12.779  20.432  0.00  0.00    +0.000 OA
ATOM      4  C   UNL     1      -1.259  12.592  19.862  0.00  0.00    +0.000 A 
ATOM      5  C   UNL     1      -0.853  12.103  18.607  0.00  0.00    +0.000 A 
ATOM      6  C   UNL     1      -1.804  11.631  17.713  0.00  0.00    +0.000 A 
ATOM      7  C   UNL     1      -3.146  11.670  18.065  0.00  0.00    +0.000 A 
ATOM      8 BR   UNL     1      -4.441  10.969  16.881  0.00  0.00    +0.000 Br
ATOM      9  C   UNL     1      -3.548  12.186  19.310  0.00  0.00    +0.000 A 
ATOM     10  C   UNL     1      -2.607  12.647  20.240  0.00  0.00    +0.000 A 
ATOM     11  N   UNL     1      -2.978  13.081  21.492  0.00  0.00    +0.000 N 
ATOM     12  C   UNL     1      -4.009  14.088  21.692  0.00  0.00    +0.000 C 
ATOM     13  C   UNL     1      -4.145  14.157  23.207  0.00  0.00    +0.000 C 
ATOM     14  C   UNL     1      -3.838  12.739  23.670  0.00  0.00    +0.000 C 
ATOM     15  C   UNL     1      -2.799  12.206  22.661  0.00  0.00    +0.000 C 
ATOM     16  C   UNL     1      -1.366  12.239  23.244  0.00  0.00    +0.000 C 
ATOM     17  N   UNL     1      -0.270  11.870  22.279  0.00  0.00    +0.000 NA
ENDROOT
BRANCH  17  18
ATOM     18  C   UNL     1      -0.332  10.454  21.817  0.00  0.00    +0.000 C 
ATOM     19  C   UNL     1       0.817   9.485  21.910  0.00  0.00    +0.000 C 
ATOM     20  C   UNL     1      -0.371   9.320  22.806  0.00  0.00    +0.000 C 
ENDBRANCH  17  18
TORSDOF 1
ENDMDL
MODEL 7
REMARK VINA RESULT:      -5.8      7.426      9.115
REMARK  Name = 
REMARK  1 active torsions:
REMARK  status: ('A' for Active; 'I' for Inactive)
REMARK    1  A    between atoms: N_17  and  C_18
REMARK                            x       y       z     vdW  Elec       q    Type
REMARK                         _______ _______ _______ _____ _____    ______ ____
ROOT
ATOM      1  O   UNL     1       1.339  12.474  19.924  0.00  0.00    +0.000 OA
ATOM      2  S   UNL     1      -0.034  12.664  19.501  0.00  0.00    +0.000 S 
ATOM      3  O   UNL     1      -0.378  13.821  18.694  0.00  0.00    +0.000 OA
ATOM      4  C   UNL     1      -1.093  12.679  20.929  0.00  0.00    +0.000 A 
ATOM      5  C   UNL     1      -2.015  13.731  21.071  0.00  0.00    +0.000 A 
ATOM      6  C   UNL     1      -2.932  13.704  22.113  0.00  0.00    +0.000 A 
ATOM      7  C   UNL     1      -2.908  12.647  23.012  0.00  0.00    +0.000 A 
ATOM      8 BR   UNL     1      -4.194  12.570  24.394  0.00  0.00    +0.000 Br
ATOM      9  C   UNL     1      -1.966  11.612  22.881  0.00  0.00    +0.000 A 
ATOM     10  C   UNL     1      -1.044  11.603  21.825  0.00  0.00    +0.000 A 
ATOM     11  N   UNL     1      -0.168  10.558  21.636  0.00  0.00    +0.000 N 
ATOM     12  C   UNL     1       0.697  10.068  22.698  0.00  0.00    +0.000 C 
ATOM     13  C   UNL     1       1.385   8.866  22.067  0.00  0.00    +0.000 C 
ATOM     14  C   UNL     1       0.345   8.311  21.102  0.00  0.00    +0.000 C 
ATOM     15  C   UNL     1      -0.436   9.544  20.604  0.00  0.00    +0.000 C 
ATOM     16  C   UNL     1       0.012   9.973  19.187  0.00  0.00    +0.000 C 
ATOM     17  N   UNL     1      -0.597  11.253  18.678  0.00  0.00    +0.000 NA
ENDROOT
BRANCH  17  18
ATOM     18  C   UNL     1      -2.072  11.174  18.474  0.00  0.00    +0.000 C 
ATOM     19  C   UNL     1      -2.750  11.367  17.143  0.00  0.00    +0.000 C 
ATOM     20  C   UNL     1      -2.689  10.003  17.756  0.00  0.00    +0.000 C 
ENDBRANCH  17  18
TORSDOF 1
ENDMDL
MODEL 8
REMARK VINA RESULT:      -5.7      6.487      8.663
REMARK  Name = 
REMARK  1 active torsions:
REMARK  status: ('A' for Active; 'I' for Inactive)
REMARK    1  A    between atoms: N_17  and  C_18
REMARK                            x       y       z     vdW  Elec       q    Type
REMARK                         _______ _______ _______ _____ _____    ______ ____
ROOT
ATOM      1  O   UNL     1      -1.602  10.270  17.931  0.00  0.00    +0.000 OA
ATOM      2  S   UNL     1      -1.562  11.277  18.971  0.00  0.00    +0.000 S 
ATOM      3  O   UNL     1      -2.687  12.180  19.135  0.00  0.00    +0.000 OA
ATOM      4  C   UNL     1      -0.106  12.276  18.766  0.00  0.00    +0.000 A 
ATOM      5  C   UNL     1      -0.245  13.675  18.767  0.00  0.00    +0.000 A 
ATOM      6  C   UNL     1       0.887  14.479  18.727  0.00  0.00    +0.000 A 
ATOM      7  C   UNL     1       2.140  13.884  18.664  0.00  0.00    +0.000 A 
ATOM      8 BR   UNL     1       3.686  14.969  18.675  0.00  0.00    +0.000 Br
ATOM      9  C   UNL     1       2.271  12.485  18.635  0.00  0.00    +0.000 A 
ATOM     10  C   UNL     1       1.147  11.651  18.698  0.00  0.00    +0.000 A 
ATOM     11  N   UNL     1       1.262  10.281  18.751  0.00  0.00    +0.000 N 
ATOM     12  C   UNL     1       2.049   9.529  17.786  0.00  0.00    +0.000 C 
ATOM     13  C   UNL     1       1.971   8.099  18.303  0.00  0.00    +0.000 C 
ATOM     14  C   UNL     1       1.879   8.260  19.815  0.00  0.00    +0.000 C 
ATOM     15  C   UNL     1       1.100   9.573  20.031  0.00  0.00    +0.000 C 
ATOM     16  C   UNL     1      -0.377   9.309  20.408  0.00  0.00    +0.000 C 
ATOM     17  N   UNL     1      -1.248  10.534  20.499  0.00  0.00    +0.000 NA
ENDROOT
BRANCH  17  18
ATOM     18  C   UNL     1      -0.860  11.463  21.599  0.00  0.00    +0.000 C 
ATOM     19  C   UNL     1      -1.832  12.057  22.583  0.00  0.00    +0.000 C 
ATOM     20  C   UNL     1      -0.866  11.007  23.033  0.00  0.00    +0.000 C 
ENDBRANCH  17  18
TORSDOF 1
ENDMDL
MODEL 9
REMARK VINA RESULT:      -5.5      8.249     10.663
REMARK  Name = 
REMARK  1 active torsions:
REMARK  status: ('A' for Active; 'I' for Inactive)
REMARK    1  A    between atoms: N_17  and  C_18
REMARK                            x       y       z     vdW  Elec       q    Type
REMARK                         _______ _______ _______ _____ _____    ______ ____
ROOT
ATOM      1  O   UNL     1       1.698  12.544  21.290  0.00  0.00    +0.000 OA
ATOM      2  S   UNL     1       0.446  11.847  21.502  0.00  0.00    +0.000 S 
ATOM      3  O   UNL     1       0.446  10.579  22.211  0.00  0.00    +0.000 OA
ATOM      4  C   UNL     1      -0.350  11.578  19.935  0.00  0.00    +0.000 A 
ATOM      5  C   UNL     1      -0.803  10.283  19.625  0.00  0.00    +0.000 A 
ATOM      6  C   UNL     1      -1.531  10.071  18.462  0.00  0.00    +0.000 A 
ATOM      7  C   UNL     1      -1.780  11.140  17.611  0.00  0.00    +0.000 A 
ATOM      8 BR   UNL     1      -2.825  10.872  16.061  0.00  0.00    +0.000 Br
ATOM      9  C   UNL     1      -1.300  12.426  17.913  0.00  0.00    +0.000 A 
ATOM     10  C   UNL     1      -0.583  12.672  19.092  0.00  0.00    +0.000 A 
ATOM     11  N   UNL     1      -0.174  13.939  19.441  0.00  0.00    +0.000 N 
ATOM     12  C   UNL     1       0.579  14.790  18.533  0.00  0.00    +0.000 C 
ATOM     13  C   UNL     1       0.702  16.101  19.298  0.00  0.00    +0.000 C 
ATOM     14  C   UNL     1      -0.580  16.170  20.119  0.00  0.00    +0.000 C 
ATOM     15  C   UNL     1      -0.917  14.703  20.456  0.00  0.00    +0.000 C 
ATOM     16  C   UNL     1      -0.524  14.344  21.909  0.00  0.00    +0.000 C 
ATOM     17  N   UNL     1      -0.687  12.893  22.280  0.00  0.00    +0.000 NA
ENDROOT
BRANCH  17  18
ATOM     18  C   UNL     1      -2.103  12.429  22.270  0.00  0.00    +0.000 C 
ATOM     19  C   UNL     1      -2.839  11.940  23.490  0.00  0.00    +0.000 C 
ATOM     20  C   UNL     1      -3.193  13.263  22.888  0.00  0.00    +0.000 C 
ENDBRANCH  17  18
TORSDOF 1
ENDMDL
