MODEL 1
REMARK VINA RESULT:      -7.9      0.000      0.000
REMARK  Name = 
REMARK  3 active torsions:
REMARK  status: ('A' for Active; 'I' for Inactive)
REMARK    1  A    between atoms: C_1  and  N_2
REMARK    2  A    between atoms: C_6  and  C_7
REMARK    3  A    between atoms: C_14  and  C_15
REMARK                            x       y       z     vdW  Elec       q    Type
REMARK                         _______ _______ _______ _____ _____    ______ ____
ROOT
ATOM      1  C   UNL     1       4.114   2.677  17.154  0.00  0.00    +0.000 C 
ATOM      2  N   UNL     1       3.592   3.952  17.631  0.00  0.00    +0.000 N 
ATOM      3  C   UNL     1       3.989   5.187  17.110  0.00  0.00    +0.000 A 
ATOM      4  N   UNL     1       4.808   5.220  15.986  0.00  0.00    +0.000 N 
ATOM      5  N   UNL     1       4.742   4.328  14.947  0.00  0.00    +0.000 NA
ATOM      6  C   UNL     1       5.730   4.569  14.147  0.00  0.00    +0.000 C 
ATOM      7  C   UNL     1       6.560   5.766  14.503  0.00  0.00    +0.000 C 
ATOM      8  C   UNL     1       5.833   6.242  15.770  0.00  0.00    +0.000 C 
ATOM      9  N   UNL     1       3.616   6.308  17.673  0.00  0.00    +0.000 NA
ATOM     10  C   UNL     1       2.778   6.276  18.796  0.00  0.00    +0.000 A 
ATOM     11  C   UNL     1       2.401   7.473  19.410  0.00  0.00    +0.000 A 
ATOM     12  C   UNL     1       1.577   7.475  20.547  0.00  0.00    +0.000 A 
ATOM     13  C   UNL     1       1.116   6.272  21.078  0.00  0.00    +0.000 A 
ATOM     14  C   UNL     1       1.473   5.075  20.472  0.00  0.00    +0.000 A 
ATOM     15  C   UNL     1       2.298   5.091  19.339  0.00  0.00    +0.000 A 
ATOM     16  C   UNL     1       2.713   3.841  18.703  0.00  0.00    +0.000 A 
ATOM     17  O   UNL     1       2.298   2.773  19.148  0.00  0.00    +0.000 OA
ENDROOT
BRANCH   8  18
ATOM     18  C   UNL     1       6.795   6.364  16.943  0.00  0.00    +0.000 A 
ATOM     19  C   UNL     1       7.109   5.229  17.706  0.00  0.00    +0.000 A 
ATOM     20  C   UNL     1       7.949   5.325  18.819  0.00  0.00    +0.000 A 
ATOM     21  C   UNL     1       8.488   6.557  19.183  0.00  0.00    +0.000 A 
ATOM     22  C   UNL     1       8.204   7.686  18.420  0.00  0.00    +0.000 A 
ATOM     23 CL   UNL     1       8.867   9.210  18.868  0.00  0.00    +0.000 Cl
ATOM     24  C   UNL     1       7.373   7.596  17.303  0.00  0.00    +0.000 A 
ENDBRANCH   8  18
BRANCH   6  25
ATOM     25  C   UNL     1       6.055   3.681  13.006  0.00  0.00    +0.000 A 
ATOM     26  C   UNL     1       5.040   2.874  12.472  0.00  0.00    +0.000 A 
ATOM     27  C   UNL     1       5.330   1.961  11.458  0.00  0.00    +0.000 A 
ATOM     28  C   UNL     1       6.631   1.850  10.976  0.00  0.00    +0.000 A 
ATOM     29  C   UNL     1       7.643   2.656  11.500  0.00  0.00    +0.000 A 
ATOM     30  C   UNL     1       7.357   3.574  12.513  0.00  0.00    +0.000 A 
ENDBRANCH   6  25
TORSDOF 2
ENDMDL
MODEL 2
REMARK VINA RESULT:      -7.8      7.477     11.431
REMARK  Name = 
REMARK  3 active torsions:
REMARK  status: ('A' for Active; 'I' for Inactive)
REMARK    1  A    between atoms: C_1  and  N_2
REMARK    2  A    between atoms: C_6  and  C_7
REMARK    3  A    between atoms: C_14  and  C_15
REMARK                            x       y       z     vdW  Elec       q    Type
REMARK                         _______ _______ _______ _____ _____    ______ ____
ROOT
ATOM      1  C   UNL     1      -1.222  13.461  21.942  0.00  0.00    +0.000 C 
ATOM      2  N   UNL     1      -0.103  13.716  21.043  0.00  0.00    +0.000 N 
ATOM      3  C   UNL     1      -0.008  13.169  19.761  0.00  0.00    +0.000 A 
ATOM      4  N   UNL     1      -1.088  12.463  19.240  0.00  0.00    +0.000 N 
ATOM      5  N   UNL     1      -2.404  12.774  19.467  0.00  0.00    +0.000 NA
ATOM      6  C   UNL     1      -3.133  11.838  18.950  0.00  0.00    +0.000 C 
ATOM      7  C   UNL     1      -2.377  10.791  18.189  0.00  0.00    +0.000 C 
ATOM      8  C   UNL     1      -0.940  11.307  18.355  0.00  0.00    +0.000 C 
ATOM      9  N   UNL     1       1.085  13.295  19.052  0.00  0.00    +0.000 NA
ATOM     10  C   UNL     1       2.169  14.019  19.569  0.00  0.00    +0.000 A 
ATOM     11  C   UNL     1       3.343  14.131  18.821  0.00  0.00    +0.000 A 
ATOM     12  C   UNL     1       4.453  14.835  19.318  0.00  0.00    +0.000 A 
ATOM     13  C   UNL     1       4.393  15.439  20.572  0.00  0.00    +0.000 A 
ATOM     14  C   UNL     1       3.228  15.344  21.323  0.00  0.00    +0.000 A 
ATOM     15  C   UNL     1       2.131  14.637  20.813  0.00  0.00    +0.000 A 
ATOM     16  C   UNL     1       0.905  14.498  21.598  0.00  0.00    +0.000 A 
ATOM     17  O   UNL     1       0.831  15.042  22.698  0.00  0.00    +0.000 OA
ENDROOT
BRANCH   8  18
ATOM     18  C   UNL     1      -0.035  10.233  18.941  0.00  0.00    +0.000 A 
ATOM     19  C   UNL     1      -0.189   9.849  20.283  0.00  0.00    +0.000 A 
ATOM     20  C   UNL     1       0.663   8.903  20.859  0.00  0.00    +0.000 A 
ATOM     21  C   UNL     1       1.681   8.326  20.101  0.00  0.00    +0.000 A 
ATOM     22  C   UNL     1       1.828   8.680  18.763  0.00  0.00    +0.000 A 
ATOM     23 CL   UNL     1       3.086   7.971  17.825  0.00  0.00    +0.000 Cl
ATOM     24  C   UNL     1       0.976   9.618  18.179  0.00  0.00    +0.000 A 
ENDBRANCH   8  18
BRANCH   6  25
ATOM     25  C   UNL     1      -4.598  11.774  19.161  0.00  0.00    +0.000 A 
ATOM     26  C   UNL     1      -5.140  12.374  20.306  0.00  0.00    +0.000 A 
ATOM     27  C   UNL     1      -6.502  12.256  20.583  0.00  0.00    +0.000 A 
ATOM     28  C   UNL     1      -7.326  11.538  19.720  0.00  0.00    +0.000 A 
ATOM     29  C   UNL     1      -6.791  10.945  18.575  0.00  0.00    +0.000 A 
ATOM     30  C   UNL     1      -5.429  11.063  18.291  0.00  0.00    +0.000 A 
ENDBRANCH   6  25
TORSDOF 2
ENDMDL
MODEL 3
REMARK VINA RESULT:      -7.8      9.319     11.199
REMARK  Name = 
REMARK  3 active torsions:
REMARK  status: ('A' for Active; 'I' for Inactive)
REMARK    1  A    between atoms: C_1  and  N_2
REMARK    2  A    between atoms: C_6  and  C_7
REMARK    3  A    between atoms: C_14  and  C_15
REMARK                            x       y       z     vdW  Elec       q    Type
REMARK                         _______ _______ _______ _____ _____    ______ ____
ROOT
ATOM      1  C   UNL     1      -1.531  11.833  17.188  0.00  0.00    +0.000 C 
ATOM      2  N   UNL     1      -2.616  12.054  18.136  0.00  0.00    +0.000 N 
ATOM      3  C   UNL     1      -2.436  12.657  19.383  0.00  0.00    +0.000 A 
ATOM      4  N   UNL     1      -1.200  13.214  19.698  0.00  0.00    +0.000 N 
ATOM      5  N   UNL     1      -0.382  13.851  18.801  0.00  0.00    +0.000 NA
ATOM      6  C   UNL     1       0.735  14.119  19.396  0.00  0.00    +0.000 C 
ATOM      7  C   UNL     1       0.777  13.777  20.855  0.00  0.00    +0.000 C 
ATOM      8  C   UNL     1      -0.636  13.205  21.047  0.00  0.00    +0.000 C 
ATOM      9  N   UNL     1      -3.404  12.690  20.263  0.00  0.00    +0.000 NA
ATOM     10  C   UNL     1      -4.654  12.143  19.943  0.00  0.00    +0.000 A 
ATOM     11  C   UNL     1      -5.678  12.158  20.893  0.00  0.00    +0.000 A 
ATOM     12  C   UNL     1      -6.936  11.602  20.609  0.00  0.00    +0.000 A 
ATOM     13  C   UNL     1      -7.182  11.030  19.362  0.00  0.00    +0.000 A 
ATOM     14  C   UNL     1      -6.177  11.018  18.404  0.00  0.00    +0.000 A 
ATOM     15  C   UNL     1      -4.927  11.575  18.705  0.00  0.00    +0.000 A 
ATOM     16  C   UNL     1      -3.844  11.546  17.722  0.00  0.00    +0.000 A 
ATOM     17  O   UNL     1      -4.053  11.062  16.612  0.00  0.00    +0.000 OA
ENDROOT
BRANCH   8  18
ATOM     18  C   UNL     1      -0.586  11.809  21.653  0.00  0.00    +0.000 A 
ATOM     19  C   UNL     1      -1.260  11.549  22.856  0.00  0.00    +0.000 A 
ATOM     20  C   UNL     1      -1.187  10.290  23.459  0.00  0.00    +0.000 A 
ATOM     21  C   UNL     1      -0.440   9.273  22.866  0.00  0.00    +0.000 A 
ATOM     22  C   UNL     1       0.213   9.513  21.660  0.00  0.00    +0.000 A 
ATOM     23 CL   UNL     1       1.138   8.260  20.926  0.00  0.00    +0.000 Cl
ATOM     24  C   UNL     1       0.138  10.765  21.048  0.00  0.00    +0.000 A 
ENDBRANCH   8  18
BRANCH   6  25
ATOM     25  C   UNL     1       1.907  14.657  18.666  0.00  0.00    +0.000 A 
ATOM     26  C   UNL     1       3.035  13.839  18.510  0.00  0.00    +0.000 A 
ATOM     27  C   UNL     1       4.189  14.342  17.908  0.00  0.00    +0.000 A 
ATOM     28  C   UNL     1       4.221  15.661  17.463  0.00  0.00    +0.000 A 
ATOM     29  C   UNL     1       3.098  16.476  17.611  0.00  0.00    +0.000 A 
ATOM     30  C   UNL     1       1.939  15.977  18.210  0.00  0.00    +0.000 A 
ENDBRANCH   6  25
TORSDOF 2
ENDMDL
MODEL 4
REMARK VINA RESULT:      -7.8      6.904     12.281
REMARK  Name = 
REMARK  3 active torsions:
REMARK  status: ('A' for Active; 'I' for Inactive)
REMARK    1  A    between atoms: C_1  and  N_2
REMARK    2  A    between atoms: C_6  and  C_7
REMARK    3  A    between atoms: C_14  and  C_15
REMARK                            x       y       z     vdW  Elec       q    Type
REMARK                         _______ _______ _______ _____ _____    ______ ____
ROOT
ATOM      1  C   UNL     1      -0.526  10.197  22.825  0.00  0.00    +0.000 C 
ATOM      2  N   UNL     1       0.220  10.108  21.576  0.00  0.00    +0.000 N 
ATOM      3  C   UNL     1       0.278  11.144  20.640  0.00  0.00    +0.000 A 
ATOM      4  N   UNL     1      -0.273  12.381  20.959  0.00  0.00    +0.000 N 
ATOM      5  N   UNL     1      -0.254  12.943  22.210  0.00  0.00    +0.000 NA
ATOM      6  C   UNL     1      -0.970  14.020  22.177  0.00  0.00    +0.000 C 
ATOM      7  C   UNL     1      -1.498  14.393  20.824  0.00  0.00    +0.000 C 
ATOM      8  C   UNL     1      -0.923  13.248  19.976  0.00  0.00    +0.000 C 
ATOM      9  N   UNL     1       0.825  10.963  19.465  0.00  0.00    +0.000 NA
ATOM     10  C   UNL     1       1.395   9.722  19.148  0.00  0.00    +0.000 A 
ATOM     11  C   UNL     1       1.956   9.524  17.884  0.00  0.00    +0.000 A 
ATOM     12  C   UNL     1       2.519   8.287  17.529  0.00  0.00    +0.000 A 
ATOM     13  C   UNL     1       2.529   7.235  18.443  0.00  0.00    +0.000 A 
ATOM     14  C   UNL     1       1.984   7.421  19.707  0.00  0.00    +0.000 A 
ATOM     15  C   UNL     1       1.424   8.661  20.044  0.00  0.00    +0.000 A 
ATOM     16  C   UNL     1       0.817   8.870  21.358  0.00  0.00    +0.000 A 
ATOM     17  O   UNL     1       0.836   7.958  22.181  0.00  0.00    +0.000 OA
ENDROOT
BRANCH   8  18
ATOM     18  C   UNL     1      -2.022  12.533  19.201  0.00  0.00    +0.000 A 
ATOM     19  C   UNL     1      -3.309  12.433  19.752  0.00  0.00    +0.000 A 
ATOM     20  C   UNL     1      -4.321  11.737  19.084  0.00  0.00    +0.000 A 
ATOM     21  C   UNL     1      -4.060  11.134  17.855  0.00  0.00    +0.000 A 
ATOM     22  C   UNL     1      -2.794  11.249  17.287  0.00  0.00    +0.000 A 
ATOM     23 CL   UNL     1      -2.469  10.503  15.770  0.00  0.00    +0.000 Cl
ATOM     24  C   UNL     1      -1.782  11.948  17.944  0.00  0.00    +0.000 A 
ENDBRANCH   8  18
BRANCH   6  25
ATOM     25  C   UNL     1      -1.299  14.785  23.403  0.00  0.00    +0.000 A 
ATOM     26  C   UNL     1      -0.466  15.848  23.776  0.00  0.00    +0.000 A 
ATOM     27  C   UNL     1      -0.693  16.533  24.971  0.00  0.00    +0.000 A 
ATOM     28  C   UNL     1      -1.750  16.157  25.795  0.00  0.00    +0.000 A 
ATOM     29  C   UNL     1      -2.586  15.103  25.424  0.00  0.00    +0.000 A 
ATOM     30  C   UNL     1      -2.365  14.417  24.227  0.00  0.00    +0.000 A 
ENDBRANCH   6  25
TORSDOF 2
ENDMDL
MODEL 5
REMARK VINA RESULT:      -7.6      7.476     11.645
REMARK  Name = 
REMARK  3 active torsions:
REMARK  status: ('A' for Active; 'I' for Inactive)
REMARK    1  A    between atoms: C_1  and  N_2
REMARK    2  A    between atoms: C_6  and  C_7
REMARK    3  A    between atoms: C_14  and  C_15
REMARK                            x       y       z     vdW  Elec       q    Type
REMARK                         _______ _______ _______ _____ _____    ______ ____
ROOT
ATOM      1  C   UNL     1      -0.409  13.722  22.106  0.00  0.00    +0.000 C 
ATOM      2  N   UNL     1       0.554  13.871  21.021  0.00  0.00    +0.000 N 
ATOM      3  C   UNL     1       0.380  13.304  19.757  0.00  0.00    +0.000 A 
ATOM      4  N   UNL     1      -0.828  12.687  19.447  0.00  0.00    +0.000 N 
ATOM      5  N   UNL     1      -2.055  13.110  19.889  0.00  0.00    +0.000 NA
ATOM      6  C   UNL     1      -2.936  12.234  19.530  0.00  0.00    +0.000 C 
ATOM      7  C   UNL     1      -2.413  11.118  18.677  0.00  0.00    +0.000 C 
ATOM      8  C   UNL     1      -0.931  11.513  18.580  0.00  0.00    +0.000 C 
ATOM      9  N   UNL     1       1.340  13.329  18.867  0.00  0.00    +0.000 NA
ATOM     10  C   UNL     1       2.553  13.964  19.172  0.00  0.00    +0.000 A 
ATOM     11  C   UNL     1       3.584  13.968  18.230  0.00  0.00    +0.000 A 
ATOM     12  C   UNL     1       4.817  14.580  18.510  0.00  0.00    +0.000 A 
ATOM     13  C   UNL     1       5.025  15.201  19.740  0.00  0.00    +0.000 A 
ATOM     14  C   UNL     1       4.004  15.215  20.682  0.00  0.00    +0.000 A 
ATOM     15  C   UNL     1       2.781  14.597  20.387  0.00  0.00    +0.000 A 
ATOM     16  C   UNL     1       1.703  14.571  21.374  0.00  0.00    +0.000 A 
ATOM     17  O   UNL     1       1.865  15.132  22.456  0.00  0.00    +0.000 OA
ENDROOT
BRANCH   8  18
ATOM     18  C   UNL     1      -0.028  10.372  19.030  0.00  0.00    +0.000 A 
ATOM     19  C   UNL     1      -0.109   9.899  20.349  0.00  0.00    +0.000 A 
ATOM     20  C   UNL     1       0.744   8.888  20.800  0.00  0.00    +0.000 A 
ATOM     21  C   UNL     1       1.690   8.335  19.938  0.00  0.00    +0.000 A 
ATOM     22  C   UNL     1       1.763   8.779  18.621  0.00  0.00    +0.000 A 
ATOM     23 CL   UNL     1       2.932   8.100  17.554  0.00  0.00    +0.000 Cl
ATOM     24  C   UNL     1       0.909   9.782  18.161  0.00  0.00    +0.000 A 
ENDBRANCH   8  18
BRANCH   6  25
ATOM     25  C   UNL     1      -4.343  12.296  19.991  0.00  0.00    +0.000 A 
ATOM     26  C   UNL     1      -5.362  11.975  19.084  0.00  0.00    +0.000 A 
ATOM     27  C   UNL     1      -6.701  12.109  19.455  0.00  0.00    +0.000 A 
ATOM     28  C   UNL     1      -7.025  12.565  20.730  0.00  0.00    +0.000 A 
ATOM     29  C   UNL     1      -6.012  12.880  21.638  0.00  0.00    +0.000 A 
ATOM     30  C   UNL     1      -4.671  12.744  21.272  0.00  0.00    +0.000 A 
ENDBRANCH   6  25
TORSDOF 2
ENDMDL
MODEL 6
REMARK VINA RESULT:      -7.6      7.084     12.367
REMARK  Name = 
REMARK  3 active torsions:
REMARK  status: ('A' for Active; 'I' for Inactive)
REMARK    1  A    between atoms: C_1  and  N_2
REMARK    2  A    between atoms: C_6  and  C_7
REMARK    3  A    between atoms: C_14  and  C_15
REMARK                            x       y       z     vdW  Elec       q    Type
REMARK                         _______ _______ _______ _____ _____    ______ ____
ROOT
ATOM      1  C   UNL     1      -0.549  10.147  22.787  0.00  0.00    +0.000 C 
ATOM      2  N   UNL     1       0.217  10.066  21.549  0.00  0.00    +0.000 N 
ATOM      3  C   UNL     1       0.283  11.106  20.618  0.00  0.00    +0.000 A 
ATOM      4  N   UNL     1      -0.280  12.338  20.933  0.00  0.00    +0.000 N 
ATOM      5  N   UNL     1      -0.283  12.896  22.186  0.00  0.00    +0.000 NA
ATOM      6  C   UNL     1      -1.005  13.970  22.146  0.00  0.00    +0.000 C 
ATOM      7  C   UNL     1      -1.514  14.344  20.786  0.00  0.00    +0.000 C 
ATOM      8  C   UNL     1      -0.920  13.205  19.943  0.00  0.00    +0.000 C 
ATOM      9  N   UNL     1       0.850  10.933  19.451  0.00  0.00    +0.000 NA
ATOM     10  C   UNL     1       1.431   9.696  19.138  0.00  0.00    +0.000 A 
ATOM     11  C   UNL     1       2.014   9.506  17.883  0.00  0.00    +0.000 A 
ATOM     12  C   UNL     1       2.589   8.274  17.531  0.00  0.00    +0.000 A 
ATOM     13  C   UNL     1       2.591   7.219  18.442  0.00  0.00    +0.000 A 
ATOM     14  C   UNL     1       2.026   7.397  19.698  0.00  0.00    +0.000 A 
ATOM     15  C   UNL     1       1.454   8.632  20.031  0.00  0.00    +0.000 A 
ATOM     16  C   UNL     1       0.825   8.833  21.336  0.00  0.00    +0.000 A 
ATOM     17  O   UNL     1       0.837   7.918  22.156  0.00  0.00    +0.000 OA
ENDROOT
BRANCH   8  18
ATOM     18  C   UNL     1      -2.002  12.487  19.149  0.00  0.00    +0.000 A 
ATOM     19  C   UNL     1      -1.707  11.978  17.874  0.00  0.00    +0.000 A 
ATOM     20  C   UNL     1      -2.697  11.361  17.103  0.00  0.00    +0.000 A 
ATOM     21  C   UNL     1      -3.995  11.243  17.597  0.00  0.00    +0.000 A 
ATOM     22  C   UNL     1      -4.294  11.723  18.870  0.00  0.00    +0.000 A 
ATOM     23 CL   UNL     1      -5.897  11.581  19.482  0.00  0.00    +0.000 Cl
ATOM     24  C   UNL     1      -3.309  12.333  19.648  0.00  0.00    +0.000 A 
ENDBRANCH   8  18
BRANCH   6  25
ATOM     25  C   UNL     1      -1.358  14.728  23.369  0.00  0.00    +0.000 A 
ATOM     26  C   UNL     1      -0.516  15.770  23.780  0.00  0.00    +0.000 A 
ATOM     27  C   UNL     1      -0.767  16.446  24.974  0.00  0.00    +0.000 A 
ATOM     28  C   UNL     1      -1.856  16.083  25.761  0.00  0.00    +0.000 A 
ATOM     29  C   UNL     1      -2.701  15.050  25.352  0.00  0.00    +0.000 A 
ATOM     30  C   UNL     1      -2.456  14.372  24.155  0.00  0.00    +0.000 A 
ENDBRANCH   6  25
TORSDOF 2
ENDMDL
MODEL 7
REMARK VINA RESULT:      -7.5      7.374     11.355
REMARK  Name = 
REMARK  3 active torsions:
REMARK  status: ('A' for Active; 'I' for Inactive)
REMARK    1  A    between atoms: C_1  and  N_2
REMARK    2  A    between atoms: C_6  and  C_7
REMARK    3  A    between atoms: C_14  and  C_15
REMARK                            x       y       z     vdW  Elec       q    Type
REMARK                         _______ _______ _______ _____ _____    ______ ____
ROOT
ATOM      1  C   UNL     1      -1.046  13.410  21.798  0.00  0.00    +0.000 C 
ATOM      2  N   UNL     1       0.061  13.706  20.896  0.00  0.00    +0.000 N 
ATOM      3  C   UNL     1       0.155  13.189  19.602  0.00  0.00    +0.000 A 
ATOM      4  N   UNL     1      -0.917  12.476  19.074  0.00  0.00    +0.000 N 
ATOM      5  N   UNL     1      -2.236  12.758  19.319  0.00  0.00    +0.000 NA
ATOM      6  C   UNL     1      -2.952  11.820  18.787  0.00  0.00    +0.000 C 
ATOM      7  C   UNL     1      -2.185  10.804  17.996  0.00  0.00    +0.000 C 
ATOM      8  C   UNL     1      -0.756  11.343  18.162  0.00  0.00    +0.000 C 
ATOM      9  N   UNL     1       1.239  13.351  18.887  0.00  0.00    +0.000 NA
ATOM     10  C   UNL     1       2.314  14.083  19.411  0.00  0.00    +0.000 A 
ATOM     11  C   UNL     1       3.479  14.234  18.656  0.00  0.00    +0.000 A 
ATOM     12  C   UNL     1       4.581  14.946  19.160  0.00  0.00    +0.000 A 
ATOM     13  C   UNL     1       4.520  15.521  20.428  0.00  0.00    +0.000 A 
ATOM     14  C   UNL     1       3.364  15.389  21.185  0.00  0.00    +0.000 A 
ATOM     15  C   UNL     1       2.275  14.673  20.669  0.00  0.00    +0.000 A 
ATOM     16  C   UNL     1       1.059  14.494  21.460  0.00  0.00    +0.000 A 
ATOM     17  O   UNL     1       0.984  15.012  22.572  0.00  0.00    +0.000 OA
ENDROOT
BRANCH   8  18
ATOM     18  C   UNL     1       0.174  10.273  18.717  0.00  0.00    +0.000 A 
ATOM     19  C   UNL     1       1.012   9.559  17.845  0.00  0.00    +0.000 A 
ATOM     20  C   UNL     1       1.836   8.536  18.322  0.00  0.00    +0.000 A 
ATOM     21  C   UNL     1       1.836   8.214  19.678  0.00  0.00    +0.000 A 
ATOM     22  C   UNL     1       1.028   8.931  20.556  0.00  0.00    +0.000 A 
ATOM     23 CL   UNL     1       1.024   8.534  22.232  0.00  0.00    +0.000 Cl
ATOM     24  C   UNL     1       0.208   9.959  20.088  0.00  0.00    +0.000 A 
ENDBRANCH   8  18
BRANCH   6  25
ATOM     25  C   UNL     1      -4.414  11.724  19.007  0.00  0.00    +0.000 A 
ATOM     26  C   UNL     1      -4.971  12.378  20.116  0.00  0.00    +0.000 A 
ATOM     27  C   UNL     1      -6.329  12.236  20.405  0.00  0.00    +0.000 A 
ATOM     28  C   UNL     1      -7.132  11.441  19.593  0.00  0.00    +0.000 A 
ATOM     29  C   UNL     1      -6.583  10.794  18.484  0.00  0.00    +0.000 A 
ATOM     30  C   UNL     1      -5.225  10.936  18.188  0.00  0.00    +0.000 A 
ENDBRANCH   6  25
TORSDOF 2
ENDMDL
MODEL 8
REMARK VINA RESULT:      -7.5      6.409     11.680
REMARK  Name = 
REMARK  3 active torsions:
REMARK  status: ('A' for Active; 'I' for Inactive)
REMARK    1  A    between atoms: C_1  and  N_2
REMARK    2  A    between atoms: C_6  and  C_7
REMARK    3  A    between atoms: C_14  and  C_15
REMARK                            x       y       z     vdW  Elec       q    Type
REMARK                         _______ _______ _______ _____ _____    ______ ____
ROOT
ATOM      1  C   UNL     1      -0.494   9.026  22.307  0.00  0.00    +0.000 C 
ATOM      2  N   UNL     1       0.381   9.082  21.141  0.00  0.00    +0.000 N 
ATOM      3  C   UNL     1       0.432  10.174  20.272  0.00  0.00    +0.000 A 
ATOM      4  N   UNL     1      -0.267  11.334  20.594  0.00  0.00    +0.000 N 
ATOM      5  N   UNL     1      -0.429  11.818  21.867  0.00  0.00    +0.000 NA
ATOM      6  C   UNL     1      -1.239  12.825  21.814  0.00  0.00    +0.000 C 
ATOM      7  C   UNL     1      -1.661  13.230  20.433  0.00  0.00    +0.000 C 
ATOM      8  C   UNL     1      -0.895  12.197  19.593  0.00  0.00    +0.000 C 
ATOM      9  N   UNL     1       1.110  10.117  19.154  0.00  0.00    +0.000 NA
ATOM     10  C   UNL     1       1.827   8.955  18.836  0.00  0.00    +0.000 A 
ATOM     11  C   UNL     1       2.531   8.887  17.631  0.00  0.00    +0.000 A 
ATOM     12  C   UNL     1       3.244   7.731  17.274  0.00  0.00    +0.000 A 
ATOM     13  C   UNL     1       3.263   6.631  18.128  0.00  0.00    +0.000 A 
ATOM     14  C   UNL     1       2.578   6.688  19.335  0.00  0.00    +0.000 A 
ATOM     15  C   UNL     1       1.869   7.848  19.674  0.00  0.00    +0.000 A 
ATOM     16  C   UNL     1       1.114   7.920  20.924  0.00  0.00    +0.000 A 
ATOM     17  O   UNL     1       1.139   6.964  21.697  0.00  0.00    +0.000 OA
ENDROOT
BRANCH   8  18
ATOM     18  C   UNL     1      -1.834  11.434  18.670  0.00  0.00    +0.000 A 
ATOM     19  C   UNL     1      -1.304  10.623  17.654  0.00  0.00    +0.000 A 
ATOM     20  C   UNL     1      -2.146   9.954  16.760  0.00  0.00    +0.000 A 
ATOM     21  C   UNL     1      -3.529  10.086  16.871  0.00  0.00    +0.000 A 
ATOM     22  C   UNL     1      -4.067  10.868  17.889  0.00  0.00    +0.000 A 
ATOM     23 CL   UNL     1      -5.775  11.035  18.027  0.00  0.00    +0.000 Cl
ATOM     24  C   UNL     1      -3.233  11.532  18.790  0.00  0.00    +0.000 A 
ENDBRANCH   8  18
BRANCH   6  25
ATOM     25  C   UNL     1      -1.764  13.479  23.035  0.00  0.00    +0.000 A 
ATOM     26  C   UNL     1      -3.035  13.115  23.499  0.00  0.00    +0.000 A 
ATOM     27  C   UNL     1      -3.599  13.774  24.593  0.00  0.00    +0.000 A 
ATOM     28  C   UNL     1      -2.896  14.797  25.224  0.00  0.00    +0.000 A 
ATOM     29  C   UNL     1      -1.627  15.158  24.769  0.00  0.00    +0.000 A 
ATOM     30  C   UNL     1      -1.057  14.499  23.676  0.00  0.00    +0.000 A 
ENDBRANCH   6  25
TORSDOF 2
ENDMDL
MODEL 9
REMARK VINA RESULT:      -7.5      7.440     11.687
REMARK  Name = 
REMARK  3 active torsions:
REMARK  status: ('A' for Active; 'I' for Inactive)
REMARK    1  A    between atoms: C_1  and  N_2
REMARK    2  A    between atoms: C_6  and  C_7
REMARK    3  A    between atoms: C_14  and  C_15
REMARK                            x       y       z     vdW  Elec       q    Type
REMARK                         _______ _______ _______ _____ _____    ______ ____
ROOT
ATOM      1  C   UNL     1      -0.078  13.658  22.157  0.00  0.00    +0.000 C 
ATOM      2  N   UNL     1       0.833  13.898  21.045  0.00  0.00    +0.000 N 
ATOM      3  C   UNL     1       0.599  13.436  19.747  0.00  0.00    +0.000 A 
ATOM      4  N   UNL     1      -0.623  12.844  19.445  0.00  0.00    +0.000 N 
ATOM      5  N   UNL     1      -1.827  13.228  19.978  0.00  0.00    +0.000 NA
ATOM      6  C   UNL     1      -2.726  12.383  19.589  0.00  0.00    +0.000 C 
ATOM      7  C   UNL     1      -2.246  11.342  18.624  0.00  0.00    +0.000 C 
ATOM      8  C   UNL     1      -0.769  11.746  18.491  0.00  0.00    +0.000 C 
ATOM      9  N   UNL     1       1.516  13.536  18.819  0.00  0.00    +0.000 NA
ATOM     10  C   UNL     1       2.743  14.146  19.117  0.00  0.00    +0.000 A 
ATOM     11  C   UNL     1       3.729  14.230  18.132  0.00  0.00    +0.000 A 
ATOM     12  C   UNL     1       4.975  14.819  18.404  0.00  0.00    +0.000 A 
ATOM     13  C   UNL     1       5.242  15.337  19.670  0.00  0.00    +0.000 A 
ATOM     14  C   UNL     1       4.267  15.271  20.656  0.00  0.00    +0.000 A 
ATOM     15  C   UNL     1       3.030  14.677  20.369  0.00  0.00    +0.000 A 
ATOM     16  C   UNL     1       1.999  14.569  21.400  0.00  0.00    +0.000 A 
ATOM     17  O   UNL     1       2.213  15.039  22.515  0.00  0.00    +0.000 OA
ENDROOT
BRANCH   8  18
ATOM     18  C   UNL     1       0.151  10.574  18.802  0.00  0.00    +0.000 A 
ATOM     19  C   UNL     1       0.904   9.988  17.771  0.00  0.00    +0.000 A 
ATOM     20  C   UNL     1       1.716   8.878  18.021  0.00  0.00    +0.000 A 
ATOM     21  C   UNL     1       1.789   8.340  19.305  0.00  0.00    +0.000 A 
ATOM     22  C   UNL     1       1.067   8.927  20.339  0.00  0.00    +0.000 A 
ATOM     23 CL   UNL     1       1.153   8.263  21.926  0.00  0.00    +0.000 Cl
ATOM     24  C   UNL     1       0.260  10.040  20.099  0.00  0.00    +0.000 A 
ENDBRANCH   8  18
BRANCH   6  25
ATOM     25  C   UNL     1      -4.110  12.405  20.119  0.00  0.00    +0.000 A 
ATOM     26  C   UNL     1      -5.168  12.118  19.246  0.00  0.00    +0.000 A 
ATOM     27  C   UNL     1      -6.489  12.217  19.687  0.00  0.00    +0.000 A 
ATOM     28  C   UNL     1      -6.755  12.603  20.998  0.00  0.00    +0.000 A 
ATOM     29  C   UNL     1      -5.704  12.883  21.872  0.00  0.00    +0.000 A 
ATOM     30  C   UNL     1      -4.380  12.782  21.436  0.00  0.00    +0.000 A 
ENDBRANCH   6  25
TORSDOF 2
ENDMDL
