MODEL 1
REMARK VINA RESULT:      -8.0      0.000      0.000
REMARK  Name = 
REMARK  7 active torsions:
REMARK  status: ('A' for Active; 'I' for Inactive)
REMARK    1  A    between atoms: C_1  and  C_2
REMARK    2  A    between atoms: N_6  and  C_7
REMARK    3  A    between atoms: C_10  and  O_11
REMARK    4  A    between atoms: C_12  and  O_13
REMARK    5  A    between atoms: C_14  and  O_15
REMARK    6  A    between atoms: C_18  and  C_19
REMARK    7  A    between atoms: C_26  and  O_27
REMARK                            x       y       z     vdW  Elec       q    Type
REMARK                         _______ _______ _______ _____ _____    ______ ____
ROOT
ATOM      1  C   UNL     1       1.731   4.360  20.856  0.00  0.00    +0.000 C 
ATOM      2  C   UNL     1       2.153   5.516  19.982  0.00  0.00    +0.000 A 
ATOM      3  C   UNL     1       1.713   6.852  20.168  0.00  0.00    +0.000 A 
ATOM      4  C   UNL     1       0.927   7.218  21.275  0.00  0.00    +0.000 A 
ATOM      5  C   UNL     1       0.396   8.490  21.387  0.00  0.00    +0.000 A 
ATOM      6  N   UNL     1       0.609   9.392  20.418  0.00  0.00    +0.000 N 
ATOM      7  C   UNL     1       1.453   9.121  19.399  0.00  0.00    +0.000 A 
ATOM      8  C   UNL     1       2.047   7.861  19.224  0.00  0.00    +0.000 A 
ATOM      9  C   UNL     1       2.927   7.577  18.130  0.00  0.00    +0.000 A 
ATOM     10  C   UNL     1       3.350   8.623  17.125  0.00  0.00    +0.000 C 
ATOM     11  C   UNL     1       3.440   6.257  18.005  0.00  0.00    +0.000 A 
ATOM     12  C   UNL     1       3.031   5.284  18.908  0.00  0.00    +0.000 A 
ATOM     13  N   UNL     1       3.646   4.108  18.535  0.00  0.00    +0.000 N 
ATOM     14  C   UNL     1       4.471   4.287  17.460  0.00  0.00    +0.000 A 
ATOM     15  C   UNL     1       5.300   3.371  16.802  0.00  0.00    +0.000 A 
ATOM     16  C   UNL     1       6.053   3.832  15.720  0.00  0.00    +0.000 A 
ATOM     17  C   UNL     1       5.960   5.159  15.326  0.00  0.00    +0.000 A 
ATOM     18  C   UNL     1       5.121   6.061  15.983  0.00  0.00    +0.000 A 
ATOM     19  C   UNL     1       4.361   5.624  17.091  0.00  0.00    +0.000 A 
ATOM     20  H   UNL     1       3.525   3.230  19.015  0.00  0.00    +0.000 HD
ENDROOT
BRANCH   6  21
ATOM     21  C   UNL     1      -0.202  10.635  20.391  0.00  0.00    +0.000 C 
ATOM     22  O   UNL     1      -1.186  10.487  19.370  0.00  0.00    +0.000 OA
ATOM     23  C   UNL     1      -2.025  11.640  19.254  0.00  0.00    +0.000 C 
ATOM     24  C   UNL     1      -1.173  12.846  18.867  0.00  0.00    +0.000 C 
ATOM     25  C   UNL     1      -0.152  13.109  19.977  0.00  0.00    +0.000 C 
ATOM     26  C   UNL     1       0.710  11.865  20.237  0.00  0.00    +0.000 C 
BRANCH  24  27
ATOM     27  O   UNL     1      -0.425  12.543  17.679  0.00  0.00    +0.000 OA
ATOM     28  H   UNL     1      -0.411  11.572  17.565  0.00  0.00    +0.000 HD
ENDBRANCH  24  27
BRANCH  25  29
ATOM     29  O   UNL     1       0.718  14.188  19.628  0.00  0.00    +0.000 OA
ATOM     30  H   UNL     1       0.162  14.884  19.215  0.00  0.00    +0.000 HD
ENDBRANCH  25  29
BRANCH  26  31
ATOM     31  O   UNL     1       1.468  12.041  21.445  0.00  0.00    +0.000 OA
ATOM     32  H   UNL     1       1.193  11.326  22.059  0.00  0.00    +0.000 HD
ENDBRANCH  26  31
ENDBRANCH   6  21
BRANCH  17  33
ATOM     33  O   UNL     1       6.687   5.637  14.274  0.00  0.00    +0.000 OA
ATOM     34  H   UNL     1       6.253   5.371  13.447  0.00  0.00    +0.000 HD
ENDBRANCH  17  33
TORSDOF 5
ENDMDL
MODEL 2
REMARK VINA RESULT:      -7.5      0.830      1.065
REMARK  Name = 
REMARK  7 active torsions:
REMARK  status: ('A' for Active; 'I' for Inactive)
REMARK    1  A    between atoms: C_1  and  C_2
REMARK    2  A    between atoms: N_6  and  C_7
REMARK    3  A    between atoms: C_10  and  O_11
REMARK    4  A    between atoms: C_12  and  O_13
REMARK    5  A    between atoms: C_14  and  O_15
REMARK    6  A    between atoms: C_18  and  C_19
REMARK    7  A    between atoms: C_26  and  O_27
REMARK                            x       y       z     vdW  Elec       q    Type
REMARK                         _______ _______ _______ _____ _____    ______ ____
ROOT
ATOM      1  C   UNL     1       1.702   4.230  20.911  0.00  0.00    +0.000 C 
ATOM      2  C   UNL     1       2.120   5.412  20.070  0.00  0.00    +0.000 A 
ATOM      3  C   UNL     1       1.676   6.741  20.293  0.00  0.00    +0.000 A 
ATOM      4  C   UNL     1       0.887   7.073  21.409  0.00  0.00    +0.000 A 
ATOM      5  C   UNL     1       0.352   8.340  21.555  0.00  0.00    +0.000 A 
ATOM      6  N   UNL     1       0.562   9.269  20.613  0.00  0.00    +0.000 N 
ATOM      7  C   UNL     1       1.407   9.029  19.587  0.00  0.00    +0.000 A 
ATOM      8  C   UNL     1       2.007   7.776  19.378  0.00  0.00    +0.000 A 
ATOM      9  C   UNL     1       2.888   7.526  18.277  0.00  0.00    +0.000 A 
ATOM     10  C   UNL     1       3.308   8.601  17.302  0.00  0.00    +0.000 C 
ATOM     11  C   UNL     1       3.406   6.212  18.116  0.00  0.00    +0.000 A 
ATOM     12  C   UNL     1       3.000   5.213  18.992  0.00  0.00    +0.000 A 
ATOM     13  N   UNL     1       3.620   4.050  18.586  0.00  0.00    +0.000 N 
ATOM     14  C   UNL     1       4.445   4.262  17.518  0.00  0.00    +0.000 A 
ATOM     15  C   UNL     1       5.277   3.367  16.835  0.00  0.00    +0.000 A 
ATOM     16  C   UNL     1       6.029   3.861  15.767  0.00  0.00    +0.000 A 
ATOM     17  C   UNL     1       5.933   5.198  15.409  0.00  0.00    +0.000 A 
ATOM     18  C   UNL     1       5.089   6.078  16.090  0.00  0.00    +0.000 A 
ATOM     19  C   UNL     1       4.330   5.608  17.185  0.00  0.00    +0.000 A 
ATOM     20  H   UNL     1       3.502   3.159  19.041  0.00  0.00    +0.000 HD
ENDROOT
BRANCH   6  21
ATOM     21  C   UNL     1      -0.253  10.509  20.620  0.00  0.00    +0.000 C 
ATOM     22  O   UNL     1      -0.229  11.050  19.300  0.00  0.00    +0.000 OA
ATOM     23  C   UNL     1      -0.986  12.260  19.196  0.00  0.00    +0.000 C 
ATOM     24  C   UNL     1      -0.373  13.316  20.111  0.00  0.00    +0.000 C 
ATOM     25  C   UNL     1      -0.455  12.826  21.559  0.00  0.00    +0.000 C 
ATOM     26  C   UNL     1       0.238  11.466  21.719  0.00  0.00    +0.000 C 
BRANCH  24  27
ATOM     27  O   UNL     1       1.021  13.468  19.803  0.00  0.00    +0.000 OA
ATOM     28  H   UNL     1       1.113  13.553  18.834  0.00  0.00    +0.000 HD
ENDBRANCH  24  27
BRANCH  25  29
ATOM     29  O   UNL     1       0.170  13.754  22.450  0.00  0.00    +0.000 OA
ATOM     30  H   UNL     1      -0.410  14.543  22.498  0.00  0.00    +0.000 HD
ENDBRANCH  25  29
BRANCH  26  31
ATOM     31  O   UNL     1      -0.077  10.906  23.004  0.00  0.00    +0.000 OA
ATOM     32  H   UNL     1       0.166  11.581  23.675  0.00  0.00    +0.000 HD
ENDBRANCH  26  31
ENDBRANCH   6  21
BRANCH  17  33
ATOM     33  O   UNL     1       6.659   5.707  14.372  0.00  0.00    +0.000 OA
ATOM     34  H   UNL     1       6.749   5.024  13.688  0.00  0.00    +0.000 HD
ENDBRANCH  17  33
TORSDOF 5
ENDMDL
MODEL 3
REMARK VINA RESULT:      -7.3      0.930      1.204
REMARK  Name = 
REMARK  7 active torsions:
REMARK  status: ('A' for Active; 'I' for Inactive)
REMARK    1  A    between atoms: C_1  and  C_2
REMARK    2  A    between atoms: N_6  and  C_7
REMARK    3  A    between atoms: C_10  and  O_11
REMARK    4  A    between atoms: C_12  and  O_13
REMARK    5  A    between atoms: C_14  and  O_15
REMARK    6  A    between atoms: C_18  and  C_19
REMARK    7  A    between atoms: C_26  and  O_27
REMARK                            x       y       z     vdW  Elec       q    Type
REMARK                         _______ _______ _______ _____ _____    ______ ____
ROOT
ATOM      1  C   UNL     1       1.638   4.480  20.789  0.00  0.00    +0.000 C 
ATOM      2  C   UNL     1       2.156   5.594  19.912  0.00  0.00    +0.000 A 
ATOM      3  C   UNL     1       1.821   6.962  20.086  0.00  0.00    +0.000 A 
ATOM      4  C   UNL     1       1.056   7.395  21.183  0.00  0.00    +0.000 A 
ATOM      5  C   UNL     1       0.625   8.706  21.282  0.00  0.00    +0.000 A 
ATOM      6  N   UNL     1       0.916   9.582  20.310  0.00  0.00    +0.000 N 
ATOM      7  C   UNL     1       1.745   9.239  19.301  0.00  0.00    +0.000 A 
ATOM      8  C   UNL     1       2.240   7.934  19.139  0.00  0.00    +0.000 A 
ATOM      9  C   UNL     1       3.105   7.575  18.054  0.00  0.00    +0.000 A 
ATOM     10  C   UNL     1       3.617   8.578  17.047  0.00  0.00    +0.000 C 
ATOM     11  C   UNL     1       3.514   6.219  17.942  0.00  0.00    +0.000 A 
ATOM     12  C   UNL     1       3.022   5.287  18.848  0.00  0.00    +0.000 A 
ATOM     13  N   UNL     1       3.547   4.064  18.487  0.00  0.00    +0.000 N 
ATOM     14  C   UNL     1       4.393   4.171  17.419  0.00  0.00    +0.000 A 
ATOM     15  C   UNL     1       5.153   3.188  16.775  0.00  0.00    +0.000 A 
ATOM     16  C   UNL     1       5.949   3.582  15.696  0.00  0.00    +0.000 A 
ATOM     17  C   UNL     1       5.964   4.909  15.293  0.00  0.00    +0.000 A 
ATOM     18  C   UNL     1       5.192   5.878  15.937  0.00  0.00    +0.000 A 
ATOM     19  C   UNL     1       4.391   5.510  17.041  0.00  0.00    +0.000 A 
ATOM     20  H   UNL     1       3.354   3.202  18.971  0.00  0.00    +0.000 HD
ENDROOT
BRANCH   6  21
ATOM     21  C   UNL     1       0.205  10.884  20.268  0.00  0.00    +0.000 C 
ATOM     22  O   UNL     1      -1.035  10.722  20.954  0.00  0.00    +0.000 OA
ATOM     23  C   UNL     1      -1.808  11.926  20.968  0.00  0.00    +0.000 C 
ATOM     24  C   UNL     1      -2.152  12.319  19.534  0.00  0.00    +0.000 C 
ATOM     25  C   UNL     1      -0.854  12.596  18.771  0.00  0.00    +0.000 C 
ATOM     26  C   UNL     1       0.081  11.378  18.817  0.00  0.00    +0.000 C 
BRANCH  24  27
ATOM     27  O   UNL     1      -2.794  11.217  18.874  0.00  0.00    +0.000 OA
ATOM     28  H   UNL     1      -3.290  10.707  19.544  0.00  0.00    +0.000 HD
ENDBRANCH  24  27
BRANCH  25  29
ATOM     29  O   UNL     1      -1.121  12.902  17.400  0.00  0.00    +0.000 OA
ATOM     30  H   UNL     1      -1.253  13.872  17.342  0.00  0.00    +0.000 HD
ENDBRANCH  25  29
BRANCH  26  31
ATOM     31  O   UNL     1       1.383  11.744  18.333  0.00  0.00    +0.000 OA
ATOM     32  H   UNL     1       1.457  12.719  18.428  0.00  0.00    +0.000 HD
ENDBRANCH  26  31
ENDBRANCH   6  21
BRANCH  17  33
ATOM     33  O   UNL     1       6.735   5.321  14.245  0.00  0.00    +0.000 OA
ATOM     34  H   UNL     1       7.145   6.171  14.474  0.00  0.00    +0.000 HD
ENDBRANCH  17  33
TORSDOF 5
ENDMDL
MODEL 4
REMARK VINA RESULT:      -7.2      3.206      8.940
REMARK  Name = 
REMARK  7 active torsions:
REMARK  status: ('A' for Active; 'I' for Inactive)
REMARK    1  A    between atoms: C_1  and  C_2
REMARK    2  A    between atoms: N_6  and  C_7
REMARK    3  A    between atoms: C_10  and  O_11
REMARK    4  A    between atoms: C_12  and  O_13
REMARK    5  A    between atoms: C_14  and  O_15
REMARK    6  A    between atoms: C_18  and  C_19
REMARK    7  A    between atoms: C_26  and  O_27
REMARK                            x       y       z     vdW  Elec       q    Type
REMARK                         _______ _______ _______ _____ _____    ______ ____
ROOT
ATOM      1  C   UNL     1       2.148  10.708  17.557  0.00  0.00    +0.000 C 
ATOM      2  C   UNL     1       1.590  10.100  18.821  0.00  0.00    +0.000 A 
ATOM      3  C   UNL     1       1.807   8.754  19.216  0.00  0.00    +0.000 A 
ATOM      4  C   UNL     1       2.672   7.910  18.498  0.00  0.00    +0.000 A 
ATOM      5  C   UNL     1       2.783   6.567  18.810  0.00  0.00    +0.000 A 
ATOM      6  N   UNL     1       2.042   6.045  19.797  0.00  0.00    +0.000 N 
ATOM      7  C   UNL     1       1.289   6.841  20.587  0.00  0.00    +0.000 A 
ATOM      8  C   UNL     1       1.138   8.217  20.349  0.00  0.00    +0.000 A 
ATOM      9  C   UNL     1       0.322   9.051  21.181  0.00  0.00    +0.000 A 
ATOM     10  C   UNL     1      -0.374   8.541  22.421  0.00  0.00    +0.000 C 
ATOM     11  C   UNL     1       0.187  10.422  20.831  0.00  0.00    +0.000 A 
ATOM     12  C   UNL     1       0.800  10.889  19.675  0.00  0.00    +0.000 A 
ATOM     13  N   UNL     1       0.477  12.225  19.564  0.00  0.00    +0.000 N 
ATOM     14  C   UNL     1      -0.277  12.654  20.620  0.00  0.00    +0.000 A 
ATOM     15  C   UNL     1      -0.774  13.930  20.908  0.00  0.00    +0.000 A 
ATOM     16  C   UNL     1      -1.521  14.091  22.077  0.00  0.00    +0.000 A 
ATOM     17  C   UNL     1      -1.754  13.004  22.906  0.00  0.00    +0.000 A 
ATOM     18  C   UNL     1      -1.263  11.733  22.602  0.00  0.00    +0.000 A 
ATOM     19  C   UNL     1      -0.490  11.546  21.434  0.00  0.00    +0.000 A 
ATOM     20  H   UNL     1       0.785  12.819  18.811  0.00  0.00    +0.000 HD
ENDROOT
BRANCH   6  21
ATOM     21  C   UNL     1       1.936   4.570  19.926  0.00  0.00    +0.000 C 
ATOM     22  O   UNL     1       2.831   4.160  20.958  0.00  0.00    +0.000 OA
ATOM     23  C   UNL     1       2.812   2.745  21.162  0.00  0.00    +0.000 C 
ATOM     24  C   UNL     1       3.271   2.047  19.885  0.00  0.00    +0.000 C 
ATOM     25  C   UNL     1       2.291   2.378  18.757  0.00  0.00    +0.000 C 
ATOM     26  C   UNL     1       2.171   3.897  18.562  0.00  0.00    +0.000 C 
BRANCH  24  27
ATOM     27  O   UNL     1       4.550   2.565  19.488  0.00  0.00    +0.000 OA
ATOM     28  H   UNL     1       5.177   2.430  20.226  0.00  0.00    +0.000 HD
ENDBRANCH  24  27
BRANCH  25  29
ATOM     29  O   UNL     1       2.718   1.802  17.521  0.00  0.00    +0.000 OA
ATOM     30  H   UNL     1       2.438   0.862  17.529  0.00  0.00    +0.000 HD
ENDBRANCH  25  29
BRANCH  26  31
ATOM     31  O   UNL     1       1.063   4.192  17.696  0.00  0.00    +0.000 OA
ATOM     32  H   UNL     1       0.264   4.239  18.265  0.00  0.00    +0.000 HD
ENDBRANCH  26  31
ENDBRANCH   6  21
BRANCH  17  33
ATOM     33  O   UNL     1      -2.478  13.133  24.057  0.00  0.00    +0.000 OA
ATOM     34  H   UNL     1      -3.165  12.448  24.072  0.00  0.00    +0.000 HD
ENDBRANCH  17  33
TORSDOF 5
ENDMDL
MODEL 5
REMARK VINA RESULT:      -7.1      3.227      8.882
REMARK  Name = 
REMARK  7 active torsions:
REMARK  status: ('A' for Active; 'I' for Inactive)
REMARK    1  A    between atoms: C_1  and  C_2
REMARK    2  A    between atoms: N_6  and  C_7
REMARK    3  A    between atoms: C_10  and  O_11
REMARK    4  A    between atoms: C_12  and  O_13
REMARK    5  A    between atoms: C_14  and  O_15
REMARK    6  A    between atoms: C_18  and  C_19
REMARK    7  A    between atoms: C_26  and  O_27
REMARK                            x       y       z     vdW  Elec       q    Type
REMARK                         _______ _______ _______ _____ _____    ______ ____
ROOT
ATOM      1  C   UNL     1       1.835  10.423  17.448  0.00  0.00    +0.000 C 
ATOM      2  C   UNL     1       1.426   9.818  18.769  0.00  0.00    +0.000 A 
ATOM      3  C   UNL     1       1.862   8.548  19.229  0.00  0.00    +0.000 A 
ATOM      4  C   UNL     1       2.818   7.800  18.519  0.00  0.00    +0.000 A 
ATOM      5  C   UNL     1       3.145   6.512  18.901  0.00  0.00    +0.000 A 
ATOM      6  N   UNL     1       2.532   5.947  19.950  0.00  0.00    +0.000 N 
ATOM      7  C   UNL     1       1.697   6.669  20.729  0.00  0.00    +0.000 A 
ATOM      8  C   UNL     1       1.327   7.989  20.421  0.00  0.00    +0.000 A 
ATOM      9  C   UNL     1       0.426   8.740  21.242  0.00  0.00    +0.000 A 
ATOM     10  C   UNL     1      -0.134   8.211  22.542  0.00  0.00    +0.000 C 
ATOM     11  C   UNL     1       0.069  10.051  20.823  0.00  0.00    +0.000 A 
ATOM     12  C   UNL     1       0.558  10.531  19.615  0.00  0.00    +0.000 A 
ATOM     13  N   UNL     1       0.031  11.794  19.444  0.00  0.00    +0.000 N 
ATOM     14  C   UNL     1      -0.739  12.170  20.509  0.00  0.00    +0.000 A 
ATOM     15  C   UNL     1      -1.414  13.372  20.748  0.00  0.00    +0.000 A 
ATOM     16  C   UNL     1      -2.131  13.492  21.941  0.00  0.00    +0.000 A 
ATOM     17  C   UNL     1      -2.162  12.436  22.840  0.00  0.00    +0.000 A 
ATOM     18  C   UNL     1      -1.494  11.237  22.585  0.00  0.00    +0.000 A 
ATOM     19  C   UNL     1      -0.748  11.096  21.393  0.00  0.00    +0.000 A 
ATOM     20  H   UNL     1       0.215  12.379  18.645  0.00  0.00    +0.000 HD
ENDROOT
BRANCH   6  21
ATOM     21  C   UNL     1       2.658   4.484  20.166  0.00  0.00    +0.000 C 
ATOM     22  O   UNL     1       3.964   4.096  19.745  0.00  0.00    +0.000 OA
ATOM     23  C   UNL     1       4.192   2.693  19.906  0.00  0.00    +0.000 C 
ATOM     24  C   UNL     1       3.205   1.920  19.035  0.00  0.00    +0.000 C 
ATOM     25  C   UNL     1       1.781   2.229  19.505  0.00  0.00    +0.000 C 
ATOM     26  C   UNL     1       1.506   3.739  19.470  0.00  0.00    +0.000 C 
BRANCH  24  27
ATOM     27  O   UNL     1       3.302   2.378  17.677  0.00  0.00    +0.000 OA
ATOM     28  H   UNL     1       2.786   3.204  17.595  0.00  0.00    +0.000 HD
ENDBRANCH  24  27
BRANCH  25  29
ATOM     29  O   UNL     1       0.816   1.581  18.672  0.00  0.00    +0.000 OA
ATOM     30  H   UNL     1       1.138   0.668  18.514  0.00  0.00    +0.000 HD
ENDBRANCH  25  29
BRANCH  26  31
ATOM     31  O   UNL     1       0.278   4.028  20.157  0.00  0.00    +0.000 OA
ATOM     32  H   UNL     1      -0.405   3.431  19.779  0.00  0.00    +0.000 HD
ENDBRANCH  26  31
ENDBRANCH   6  21
BRANCH  17  33
ATOM     33  O   UNL     1      -2.852  12.528  24.015  0.00  0.00    +0.000 OA
ATOM     34  H   UNL     1      -2.392  12.002  24.688  0.00  0.00    +0.000 HD
ENDBRANCH  17  33
TORSDOF 5
ENDMDL
MODEL 6
REMARK VINA RESULT:      -7.1      1.140      1.923
REMARK  Name = 
REMARK  7 active torsions:
REMARK  status: ('A' for Active; 'I' for Inactive)
REMARK    1  A    between atoms: C_1  and  C_2
REMARK    2  A    between atoms: N_6  and  C_7
REMARK    3  A    between atoms: C_10  and  O_11
REMARK    4  A    between atoms: C_12  and  O_13
REMARK    5  A    between atoms: C_14  and  O_15
REMARK    6  A    between atoms: C_18  and  C_19
REMARK    7  A    between atoms: C_26  and  O_27
REMARK                            x       y       z     vdW  Elec       q    Type
REMARK                         _______ _______ _______ _____ _____    ______ ____
ROOT
ATOM      1  C   UNL     1       1.391   4.650  20.878  0.00  0.00    +0.000 C 
ATOM      2  C   UNL     1       1.953   5.766  20.033  0.00  0.00    +0.000 A 
ATOM      3  C   UNL     1       1.663   7.140  20.238  0.00  0.00    +0.000 A 
ATOM      4  C   UNL     1       0.905   7.573  21.340  0.00  0.00    +0.000 A 
ATOM      5  C   UNL     1       0.518   8.894  21.467  0.00  0.00    +0.000 A 
ATOM      6  N   UNL     1       0.846   9.783  20.519  0.00  0.00    +0.000 N 
ATOM      7  C   UNL     1       1.671   9.436  19.507  0.00  0.00    +0.000 A 
ATOM      8  C   UNL     1       2.123   8.120  19.317  0.00  0.00    +0.000 A 
ATOM      9  C   UNL     1       2.983   7.758  18.230  0.00  0.00    +0.000 A 
ATOM     10  C   UNL     1       3.537   8.767  17.251  0.00  0.00    +0.000 C 
ATOM     11  C   UNL     1       3.347   6.391  18.088  0.00  0.00    +0.000 A 
ATOM     12  C   UNL     1       2.817   5.455  18.967  0.00  0.00    +0.000 A 
ATOM     13  N   UNL     1       3.303   4.224  18.581  0.00  0.00    +0.000 N 
ATOM     14  C   UNL     1       4.160   4.328  17.521  0.00  0.00    +0.000 A 
ATOM     15  C   UNL     1       4.891   3.336  16.858  0.00  0.00    +0.000 A 
ATOM     16  C   UNL     1       5.708   3.728  15.795  0.00  0.00    +0.000 A 
ATOM     17  C   UNL     1       5.771   5.063  15.425  0.00  0.00    +0.000 A 
ATOM     18  C   UNL     1       5.028   6.042  16.087  0.00  0.00    +0.000 A 
ATOM     19  C   UNL     1       4.206   5.675  17.175  0.00  0.00    +0.000 A 
ATOM     20  H   UNL     1       3.077   3.358  19.042  0.00  0.00    +0.000 HD
ENDROOT
BRANCH   6  21
ATOM     21  C   UNL     1       0.180  11.109  20.504  0.00  0.00    +0.000 C 
ATOM     22  O   UNL     1       0.310  11.674  21.807  0.00  0.00    +0.000 OA
ATOM     23  C   UNL     1      -0.307  12.961  21.905  0.00  0.00    +0.000 C 
ATOM     24  C   UNL     1      -1.803  12.822  21.637  0.00  0.00    +0.000 C 
ATOM     25  C   UNL     1      -2.007  12.304  20.211  0.00  0.00    +0.000 C 
ATOM     26  C   UNL     1      -1.267  10.975  19.999  0.00  0.00    +0.000 C 
BRANCH  24  27
ATOM     27  O   UNL     1      -2.360  11.836  22.520  0.00  0.00    +0.000 OA
ATOM     28  H   UNL     1      -2.324  12.187  23.432  0.00  0.00    +0.000 HD
ENDBRANCH  24  27
BRANCH  25  29
ATOM     29  O   UNL     1      -3.394  12.091  19.936  0.00  0.00    +0.000 OA
ATOM     30  H   UNL     1      -3.737  11.492  20.633  0.00  0.00    +0.000 HD
ENDBRANCH  25  29
BRANCH  26  31
ATOM     31  O   UNL     1      -1.248  10.645  18.601  0.00  0.00    +0.000 OA
ATOM     32  H   UNL     1      -0.340  10.331  18.396  0.00  0.00    +0.000 HD
ENDBRANCH  26  31
ENDBRANCH   6  21
BRANCH  17  33
ATOM     33  O   UNL     1       6.564   5.474  14.392  0.00  0.00    +0.000 OA
ATOM     34  H   UNL     1       6.285   6.362  14.118  0.00  0.00    +0.000 HD
ENDBRANCH  17  33
TORSDOF 5
ENDMDL
MODEL 7
REMARK VINA RESULT:      -7.0      3.223      9.064
REMARK  Name = 
REMARK  7 active torsions:
REMARK  status: ('A' for Active; 'I' for Inactive)
REMARK    1  A    between atoms: C_1  and  C_2
REMARK    2  A    between atoms: N_6  and  C_7
REMARK    3  A    between atoms: C_10  and  O_11
REMARK    4  A    between atoms: C_12  and  O_13
REMARK    5  A    between atoms: C_14  and  O_15
REMARK    6  A    between atoms: C_18  and  C_19
REMARK    7  A    between atoms: C_26  and  O_27
REMARK                            x       y       z     vdW  Elec       q    Type
REMARK                         _______ _______ _______ _____ _____    ______ ____
ROOT
ATOM      1  C   UNL     1      -1.163  10.715  17.100  0.00  0.00    +0.000 C 
ATOM      2  C   UNL     1      -0.687  10.460  18.510  0.00  0.00    +0.000 A 
ATOM      3  C   UNL     1       0.353   9.555  18.844  0.00  0.00    +0.000 A 
ATOM      4  C   UNL     1       1.106   8.904  17.851  0.00  0.00    +0.000 A 
ATOM      5  C   UNL     1       2.032   7.930  18.178  0.00  0.00    +0.000 A 
ATOM      6  N   UNL     1       2.207   7.575  19.458  0.00  0.00    +0.000 N 
ATOM      7  C   UNL     1       1.592   8.254  20.451  0.00  0.00    +0.000 A 
ATOM      8  C   UNL     1       0.653   9.269  20.203  0.00  0.00    +0.000 A 
ATOM      9  C   UNL     1      -0.008   9.972  21.262  0.00  0.00    +0.000 A 
ATOM     10  C   UNL     1       0.306   9.740  22.722  0.00  0.00    +0.000 C 
ATOM     11  C   UNL     1      -0.982  10.948  20.916  0.00  0.00    +0.000 A 
ATOM     12  C   UNL     1      -1.296  11.144  19.577  0.00  0.00    +0.000 A 
ATOM     13  N   UNL     1      -2.282  12.107  19.535  0.00  0.00    +0.000 N 
ATOM     14  C   UNL     1      -2.586  12.576  20.782  0.00  0.00    +0.000 A 
ATOM     15  C   UNL     1      -3.490  13.571  21.171  0.00  0.00    +0.000 A 
ATOM     16  C   UNL     1      -3.597  13.858  22.534  0.00  0.00    +0.000 A 
ATOM     17  C   UNL     1      -2.826  13.162  23.453  0.00  0.00    +0.000 A 
ATOM     18  C   UNL     1      -1.937  12.162  23.053  0.00  0.00    +0.000 A 
ATOM     19  C   UNL     1      -1.797  11.863  21.679  0.00  0.00    +0.000 A 
ATOM     20  H   UNL     1      -2.705  12.445  18.685  0.00  0.00    +0.000 HD
ENDROOT
BRANCH   6  21
ATOM     21  C   UNL     1       2.962   6.337  19.773  0.00  0.00    +0.000 C 
ATOM     22  O   UNL     1       4.135   6.328  18.961  0.00  0.00    +0.000 OA
ATOM     23  C   UNL     1       4.939   5.166  19.183  0.00  0.00    +0.000 C 
ATOM     24  C   UNL     1       4.139   3.921  18.807  0.00  0.00    +0.000 C 
ATOM     25  C   UNL     1       2.909   3.829  19.714  0.00  0.00    +0.000 C 
ATOM     26  C   UNL     1       2.057   5.103  19.615  0.00  0.00    +0.000 C 
BRANCH  24  27
ATOM     27  O   UNL     1       3.653   4.050  17.462  0.00  0.00    +0.000 OA
ATOM     28  H   UNL     1       4.380   3.820  16.851  0.00  0.00    +0.000 HD
ENDBRANCH  24  27
BRANCH  25  29
ATOM     29  O   UNL     1       2.089   2.715  19.354  0.00  0.00    +0.000 OA
ATOM     30  H   UNL     1       2.534   1.909  19.691  0.00  0.00    +0.000 HD
ENDBRANCH  25  29
BRANCH  26  31
ATOM     31  O   UNL     1       1.068   5.111  20.657  0.00  0.00    +0.000 OA
ATOM     32  H   UNL     1       0.326   5.671  20.340  0.00  0.00    +0.000 HD
ENDBRANCH  26  31
ENDBRANCH   6  21
BRANCH  17  33
ATOM     33  O   UNL     1      -2.909  13.424  24.790  0.00  0.00    +0.000 OA
ATOM     34  H   UNL     1      -3.715  13.012  25.139  0.00  0.00    +0.000 HD
ENDBRANCH  17  33
TORSDOF 5
ENDMDL
MODEL 8
REMARK VINA RESULT:      -7.0      2.787      8.231
REMARK  Name = 
REMARK  7 active torsions:
REMARK  status: ('A' for Active; 'I' for Inactive)
REMARK    1  A    between atoms: C_1  and  C_2
REMARK    2  A    between atoms: N_6  and  C_7
REMARK    3  A    between atoms: C_10  and  O_11
REMARK    4  A    between atoms: C_12  and  O_13
REMARK    5  A    between atoms: C_14  and  O_15
REMARK    6  A    between atoms: C_18  and  C_19
REMARK    7  A    between atoms: C_26  and  O_27
REMARK                            x       y       z     vdW  Elec       q    Type
REMARK                         _______ _______ _______ _____ _____    ______ ____
ROOT
ATOM      1  C   UNL     1       0.169   9.253  23.201  0.00  0.00    +0.000 C 
ATOM      2  C   UNL     1       0.595   9.532  21.780  0.00  0.00    +0.000 A 
ATOM      3  C   UNL     1       1.020   8.531  20.868  0.00  0.00    +0.000 A 
ATOM      4  C   UNL     1       0.963   7.166  21.199  0.00  0.00    +0.000 A 
ATOM      5  C   UNL     1       1.495   6.204  20.360  0.00  0.00    +0.000 A 
ATOM      6  N   UNL     1       2.098   6.568  19.220  0.00  0.00    +0.000 N 
ATOM      7  C   UNL     1       2.071   7.854  18.808  0.00  0.00    +0.000 A 
ATOM      8  C   UNL     1       1.534   8.888  19.592  0.00  0.00    +0.000 A 
ATOM      9  C   UNL     1       1.527  10.252  19.155  0.00  0.00    +0.000 A 
ATOM     10  C   UNL     1       2.018  10.679  17.791  0.00  0.00    +0.000 C 
ATOM     11  C   UNL     1       1.009  11.238  20.039  0.00  0.00    +0.000 A 
ATOM     12  C   UNL     1       0.584  10.856  21.305  0.00  0.00    +0.000 A 
ATOM     13  N   UNL     1       0.171  12.002  21.951  0.00  0.00    +0.000 N 
ATOM     14  C   UNL     1       0.266  13.100  21.144  0.00  0.00    +0.000 A 
ATOM     15  C   UNL     1      -0.083  14.432  21.396  0.00  0.00    +0.000 A 
ATOM     16  C   UNL     1       0.116  15.364  20.374  0.00  0.00    +0.000 A 
ATOM     17  C   UNL     1       0.650  14.958  19.160  0.00  0.00    +0.000 A 
ATOM     18  C   UNL     1       1.006  13.628  18.925  0.00  0.00    +0.000 A 
ATOM     19  C   UNL     1       0.799  12.663  19.935  0.00  0.00    +0.000 A 
ATOM     20  H   UNL     1      -0.185  12.022  22.893  0.00  0.00    +0.000 HD
ENDROOT
BRANCH   6  21
ATOM     21  C   UNL     1       2.924   5.577  18.486  0.00  0.00    +0.000 C 
ATOM     22  O   UNL     1       2.036   4.695  17.803  0.00  0.00    +0.000 OA
ATOM     23  C   UNL     1       2.734   3.689  17.062  0.00  0.00    +0.000 C 
ATOM     24  C   UNL     1       3.547   2.829  18.025  0.00  0.00    +0.000 C 
ATOM     25  C   UNL     1       4.585   3.712  18.724  0.00  0.00    +0.000 C 
ATOM     26  C   UNL     1       3.910   4.887  19.445  0.00  0.00    +0.000 C 
BRANCH  24  27
ATOM     27  O   UNL     1       2.686   2.310  19.050  0.00  0.00    +0.000 OA
ATOM     28  H   UNL     1       1.907   2.897  19.121  0.00  0.00    +0.000 HD
ENDBRANCH  24  27
BRANCH  25  29
ATOM     29  O   UNL     1       5.327   2.963  19.690  0.00  0.00    +0.000 OA
ATOM     30  H   UNL     1       4.921   2.070  19.736  0.00  0.00    +0.000 HD
ENDBRANCH  25  29
BRANCH  26  31
ATOM     31  O   UNL     1       4.902   5.838  19.863  0.00  0.00    +0.000 OA
ATOM     32  H   UNL     1       4.953   6.522  19.160  0.00  0.00    +0.000 HD
ENDBRANCH  26  31
ENDBRANCH   6  21
BRANCH  17  33
ATOM     33  O   UNL     1       0.852  15.847  18.144  0.00  0.00    +0.000 OA
ATOM     34  H   UNL     1       1.337  15.401  17.431  0.00  0.00    +0.000 HD
ENDBRANCH  17  33
TORSDOF 5
ENDMDL
MODEL 9
REMARK VINA RESULT:      -7.0      3.477      9.224
REMARK  Name = 
REMARK  7 active torsions:
REMARK  status: ('A' for Active; 'I' for Inactive)
REMARK    1  A    between atoms: C_1  and  C_2
REMARK    2  A    between atoms: N_6  and  C_7
REMARK    3  A    between atoms: C_10  and  O_11
REMARK    4  A    between atoms: C_12  and  O_13
REMARK    5  A    between atoms: C_14  and  O_15
REMARK    6  A    between atoms: C_18  and  C_19
REMARK    7  A    between atoms: C_26  and  O_27
REMARK                            x       y       z     vdW  Elec       q    Type
REMARK                         _______ _______ _______ _____ _____    ______ ____
ROOT
ATOM      1  C   UNL     1      -1.498  11.963  17.305  0.00  0.00    +0.000 C 
ATOM      2  C   UNL     1      -1.100  11.453  18.669  0.00  0.00    +0.000 A 
ATOM      3  C   UNL     1      -0.059  10.514  18.892  0.00  0.00    +0.000 A 
ATOM      4  C   UNL     1       0.767  10.073  17.843  0.00  0.00    +0.000 A 
ATOM      5  C   UNL     1       1.695   9.067  18.039  0.00  0.00    +0.000 A 
ATOM      6  N   UNL     1       1.803   8.478  19.239  0.00  0.00    +0.000 N 
ATOM      7  C   UNL     1       1.114   8.950  20.300  0.00  0.00    +0.000 A 
ATOM      8  C   UNL     1       0.166   9.981  20.189  0.00  0.00    +0.000 A 
ATOM      9  C   UNL     1      -0.573  10.463  21.318  0.00  0.00    +0.000 A 
ATOM     10  C   UNL     1      -0.341   9.963  22.725  0.00  0.00    +0.000 C 
ATOM     11  C   UNL     1      -1.549  11.473  21.100  0.00  0.00    +0.000 A 
ATOM     12  C   UNL     1      -1.788  11.915  19.804  0.00  0.00    +0.000 A 
ATOM     13  N   UNL     1      -2.793  12.855  19.882  0.00  0.00    +0.000 N 
ATOM     14  C   UNL     1      -3.182  13.076  21.173  0.00  0.00    +0.000 A 
ATOM     15  C   UNL     1      -4.132  13.968  21.685  0.00  0.00    +0.000 A 
ATOM     16  C   UNL     1      -4.327  13.991  23.068  0.00  0.00    +0.000 A 
ATOM     17  C   UNL     1      -3.595  13.144  23.886  0.00  0.00    +0.000 A 
ATOM     18  C   UNL     1      -2.659  12.250  23.363  0.00  0.00    +0.000 A 
ATOM     19  C   UNL     1      -2.430  12.217  21.969  0.00  0.00    +0.000 A 
ATOM     20  H   UNL     1      -3.174  13.342  19.086  0.00  0.00    +0.000 HD
ENDROOT
BRANCH   6  21
ATOM     21  C   UNL     1       2.569   7.214  19.362  0.00  0.00    +0.000 C 
ATOM     22  O   UNL     1       2.890   6.772  18.045  0.00  0.00    +0.000 OA
ATOM     23  C   UNL     1       3.630   5.547  18.049  0.00  0.00    +0.000 C 
ATOM     24  C   UNL     1       2.781   4.449  18.682  0.00  0.00    +0.000 C 
ATOM     25  C   UNL     1       2.480   4.828  20.134  0.00  0.00    +0.000 C 
ATOM     26  C   UNL     1       1.788   6.196  20.212  0.00  0.00    +0.000 C 
BRANCH  24  27
ATOM     27  O   UNL     1       1.517   4.368  18.004  0.00  0.00    +0.000 OA
ATOM     28  H   UNL     1       1.686   4.136  17.069  0.00  0.00    +0.000 HD
ENDBRANCH  24  27
BRANCH  25  29
ATOM     29  O   UNL     1       1.626   3.860  20.749  0.00  0.00    +0.000 OA
ATOM     30  H   UNL     1       0.771   4.305  20.932  0.00  0.00    +0.000 HD
ENDBRANCH  25  29
BRANCH  26  31
ATOM     31  O   UNL     1       1.756   6.649  21.575  0.00  0.00    +0.000 OA
ATOM     32  H   UNL     1       2.541   6.262  22.021  0.00  0.00    +0.000 HD
ENDBRANCH  26  31
ENDBRANCH   6  21
BRANCH  17  33
ATOM     33  O   UNL     1      -3.763  13.148  25.241  0.00  0.00    +0.000 OA
ATOM     34  H   UNL     1      -3.708  12.235  25.565  0.00  0.00    +0.000 HD
ENDBRANCH  17  33
TORSDOF 5
ENDMDL
