MODEL 1
REMARK VINA RESULT:      -7.4      0.000      0.000
REMARK  Name = 
REMARK  7 active torsions:
REMARK  status: ('A' for Active; 'I' for Inactive)
REMARK    1  A    between atoms: C_1  and  C_2
REMARK    2  A    between atoms: C_2  and  C_3
REMARK    3  A    between atoms: C_2  and  C_4
REMARK    4  A    between atoms: C_7  and  O_8
REMARK    5  A    between atoms: O_8  and  C_9
REMARK    6  A    between atoms: C_12  and  C_13
REMARK    7  A    between atoms: N_15  and  O_16
REMARK                            x       y       z     vdW  Elec       q    Type
REMARK                         _______ _______ _______ _____ _____    ______ ____
ROOT
ATOM      1  C   UNL     1       4.739   5.144  18.739  0.00  0.00    +0.000 A 
ATOM      2  C   UNL     1       4.916   3.810  19.079  0.00  0.00    +0.000 A 
ATOM      3  C   UNL     1       3.926   3.181  19.836  0.00  0.00    +0.000 A 
ATOM      4  C   UNL     1       2.800   3.907  20.232  0.00  0.00    +0.000 A 
ATOM      5  C   UNL     1       2.733   5.247  19.876  0.00  0.00    +0.000 A 
ATOM      6  N   UNL     1       3.685   5.885  19.156  0.00  0.00    +0.000 NA
ENDROOT
BRANCH   4   7
ATOM      7  C   UNL     1       1.688   3.277  20.989  0.00  0.00    +0.000 C 
ATOM      8  N   UNL     1       0.456   3.149  20.391  0.00  0.00    +0.000 N 
ATOM      9  N   UNL     1       1.919   2.864  22.202  0.00  0.00    +0.000 NA
ATOM     10  H   UNL     1       0.466   2.907  19.406  0.00  0.00    +0.000 HD
ATOM     11  H   UNL     1      -0.121   2.513  20.938  0.00  0.00    +0.000 HD
BRANCH   9  12
ATOM     12  O   UNL     1       0.764   2.299  22.768  0.00  0.00    +0.000 OA
ATOM     13  H   UNL     1       1.110   1.914  23.595  0.00  0.00    +0.000 HD
ENDBRANCH   9  12
ENDBRANCH   4   7
BRANCH   1  14
ATOM     14  O   UNL     1       5.703   5.728  17.930  0.00  0.00    +0.000 OA
BRANCH  14  18
ATOM     15  C   UNL     1       6.342   4.241  14.060  0.00  0.00    +0.000 A 
ATOM     16  C   UNL     1       7.367   4.855  14.795  0.00  0.00    +0.000 A 
ATOM     17  C   UNL     1       7.123   5.348  16.084  0.00  0.00    +0.000 A 
ATOM     18  C   UNL     1       5.851   5.246  16.645  0.00  0.00    +0.000 A 
ATOM     19  C   UNL     1       4.833   4.611  15.930  0.00  0.00    +0.000 A 
ATOM     20  C   UNL     1       5.073   4.124  14.646  0.00  0.00    +0.000 A 
BRANCH  15  22
ATOM     21  C   UNL     1       5.296   3.327  11.958  0.00  0.00    +0.000 C 
ATOM     22  C   UNL     1       6.601   3.718  12.659  0.00  0.00    +0.000 C 
ATOM     23  C   UNL     1       7.384   4.739  11.827  0.00  0.00    +0.000 C 
ENDBRANCH  15  22
ENDBRANCH  14  18
ENDBRANCH   1  14
TORSDOF 5
ENDMDL
MODEL 2
REMARK VINA RESULT:      -7.4      0.269      1.107
REMARK  Name = 
REMARK  7 active torsions:
REMARK  status: ('A' for Active; 'I' for Inactive)
REMARK    1  A    between atoms: C_1  and  C_2
REMARK    2  A    between atoms: C_2  and  C_3
REMARK    3  A    between atoms: C_2  and  C_4
REMARK    4  A    between atoms: C_7  and  O_8
REMARK    5  A    between atoms: O_8  and  C_9
REMARK    6  A    between atoms: C_12  and  C_13
REMARK    7  A    between atoms: N_15  and  O_16
REMARK                            x       y       z     vdW  Elec       q    Type
REMARK                         _______ _______ _______ _____ _____    ______ ____
ROOT
ATOM      1  C   UNL     1       4.848   5.272  18.606  0.00  0.00    +0.000 A 
ATOM      2  C   UNL     1       5.108   4.005  19.107  0.00  0.00    +0.000 A 
ATOM      3  C   UNL     1       4.130   3.386  19.888  0.00  0.00    +0.000 A 
ATOM      4  C   UNL     1       2.933   4.058  20.147  0.00  0.00    +0.000 A 
ATOM      5  C   UNL     1       2.782   5.338  19.634  0.00  0.00    +0.000 A 
ATOM      6  N   UNL     1       3.719   5.967  18.887  0.00  0.00    +0.000 NA
ENDROOT
BRANCH   4   7
ATOM      7  C   UNL     1       1.833   3.427  20.923  0.00  0.00    +0.000 C 
ATOM      8  N   UNL     1       0.549   3.481  20.433  0.00  0.00    +0.000 N 
ATOM      9  N   UNL     1       2.125   2.841  22.048  0.00  0.00    +0.000 NA
ATOM     10  H   UNL     1       0.454   3.370  19.430  0.00  0.00    +0.000 HD
ATOM     11  H   UNL     1      -0.037   2.828  20.950  0.00  0.00    +0.000 HD
BRANCH   9  12
ATOM     12  O   UNL     1       0.974   2.304  22.648  0.00  0.00    +0.000 OA
ATOM     13  H   UNL     1       1.345   1.587  23.195  0.00  0.00    +0.000 HD
ENDBRANCH   9  12
ENDBRANCH   4   7
BRANCH   1  14
ATOM     14  O   UNL     1       5.806   5.839  17.778  0.00  0.00    +0.000 OA
BRANCH  14  18
ATOM     15  C   UNL     1       6.201   4.148  13.959  0.00  0.00    +0.000 A 
ATOM     16  C   UNL     1       4.999   4.079  14.678  0.00  0.00    +0.000 A 
ATOM     17  C   UNL     1       4.897   4.648  15.954  0.00  0.00    +0.000 A 
ATOM     18  C   UNL     1       5.999   5.278  16.532  0.00  0.00    +0.000 A 
ATOM     19  C   UNL     1       7.190   5.376  15.810  0.00  0.00    +0.000 A 
ATOM     20  C   UNL     1       7.294   4.805  14.541  0.00  0.00    +0.000 A 
BRANCH  15  22
ATOM     21  C   UNL     1       4.943   3.372  11.919  0.00  0.00    +0.000 C 
ATOM     22  C   UNL     1       6.316   3.521  12.582  0.00  0.00    +0.000 C 
ATOM     23  C   UNL     1       7.269   4.322  11.689  0.00  0.00    +0.000 C 
ENDBRANCH  15  22
ENDBRANCH  14  18
ENDBRANCH   1  14
TORSDOF 5
ENDMDL
MODEL 3
REMARK VINA RESULT:      -7.3      0.763      1.539
REMARK  Name = 
REMARK  7 active torsions:
REMARK  status: ('A' for Active; 'I' for Inactive)
REMARK    1  A    between atoms: C_1  and  C_2
REMARK    2  A    between atoms: C_2  and  C_3
REMARK    3  A    between atoms: C_2  and  C_4
REMARK    4  A    between atoms: C_7  and  O_8
REMARK    5  A    between atoms: O_8  and  C_9
REMARK    6  A    between atoms: C_12  and  C_13
REMARK    7  A    between atoms: N_15  and  O_16
REMARK                            x       y       z     vdW  Elec       q    Type
REMARK                         _______ _______ _______ _____ _____    ______ ____
ROOT
ATOM      1  C   UNL     1       4.855   4.701  18.543  0.00  0.00    +0.000 A 
ATOM      2  C   UNL     1       3.620   5.326  18.445  0.00  0.00    +0.000 A 
ATOM      3  C   UNL     1       2.558   4.820  19.196  0.00  0.00    +0.000 A 
ATOM      4  C   UNL     1       2.766   3.705  20.012  0.00  0.00    +0.000 A 
ATOM      5  C   UNL     1       4.027   3.127  20.014  0.00  0.00    +0.000 A 
ATOM      6  N   UNL     1       5.069   3.588  19.284  0.00  0.00    +0.000 NA
ENDROOT
BRANCH   4   7
ATOM      7  C   UNL     1       1.689   3.158  20.879  0.00  0.00    +0.000 C 
ATOM      8  N   UNL     1       0.397   3.132  20.409  0.00  0.00    +0.000 N 
ATOM      9  N   UNL     1       2.010   2.717  22.061  0.00  0.00    +0.000 NA
ATOM     10  H   UNL     1       0.287   2.898  19.429  0.00  0.00    +0.000 HD
ATOM     11  H   UNL     1      -0.170   2.539  21.012  0.00  0.00    +0.000 HD
BRANCH   9  12
ATOM     12  O   UNL     1       0.877   2.241  22.742  0.00  0.00    +0.000 OA
ATOM     13  H   UNL     1       0.149   2.626  22.222  0.00  0.00    +0.000 HD
ENDBRANCH   9  12
ENDBRANCH   4   7
BRANCH   1  14
ATOM     14  O   UNL     1       5.912   5.262  17.839  0.00  0.00    +0.000 OA
BRANCH  14  18
ATOM     15  C   UNL     1       6.308   4.017  13.853  0.00  0.00    +0.000 A 
ATOM     16  C   UNL     1       5.226   3.613  14.650  0.00  0.00    +0.000 A 
ATOM     17  C   UNL     1       5.123   4.040  15.980  0.00  0.00    +0.000 A 
ATOM     18  C   UNL     1       6.105   4.862  16.533  0.00  0.00    +0.000 A 
ATOM     19  C   UNL     1       7.169   5.290  15.736  0.00  0.00    +0.000 A 
ATOM     20  C   UNL     1       7.276   4.862  14.413  0.00  0.00    +0.000 A 
BRANCH  15  22
ATOM     21  C   UNL     1       5.050   3.312  11.787  0.00  0.00    +0.000 C 
ATOM     22  C   UNL     1       6.428   3.545  12.415  0.00  0.00    +0.000 C 
ATOM     23  C   UNL     1       7.250   4.530  11.579  0.00  0.00    +0.000 C 
ENDBRANCH  15  22
ENDBRANCH  14  18
ENDBRANCH   1  14
TORSDOF 5
ENDMDL
MODEL 4
REMARK VINA RESULT:      -7.1      4.250      7.643
REMARK  Name = 
REMARK  7 active torsions:
REMARK  status: ('A' for Active; 'I' for Inactive)
REMARK    1  A    between atoms: C_1  and  C_2
REMARK    2  A    between atoms: C_2  and  C_3
REMARK    3  A    between atoms: C_2  and  C_4
REMARK    4  A    between atoms: C_7  and  O_8
REMARK    5  A    between atoms: O_8  and  C_9
REMARK    6  A    between atoms: C_12  and  C_13
REMARK    7  A    between atoms: N_15  and  O_16
REMARK                            x       y       z     vdW  Elec       q    Type
REMARK                         _______ _______ _______ _____ _____    ______ ____
ROOT
ATOM      1  C   UNL     1       2.984   6.626  18.079  0.00  0.00    +0.000 A 
ATOM      2  C   UNL     1       2.010   5.649  17.927  0.00  0.00    +0.000 A 
ATOM      3  C   UNL     1       2.366   4.317  18.145  0.00  0.00    +0.000 A 
ATOM      4  C   UNL     1       3.682   4.008  18.500  0.00  0.00    +0.000 A 
ATOM      5  C   UNL     1       4.593   5.051  18.590  0.00  0.00    +0.000 A 
ATOM      6  N   UNL     1       4.277   6.349  18.369  0.00  0.00    +0.000 NA
ENDROOT
BRANCH   4   7
ATOM      7  C   UNL     1       4.106   2.616  18.802  0.00  0.00    +0.000 C 
ATOM      8  N   UNL     1       5.025   2.396  19.800  0.00  0.00    +0.000 N 
ATOM      9  N   UNL     1       3.588   1.646  18.105  0.00  0.00    +0.000 NA
ATOM     10  H   UNL     1       4.932   2.979  20.624  0.00  0.00    +0.000 HD
ATOM     11  H   UNL     1       5.042   1.404  20.031  0.00  0.00    +0.000 HD
BRANCH   9  12
ATOM     12  O   UNL     1       4.098   0.404  18.518  0.00  0.00    +0.000 OA
ATOM     13  H   UNL     1       4.855   0.284  17.915  0.00  0.00    +0.000 HD
ENDBRANCH   9  12
ENDBRANCH   4   7
BRANCH   1  14
ATOM     14  O   UNL     1       2.590   7.948  17.923  0.00  0.00    +0.000 OA
BRANCH  14  18
ATOM     15  C   UNL     1       0.214   9.780  20.853  0.00  0.00    +0.000 A 
ATOM     16  C   UNL     1       0.266  10.261  19.536  0.00  0.00    +0.000 A 
ATOM     17  C   UNL     1       1.074   9.632  18.580  0.00  0.00    +0.000 A 
ATOM     18  C   UNL     1       1.848   8.527  18.931  0.00  0.00    +0.000 A 
ATOM     19  C   UNL     1       1.778   8.026  20.233  0.00  0.00    +0.000 A 
ATOM     20  C   UNL     1       0.979   8.654  21.188  0.00  0.00    +0.000 A 
BRANCH  15  22
ATOM     21  C   UNL     1      -0.437   9.865  23.286  0.00  0.00    +0.000 C 
ATOM     22  C   UNL     1      -0.651  10.469  21.894  0.00  0.00    +0.000 C 
ATOM     23  C   UNL     1      -0.397  11.979  21.909  0.00  0.00    +0.000 C 
ENDBRANCH  15  22
ENDBRANCH  14  18
ENDBRANCH   1  14
TORSDOF 5
ENDMDL
MODEL 5
REMARK VINA RESULT:      -7.1      4.162      7.341
REMARK  Name = 
REMARK  7 active torsions:
REMARK  status: ('A' for Active; 'I' for Inactive)
REMARK    1  A    between atoms: C_1  and  C_2
REMARK    2  A    between atoms: C_2  and  C_3
REMARK    3  A    between atoms: C_2  and  C_4
REMARK    4  A    between atoms: C_7  and  O_8
REMARK    5  A    between atoms: O_8  and  C_9
REMARK    6  A    between atoms: C_12  and  C_13
REMARK    7  A    between atoms: N_15  and  O_16
REMARK                            x       y       z     vdW  Elec       q    Type
REMARK                         _______ _______ _______ _____ _____    ______ ____
ROOT
ATOM      1  C   UNL     1       3.097   6.052  18.144  0.00  0.00    +0.000 A 
ATOM      2  C   UNL     1       2.249   4.986  17.882  0.00  0.00    +0.000 A 
ATOM      3  C   UNL     1       2.671   3.700  18.226  0.00  0.00    +0.000 A 
ATOM      4  C   UNL     1       3.928   3.526  18.811  0.00  0.00    +0.000 A 
ATOM      5  C   UNL     1       4.720   4.649  18.998  0.00  0.00    +0.000 A 
ATOM      6  N   UNL     1       4.341   5.904  18.659  0.00  0.00    +0.000 NA
ENDROOT
BRANCH   4   7
ATOM      7  C   UNL     1       4.408   2.190  19.252  0.00  0.00    +0.000 C 
ATOM      8  N   UNL     1       4.140   1.089  18.472  0.00  0.00    +0.000 N 
ATOM      9  N   UNL     1       5.072   2.107  20.369  0.00  0.00    +0.000 NA
ATOM     10  H   UNL     1       4.200   1.232  17.470  0.00  0.00    +0.000 HD
ATOM     11  H   UNL     1       4.712   0.306  18.784  0.00  0.00    +0.000 HD
BRANCH   9  12
ATOM     12  O   UNL     1       5.445   0.779  20.633  0.00  0.00    +0.000 OA
ATOM     13  H   UNL     1       5.416   0.749  21.607  0.00  0.00    +0.000 HD
ENDBRANCH   9  12
ENDBRANCH   4   7
BRANCH   1  14
ATOM     14  O   UNL     1       2.628   7.326  17.855  0.00  0.00    +0.000 OA
BRANCH  14  18
ATOM     15  C   UNL     1       0.780   9.631  20.832  0.00  0.00    +0.000 A 
ATOM     16  C   UNL     1       0.902  10.088  19.512  0.00  0.00    +0.000 A 
ATOM     17  C   UNL     1       1.530   9.299  18.540  0.00  0.00    +0.000 A 
ATOM     18  C   UNL     1       2.055   8.052  18.878  0.00  0.00    +0.000 A 
ATOM     19  C   UNL     1       1.911   7.579  20.184  0.00  0.00    +0.000 A 
ATOM     20  C   UNL     1       1.291   8.366  21.155  0.00  0.00    +0.000 A 
BRANCH  15  22
ATOM     21  C   UNL     1      -0.987  11.370  21.283  0.00  0.00    +0.000 C 
ATOM     22  C   UNL     1       0.111  10.491  21.890  0.00  0.00    +0.000 C 
ATOM     23  C   UNL     1      -0.445   9.630  23.028  0.00  0.00    +0.000 C 
ENDBRANCH  15  22
ENDBRANCH  14  18
ENDBRANCH   1  14
TORSDOF 5
ENDMDL
MODEL 6
REMARK VINA RESULT:      -7.1      4.159      7.567
REMARK  Name = 
REMARK  7 active torsions:
REMARK  status: ('A' for Active; 'I' for Inactive)
REMARK    1  A    between atoms: C_1  and  C_2
REMARK    2  A    between atoms: C_2  and  C_3
REMARK    3  A    between atoms: C_2  and  C_4
REMARK    4  A    between atoms: C_7  and  O_8
REMARK    5  A    between atoms: O_8  and  C_9
REMARK    6  A    between atoms: C_12  and  C_13
REMARK    7  A    between atoms: N_15  and  O_16
REMARK                            x       y       z     vdW  Elec       q    Type
REMARK                         _______ _______ _______ _____ _____    ______ ____
ROOT
ATOM      1  C   UNL     1       3.058   6.590  18.058  0.00  0.00    +0.000 A 
ATOM      2  C   UNL     1       2.086   5.619  17.864  0.00  0.00    +0.000 A 
ATOM      3  C   UNL     1       2.423   4.285  18.100  0.00  0.00    +0.000 A 
ATOM      4  C   UNL     1       3.720   3.968  18.514  0.00  0.00    +0.000 A 
ATOM      5  C   UNL     1       4.632   5.005  18.642  0.00  0.00    +0.000 A 
ATOM      6  N   UNL     1       4.336   6.304  18.405  0.00  0.00    +0.000 NA
ENDROOT
BRANCH   4   7
ATOM      7  C   UNL     1       4.120   2.573  18.836  0.00  0.00    +0.000 C 
ATOM      8  N   UNL     1       4.980   2.347  19.885  0.00  0.00    +0.000 N 
ATOM      9  N   UNL     1       3.639   1.607  18.109  0.00  0.00    +0.000 NA
ATOM     10  H   UNL     1       4.842   2.929  20.703  0.00  0.00    +0.000 HD
ATOM     11  H   UNL     1       4.980   1.355  20.114  0.00  0.00    +0.000 HD
BRANCH   9  12
ATOM     12  O   UNL     1       4.120   0.362  18.546  0.00  0.00    +0.000 OA
ATOM     13  H   UNL     1       3.724  -0.249  17.898  0.00  0.00    +0.000 HD
ENDBRANCH   9  12
ENDBRANCH   4   7
BRANCH   1  14
ATOM     14  O   UNL     1       2.681   7.913  17.882  0.00  0.00    +0.000 OA
BRANCH  14  18
ATOM     15  C   UNL     1       0.307   9.581  20.912  0.00  0.00    +0.000 A 
ATOM     16  C   UNL     1       1.118   8.459  21.140  0.00  0.00    +0.000 A 
ATOM     17  C   UNL     1       1.896   7.920  20.108  0.00  0.00    +0.000 A 
ATOM     18  C   UNL     1       1.862   8.486  18.833  0.00  0.00    +0.000 A 
ATOM     19  C   UNL     1       1.079   9.620  18.607  0.00  0.00    +0.000 A 
ATOM     20  C   UNL     1       0.300  10.154  19.632  0.00  0.00    +0.000 A 
BRANCH  15  22
ATOM     21  C   UNL     1      -0.144   9.589  23.391  0.00  0.00    +0.000 C 
ATOM     22  C   UNL     1      -0.547  10.158  22.027  0.00  0.00    +0.000 C 
ATOM     23  C   UNL     1      -0.482  11.689  22.033  0.00  0.00    +0.000 C 
ENDBRANCH  15  22
ENDBRANCH  14  18
ENDBRANCH   1  14
TORSDOF 5
ENDMDL
MODEL 7
REMARK VINA RESULT:      -7.0      3.289      7.621
REMARK  Name = 
REMARK  7 active torsions:
REMARK  status: ('A' for Active; 'I' for Inactive)
REMARK    1  A    between atoms: C_1  and  C_2
REMARK    2  A    between atoms: C_2  and  C_3
REMARK    3  A    between atoms: C_2  and  C_4
REMARK    4  A    between atoms: C_7  and  O_8
REMARK    5  A    between atoms: O_8  and  C_9
REMARK    6  A    between atoms: C_12  and  C_13
REMARK    7  A    between atoms: N_15  and  O_16
REMARK                            x       y       z     vdW  Elec       q    Type
REMARK                         _______ _______ _______ _____ _____    ______ ____
ROOT
ATOM      1  C   UNL     1       4.415   4.084  18.102  0.00  0.00    +0.000 A 
ATOM      2  C   UNL     1       5.727   4.485  18.307  0.00  0.00    +0.000 A 
ATOM      3  C   UNL     1       6.552   4.652  17.193  0.00  0.00    +0.000 A 
ATOM      4  C   UNL     1       6.039   4.406  15.917  0.00  0.00    +0.000 A 
ATOM      5  C   UNL     1       4.725   3.971  15.817  0.00  0.00    +0.000 A 
ATOM      6  N   UNL     1       3.909   3.787  16.882  0.00  0.00    +0.000 NA
ENDROOT
BRANCH   4   7
ATOM      7  C   UNL     1       6.851   4.622  14.691  0.00  0.00    +0.000 C 
ATOM      8  N   UNL     1       6.623   3.834  13.587  0.00  0.00    +0.000 N 
ATOM      9  N   UNL     1       7.756   5.557  14.705  0.00  0.00    +0.000 NA
ATOM     10  H   UNL     1       5.653   3.609  13.397  0.00  0.00    +0.000 HD
ATOM     11  H   UNL     1       7.089   4.242  12.778  0.00  0.00    +0.000 HD
BRANCH   9  12
ATOM     12  O   UNL     1       8.429   5.622  13.473  0.00  0.00    +0.000 OA
ATOM     13  H   UNL     1       9.194   5.038  13.627  0.00  0.00    +0.000 HD
ENDBRANCH   9  12
ENDBRANCH   4   7
BRANCH   1  14
ATOM     14  O   UNL     1       3.595   3.990  19.218  0.00  0.00    +0.000 OA
BRANCH  14  18
ATOM     15  C   UNL     1       1.640   7.530  20.335  0.00  0.00    +0.000 A 
ATOM     16  C   UNL     1       2.501   7.477  19.229  0.00  0.00    +0.000 A 
ATOM     17  C   UNL     1       3.145   6.283  18.883  0.00  0.00    +0.000 A 
ATOM     18  C   UNL     1       2.948   5.132  19.645  0.00  0.00    +0.000 A 
ATOM     19  C   UNL     1       2.070   5.170  20.731  0.00  0.00    +0.000 A 
ATOM     20  C   UNL     1       1.432   6.360  21.079  0.00  0.00    +0.000 A 
BRANCH  15  22
ATOM     21  C   UNL     1       0.596   9.658  19.481  0.00  0.00    +0.000 C 
ATOM     22  C   UNL     1       0.951   8.827  20.718  0.00  0.00    +0.000 C 
ATOM     23  C   UNL     1      -0.292   8.559  21.571  0.00  0.00    +0.000 C 
ENDBRANCH  15  22
ENDBRANCH  14  18
ENDBRANCH   1  14
TORSDOF 5
ENDMDL
MODEL 8
REMARK VINA RESULT:      -7.0      4.224      7.864
REMARK  Name = 
REMARK  7 active torsions:
REMARK  status: ('A' for Active; 'I' for Inactive)
REMARK    1  A    between atoms: C_1  and  C_2
REMARK    2  A    between atoms: C_2  and  C_3
REMARK    3  A    between atoms: C_2  and  C_4
REMARK    4  A    between atoms: C_7  and  O_8
REMARK    5  A    between atoms: O_8  and  C_9
REMARK    6  A    between atoms: C_12  and  C_13
REMARK    7  A    between atoms: N_15  and  O_16
REMARK                            x       y       z     vdW  Elec       q    Type
REMARK                         _______ _______ _______ _____ _____    ______ ____
ROOT
ATOM      1  C   UNL     1       3.909   5.997  18.049  0.00  0.00    +0.000 A 
ATOM      2  C   UNL     1       3.629   4.740  17.532  0.00  0.00    +0.000 A 
ATOM      3  C   UNL     1       4.365   4.295  16.432  0.00  0.00    +0.000 A 
ATOM      4  C   UNL     1       5.348   5.124  15.884  0.00  0.00    +0.000 A 
ATOM      5  C   UNL     1       5.528   6.379  16.447  0.00  0.00    +0.000 A 
ATOM      6  N   UNL     1       4.818   6.841  17.503  0.00  0.00    +0.000 NA
ENDROOT
BRANCH   4   7
ATOM      7  C   UNL     1       6.202   4.682  14.751  0.00  0.00    +0.000 C 
ATOM      8  N   UNL     1       7.454   5.229  14.601  0.00  0.00    +0.000 N 
ATOM      9  N   UNL     1       5.731   3.785  13.934  0.00  0.00    +0.000 NA
ATOM     10  H   UNL     1       7.971   5.394  15.457  0.00  0.00    +0.000 HD
ATOM     11  H   UNL     1       7.987   4.676  13.931  0.00  0.00    +0.000 HD
BRANCH   9  12
ATOM     12  O   UNL     1       6.663   3.487  12.925  0.00  0.00    +0.000 OA
ATOM     13  H   UNL     1       7.308   2.932  13.401  0.00  0.00    +0.000 HD
ENDBRANCH   9  12
ENDBRANCH   4   7
BRANCH   1  14
ATOM     14  O   UNL     1       3.212   6.390  19.182  0.00  0.00    +0.000 OA
BRANCH  14  18
ATOM     15  C   UNL     1       0.709   9.755  19.070  0.00  0.00    +0.000 A 
ATOM     16  C   UNL     1       0.953   9.053  20.260  0.00  0.00    +0.000 A 
ATOM     17  C   UNL     1       1.789   7.930  20.267  0.00  0.00    +0.000 A 
ATOM     18  C   UNL     1       2.378   7.485  19.083  0.00  0.00    +0.000 A 
ATOM     19  C   UNL     1       2.162   8.196  17.901  0.00  0.00    +0.000 A 
ATOM     20  C   UNL     1       1.326   9.311  17.891  0.00  0.00    +0.000 A 
BRANCH  15  22
ATOM     21  C   UNL     1      -1.613  10.597  18.574  0.00  0.00    +0.000 C 
ATOM     22  C   UNL     1      -0.207  10.965  19.059  0.00  0.00    +0.000 C 
ATOM     23  C   UNL     1      -0.261  11.627  20.439  0.00  0.00    +0.000 C 
ENDBRANCH  15  22
ENDBRANCH  14  18
ENDBRANCH   1  14
TORSDOF 5
ENDMDL
MODEL 9
REMARK VINA RESULT:      -6.9      3.433      7.765
REMARK  Name = 
REMARK  7 active torsions:
REMARK  status: ('A' for Active; 'I' for Inactive)
REMARK    1  A    between atoms: C_1  and  C_2
REMARK    2  A    between atoms: C_2  and  C_3
REMARK    3  A    between atoms: C_2  and  C_4
REMARK    4  A    between atoms: C_7  and  O_8
REMARK    5  A    between atoms: O_8  and  C_9
REMARK    6  A    between atoms: C_12  and  C_13
REMARK    7  A    between atoms: N_15  and  O_16
REMARK                            x       y       z     vdW  Elec       q    Type
REMARK                         _______ _______ _______ _____ _____    ______ ____
ROOT
ATOM      1  C   UNL     1       4.276   4.480  18.108  0.00  0.00    +0.000 A 
ATOM      2  C   UNL     1       5.562   4.967  18.293  0.00  0.00    +0.000 A 
ATOM      3  C   UNL     1       6.418   5.018  17.192  0.00  0.00    +0.000 A 
ATOM      4  C   UNL     1       5.962   4.574  15.948  0.00  0.00    +0.000 A 
ATOM      5  C   UNL     1       4.673   4.068  15.871  0.00  0.00    +0.000 A 
ATOM      6  N   UNL     1       3.828   3.993  16.927  0.00  0.00    +0.000 NA
ENDROOT
BRANCH   4   7
ATOM      7  C   UNL     1       6.807   4.658  14.728  0.00  0.00    +0.000 C 
ATOM      8  N   UNL     1       6.566   3.796  13.684  0.00  0.00    +0.000 N 
ATOM      9  N   UNL     1       7.753   5.551  14.691  0.00  0.00    +0.000 NA
ATOM     10  H   UNL     1       5.591   3.600  13.489  0.00  0.00    +0.000 HD
ATOM     11  H   UNL     1       7.066   4.119  12.857  0.00  0.00    +0.000 HD
BRANCH   9  12
ATOM     12  O   UNL     1       8.452   5.490  13.474  0.00  0.00    +0.000 OA
ATOM     13  H   UNL     1       9.348   5.237  13.765  0.00  0.00    +0.000 HD
ENDBRANCH   9  12
ENDBRANCH   4   7
BRANCH   1  14
ATOM     14  O   UNL     1       3.422   4.501  19.202  0.00  0.00    +0.000 OA
BRANCH  14  18
ATOM     15  C   UNL     1       1.440   8.041  20.267  0.00  0.00    +0.000 A 
ATOM     16  C   UNL     1       1.399   6.897  21.078  0.00  0.00    +0.000 A 
ATOM     17  C   UNL     1       2.066   5.727  20.695  0.00  0.00    +0.000 A 
ATOM     18  C   UNL     1       2.768   5.681  19.490  0.00  0.00    +0.000 A 
ATOM     19  C   UNL     1       2.836   6.825  18.692  0.00  0.00    +0.000 A 
ATOM     20  C   UNL     1       2.168   7.989  19.070  0.00  0.00    +0.000 A 
BRANCH  15  22
ATOM     21  C   UNL     1       0.043   9.981  19.471  0.00  0.00    +0.000 C 
ATOM     22  C   UNL     1       0.707   9.306  20.676  0.00  0.00    +0.000 C 
ATOM     23  C   UNL     1      -0.322   9.016  21.773  0.00  0.00    +0.000 C 
ENDBRANCH  15  22
ENDBRANCH  14  18
ENDBRANCH   1  14
TORSDOF 5
ENDMDL
