MODEL 1
REMARK VINA RESULT:      -7.4      0.000      0.000
REMARK  Name = 
REMARK  13 active torsions:
REMARK  status: ('A' for Active; 'I' for Inactive)
REMARK    1  A    between atoms: C_1  and  O_2
REMARK    2  A    between atoms: O_2  and  C_3
REMARK    3  A    between atoms: C_8  and  O_9
REMARK    4  A    between atoms: O_9  and  C_10
REMARK    5  A    between atoms: C_10  and  C_11
REMARK    6  A    between atoms: C_11  and  C_12
REMARK    7  A    between atoms: C_12  and  O_14
REMARK    8  A    between atoms: O_14  and  C_15
REMARK    9  A    between atoms: C_15  and  C_16
REMARK   10  A    between atoms: C_16  and  C_18
REMARK   11  A    between atoms: C_19  and  N_20
REMARK   12  A    between atoms: N_21  and  C_22
REMARK   13  A    between atoms: N_25  and  C_26
REMARK                            x       y       z     vdW  Elec       q    Type
REMARK                         _______ _______ _______ _____ _____    ______ ____
ROOT
ATOM      1  C   UNL     1       7.295   4.851  17.819  0.00  0.00    +0.000 C 
ENDROOT
BRANCH   1   2
ATOM      2  C   UNL     1       5.849   4.528  17.423  0.00  0.00    +0.000 C 
ATOM      3  O   UNL     1       5.601   3.999  16.330  0.00  0.00    +0.000 OA
BRANCH   2   4
ATOM      4  C   UNL     1       4.714   4.859  18.352  0.00  0.00    +0.000 A 
ATOM      5  C   UNL     1       4.046   6.033  18.219  0.00  0.00    +0.000 A 
ATOM      6  N   UNL     1       2.948   6.285  19.040  0.00  0.00    +0.000 N 
ATOM      7  C   UNL     1       2.189   7.530  18.963  0.00  0.00    +0.000 C 
ATOM      8  C   UNL     1       2.464   5.376  19.980  0.00  0.00    +0.000 A 
ATOM      9  O   UNL     1       1.474   5.628  20.667  0.00  0.00    +0.000 OA
ATOM     10  N   UNL     1       3.160   4.197  20.111  0.00  0.00    +0.000 N 
ATOM     11  C   UNL     1       2.715   3.213  21.081  0.00  0.00    +0.000 C 
ATOM     12  C   UNL     1       4.299   3.904  19.400  0.00  0.00    +0.000 A 
ATOM     13  O   UNL     1       4.949   2.879  19.599  0.00  0.00    +0.000 OA
BRANCH   5  14
ATOM     14  N   UNL     1       4.437   6.993  17.291  0.00  0.00    +0.000 N 
ATOM     15  H   UNL     1       3.717   7.159  16.571  0.00  0.00    +0.000 HD
ATOM     16  H   UNL     1       4.705   7.881  17.699  0.00  0.00    +0.000 HD
ENDBRANCH   5  14
ENDBRANCH   2   4
ENDBRANCH   1   2
BRANCH   1  17
ATOM     17  O   UNL     1       7.247   6.085  18.558  0.00  0.00    +0.000 OA
BRANCH  17  18
ATOM     18  C   UNL     1       7.708   7.147  17.859  0.00  0.00    +0.000 C 
ATOM     19  O   UNL     1       7.533   7.307  16.660  0.00  0.00    +0.000 OA
BRANCH  18  20
ATOM     20  C   UNL     1       8.569   8.027  18.732  0.00  0.00    +0.000 C 
BRANCH  20  21
ATOM     21  C   UNL     1       8.452   9.434  18.165  0.00  0.00    +0.000 C 
BRANCH  21  22
ATOM     22  O   UNL     1       8.581  10.426  19.177  0.00  0.00    +0.000 OA
BRANCH  22  28
ATOM     23  C   UNL     1      10.371  11.838  20.234  0.00  0.00    +0.000 A 
ATOM     24  C   UNL     1      11.617  12.452  20.034  0.00  0.00    +0.000 A 
ATOM     25  C   UNL     1      12.195  12.496  18.768  0.00  0.00    +0.000 A 
ATOM     26  C   UNL     1      11.551  11.888  17.696  0.00  0.00    +0.000 A 
ATOM     27  C   UNL     1      10.349  11.207  17.901  0.00  0.00    +0.000 A 
ATOM     28  C   UNL     1       9.750  11.158  19.169  0.00  0.00    +0.000 A 
BRANCH  23  30
ATOM     29  C   UNL     1       9.445  13.155  21.971  0.00  0.00    +0.000 C 
ATOM     30  O   UNL     1       9.794  11.863  21.475  0.00  0.00    +0.000 OA
ENDBRANCH  23  30
ENDBRANCH  22  28
ENDBRANCH  21  22
ENDBRANCH  20  21
ENDBRANCH  18  20
ENDBRANCH  17  18
ENDBRANCH   1  17
TORSDOF 10
ENDMDL
MODEL 2
REMARK VINA RESULT:      -7.3      1.310      2.694
REMARK  Name = 
REMARK  13 active torsions:
REMARK  status: ('A' for Active; 'I' for Inactive)
REMARK    1  A    between atoms: C_1  and  O_2
REMARK    2  A    between atoms: O_2  and  C_3
REMARK    3  A    between atoms: C_8  and  O_9
REMARK    4  A    between atoms: O_9  and  C_10
REMARK    5  A    between atoms: C_10  and  C_11
REMARK    6  A    between atoms: C_11  and  C_12
REMARK    7  A    between atoms: C_12  and  O_14
REMARK    8  A    between atoms: O_14  and  C_15
REMARK    9  A    between atoms: C_15  and  C_16
REMARK   10  A    between atoms: C_16  and  C_18
REMARK   11  A    between atoms: C_19  and  N_20
REMARK   12  A    between atoms: N_21  and  C_22
REMARK   13  A    between atoms: N_25  and  C_26
REMARK                            x       y       z     vdW  Elec       q    Type
REMARK                         _______ _______ _______ _____ _____    ______ ____
ROOT
ATOM      1  C   UNL     1       7.264   4.864  18.015  0.00  0.00    +0.000 C 
ENDROOT
BRANCH   1   2
ATOM      2  C   UNL     1       5.868   4.484  17.507  0.00  0.00    +0.000 C 
ATOM      3  O   UNL     1       5.724   3.990  16.379  0.00  0.00    +0.000 OA
BRANCH   2   4
ATOM      4  C   UNL     1       4.657   4.713  18.368  0.00  0.00    +0.000 A 
ATOM      5  C   UNL     1       4.267   3.766  19.260  0.00  0.00    +0.000 A 
ATOM      6  N   UNL     1       3.189   4.031  20.101  0.00  0.00    +0.000 N 
ATOM      7  C   UNL     1       2.705   3.058  21.075  0.00  0.00    +0.000 C 
ATOM      8  C   UNL     1       2.496   5.242  20.109  0.00  0.00    +0.000 A 
ATOM      9  O   UNL     1       1.565   5.444  20.888  0.00  0.00    +0.000 OA
ATOM     10  N   UNL     1       2.896   6.185  19.191  0.00  0.00    +0.000 N 
ATOM     11  C   UNL     1       2.207   7.461  19.139  0.00  0.00    +0.000 C 
ATOM     12  C   UNL     1       3.894   5.974  18.271  0.00  0.00    +0.000 A 
ATOM     13  O   UNL     1       4.172   6.804  17.406  0.00  0.00    +0.000 OA
BRANCH   5  14
ATOM     14  N   UNL     1       4.912   2.536  19.346  0.00  0.00    +0.000 N 
ATOM     15  H   UNL     1       4.325   1.760  19.006  0.00  0.00    +0.000 HD
ATOM     16  H   UNL     1       5.808   2.503  18.873  0.00  0.00    +0.000 HD
ENDBRANCH   5  14
ENDBRANCH   2   4
ENDBRANCH   1   2
BRANCH   1  17
ATOM     17  O   UNL     1       7.212   6.266  18.334  0.00  0.00    +0.000 OA
BRANCH  17  18
ATOM     18  C   UNL     1       7.467   7.067  17.274  0.00  0.00    +0.000 C 
ATOM     19  O   UNL     1       7.923   6.673  16.211  0.00  0.00    +0.000 OA
BRANCH  18  20
ATOM     20  C   UNL     1       7.237   8.515  17.633  0.00  0.00    +0.000 C 
BRANCH  20  21
ATOM     21  C   UNL     1       8.552   9.027  18.202  0.00  0.00    +0.000 C 
BRANCH  21  22
ATOM     22  O   UNL     1       8.751  10.407  17.915  0.00  0.00    +0.000 OA
BRANCH  22  28
ATOM     23  C   UNL     1      10.693  11.893  18.492  0.00  0.00    +0.000 A 
ATOM     24  C   UNL     1      11.337  12.593  19.525  0.00  0.00    +0.000 A 
ATOM     25  C   UNL     1      10.948  12.423  20.850  0.00  0.00    +0.000 A 
ATOM     26  C   UNL     1       9.883  11.583  21.153  0.00  0.00    +0.000 A 
ATOM     27  C   UNL     1       9.186  10.942  20.126  0.00  0.00    +0.000 A 
ATOM     28  C   UNL     1       9.568  11.099  18.784  0.00  0.00    +0.000 A 
BRANCH  23  30
ATOM     29  C   UNL     1      11.294  13.370  16.740  0.00  0.00    +0.000 C 
ATOM     30  O   UNL     1      11.134  12.029  17.203  0.00  0.00    +0.000 OA
ENDBRANCH  23  30
ENDBRANCH  22  28
ENDBRANCH  21  22
ENDBRANCH  20  21
ENDBRANCH  18  20
ENDBRANCH  17  18
ENDBRANCH   1  17
TORSDOF 10
ENDMDL
MODEL 3
REMARK VINA RESULT:      -7.2      1.121      1.881
REMARK  Name = 
REMARK  13 active torsions:
REMARK  status: ('A' for Active; 'I' for Inactive)
REMARK    1  A    between atoms: C_1  and  O_2
REMARK    2  A    between atoms: O_2  and  C_3
REMARK    3  A    between atoms: C_8  and  O_9
REMARK    4  A    between atoms: O_9  and  C_10
REMARK    5  A    between atoms: C_10  and  C_11
REMARK    6  A    between atoms: C_11  and  C_12
REMARK    7  A    between atoms: C_12  and  O_14
REMARK    8  A    between atoms: O_14  and  C_15
REMARK    9  A    between atoms: C_15  and  C_16
REMARK   10  A    between atoms: C_16  and  C_18
REMARK   11  A    between atoms: C_19  and  N_20
REMARK   12  A    between atoms: N_21  and  C_22
REMARK   13  A    between atoms: N_25  and  C_26
REMARK                            x       y       z     vdW  Elec       q    Type
REMARK                         _______ _______ _______ _____ _____    ______ ____
ROOT
ATOM      1  C   UNL     1       6.682   4.649  17.385  0.00  0.00    +0.000 C 
ENDROOT
BRANCH   1   2
ATOM      2  C   UNL     1       5.171   4.491  17.178  0.00  0.00    +0.000 C 
ATOM      3  O   UNL     1       4.724   4.109  16.087  0.00  0.00    +0.000 OA
BRANCH   2   4
ATOM      4  C   UNL     1       4.213   4.807  18.293  0.00  0.00    +0.000 A 
ATOM      5  C   UNL     1       3.659   6.044  18.385  0.00  0.00    +0.000 A 
ATOM      6  N   UNL     1       2.716   6.292  19.379  0.00  0.00    +0.000 N 
ATOM      7  C   UNL     1       2.088   7.599  19.547  0.00  0.00    +0.000 C 
ATOM      8  C   UNL     1       2.271   5.323  20.279  0.00  0.00    +0.000 A 
ATOM      9  O   UNL     1       1.416   5.578  21.126  0.00  0.00    +0.000 OA
ATOM     10  N   UNL     1       2.852   4.080  20.181  0.00  0.00    +0.000 N 
ATOM     11  C   UNL     1       2.443   3.031  21.097  0.00  0.00    +0.000 C 
ATOM     12  C   UNL     1       3.847   3.774  19.284  0.00  0.00    +0.000 A 
ATOM     13  O   UNL     1       4.407   2.679  19.276  0.00  0.00    +0.000 OA
BRANCH   5  14
ATOM     14  N   UNL     1       4.019   7.069  17.515  0.00  0.00    +0.000 N 
ATOM     15  H   UNL     1       3.817   6.838  16.531  0.00  0.00    +0.000 HD
ATOM     16  H   UNL     1       3.601   7.966  17.735  0.00  0.00    +0.000 HD
ENDBRANCH   5  14
ENDBRANCH   2   4
ENDBRANCH   1   2
BRANCH   1  17
ATOM     17  O   UNL     1       7.020   5.969  16.920  0.00  0.00    +0.000 OA
BRANCH  17  18
ATOM     18  C   UNL     1       7.577   6.747  17.876  0.00  0.00    +0.000 C 
ATOM     19  O   UNL     1       7.753   6.393  19.033  0.00  0.00    +0.000 OA
BRANCH  18  20
ATOM     20  C   UNL     1       7.825   8.140  17.351  0.00  0.00    +0.000 C 
BRANCH  20  21
ATOM     21  C   UNL     1       8.570   8.883  18.450  0.00  0.00    +0.000 C 
BRANCH  21  22
ATOM     22  O   UNL     1       9.001  10.170  18.021  0.00  0.00    +0.000 OA
BRANCH  22  28
ATOM     23  C   UNL     1      10.729  11.818  18.803  0.00  0.00    +0.000 A 
ATOM     24  C   UNL     1      11.168  12.595  19.886  0.00  0.00    +0.000 A 
ATOM     25  C   UNL     1      10.609  12.434  21.151  0.00  0.00    +0.000 A 
ATOM     26  C   UNL     1       9.575  11.523  21.336  0.00  0.00    +0.000 A 
ATOM     27  C   UNL     1       9.079  10.802  20.248  0.00  0.00    +0.000 A 
ATOM     28  C   UNL     1       9.634  10.948  18.967  0.00  0.00    +0.000 A 
BRANCH  23  30
ATOM     29  C   UNL     1      11.405  13.278  17.064  0.00  0.00    +0.000 C 
ATOM     30  O   UNL     1      11.337  11.950  17.583  0.00  0.00    +0.000 OA
ENDBRANCH  23  30
ENDBRANCH  22  28
ENDBRANCH  21  22
ENDBRANCH  20  21
ENDBRANCH  18  20
ENDBRANCH  17  18
ENDBRANCH   1  17
TORSDOF 10
ENDMDL
MODEL 4
REMARK VINA RESULT:      -7.0      1.544      2.615
REMARK  Name = 
REMARK  13 active torsions:
REMARK  status: ('A' for Active; 'I' for Inactive)
REMARK    1  A    between atoms: C_1  and  O_2
REMARK    2  A    between atoms: O_2  and  C_3
REMARK    3  A    between atoms: C_8  and  O_9
REMARK    4  A    between atoms: O_9  and  C_10
REMARK    5  A    between atoms: C_10  and  C_11
REMARK    6  A    between atoms: C_11  and  C_12
REMARK    7  A    between atoms: C_12  and  O_14
REMARK    8  A    between atoms: O_14  and  C_15
REMARK    9  A    between atoms: C_15  and  C_16
REMARK   10  A    between atoms: C_16  and  C_18
REMARK   11  A    between atoms: C_19  and  N_20
REMARK   12  A    between atoms: N_21  and  C_22
REMARK   13  A    between atoms: N_25  and  C_26
REMARK                            x       y       z     vdW  Elec       q    Type
REMARK                         _______ _______ _______ _____ _____    ______ ____
ROOT
ATOM      1  C   UNL     1       7.211   4.589  17.719  0.00  0.00    +0.000 C 
ENDROOT
BRANCH   1   2
ATOM      2  C   UNL     1       5.783   4.202  17.316  0.00  0.00    +0.000 C 
ATOM      3  O   UNL     1       5.567   3.645  16.229  0.00  0.00    +0.000 OA
BRANCH   2   4
ATOM      4  C   UNL     1       4.627   4.501  18.229  0.00  0.00    +0.000 A 
ATOM      5  C   UNL     1       4.264   3.606  19.183  0.00  0.00    +0.000 A 
ATOM      6  N   UNL     1       3.240   3.937  20.069  0.00  0.00    +0.000 N 
ATOM      7  C   UNL     1       2.788   3.021  21.111  0.00  0.00    +0.000 C 
ATOM      8  C   UNL     1       2.578   5.164  20.057  0.00  0.00    +0.000 A 
ATOM      9  O   UNL     1       1.696   5.425  20.875  0.00  0.00    +0.000 OA
ATOM     10  N   UNL     1       2.949   6.054  19.076  0.00  0.00    +0.000 N 
ATOM     11  C   UNL     1       2.289   7.344  19.001  0.00  0.00    +0.000 C 
ATOM     12  C   UNL     1       3.890   5.776  18.114  0.00  0.00    +0.000 A 
ATOM     13  O   UNL     1       4.139   6.558  17.198  0.00  0.00    +0.000 OA
BRANCH   5  14
ATOM     14  N   UNL     1       4.884   2.365  19.292  0.00  0.00    +0.000 N 
ATOM     15  H   UNL     1       4.257   1.589  19.032  0.00  0.00    +0.000 HD
ATOM     16  H   UNL     1       5.745   2.283  18.764  0.00  0.00    +0.000 HD
ENDBRANCH   5  14
ENDBRANCH   2   4
ENDBRANCH   1   2
BRANCH   1  17
ATOM     17  O   UNL     1       7.105   5.824  18.449  0.00  0.00    +0.000 OA
BRANCH  17  18
ATOM     18  C   UNL     1       7.458   6.909  17.721  0.00  0.00    +0.000 C 
ATOM     19  O   UNL     1       7.287   7.010  16.515  0.00  0.00    +0.000 OA
BRANCH  18  20
ATOM     20  C   UNL     1       8.203   7.905  18.575  0.00  0.00    +0.000 C 
BRANCH  20  21
ATOM     21  C   UNL     1       8.549   9.073  17.664  0.00  0.00    +0.000 C 
BRANCH  21  22
ATOM     22  O   UNL     1       8.155  10.320  18.227  0.00  0.00    +0.000 OA
BRANCH  22  28
ATOM     23  C   UNL     1       8.780  12.697  17.706  0.00  0.00    +0.000 A 
ATOM     24  C   UNL     1       9.824  13.635  17.701  0.00  0.00    +0.000 A 
ATOM     25  C   UNL     1      11.136  13.243  17.948  0.00  0.00    +0.000 A 
ATOM     26  C   UNL     1      11.413  11.913  18.244  0.00  0.00    +0.000 A 
ATOM     27  C   UNL     1      10.371  10.986  18.328  0.00  0.00    +0.000 A 
ATOM     28  C   UNL     1       9.043  11.364  18.077  0.00  0.00    +0.000 A 
BRANCH  23  30
ATOM     29  C   UNL     1       7.201  14.462  17.677  0.00  0.00    +0.000 C 
ATOM     30  O   UNL     1       7.507  13.096  17.398  0.00  0.00    +0.000 OA
ENDBRANCH  23  30
ENDBRANCH  22  28
ENDBRANCH  21  22
ENDBRANCH  20  21
ENDBRANCH  18  20
ENDBRANCH  17  18
ENDBRANCH   1  17
TORSDOF 10
ENDMDL
MODEL 5
REMARK VINA RESULT:      -7.0      5.263      8.236
REMARK  Name = 
REMARK  13 active torsions:
REMARK  status: ('A' for Active; 'I' for Inactive)
REMARK    1  A    between atoms: C_1  and  O_2
REMARK    2  A    between atoms: O_2  and  C_3
REMARK    3  A    between atoms: C_8  and  O_9
REMARK    4  A    between atoms: O_9  and  C_10
REMARK    5  A    between atoms: C_10  and  C_11
REMARK    6  A    between atoms: C_11  and  C_12
REMARK    7  A    between atoms: C_12  and  O_14
REMARK    8  A    between atoms: O_14  and  C_15
REMARK    9  A    between atoms: C_15  and  C_16
REMARK   10  A    between atoms: C_16  and  C_18
REMARK   11  A    between atoms: C_19  and  N_20
REMARK   12  A    between atoms: N_21  and  C_22
REMARK   13  A    between atoms: N_25  and  C_26
REMARK                            x       y       z     vdW  Elec       q    Type
REMARK                         _______ _______ _______ _____ _____    ______ ____
ROOT
ATOM      1  C   UNL     1       3.867   7.327  17.685  0.00  0.00    +0.000 C 
ENDROOT
BRANCH   1   2
ATOM      2  C   UNL     1       2.492   7.181  18.347  0.00  0.00    +0.000 C 
ATOM      3  O   UNL     1       1.843   6.133  18.221  0.00  0.00    +0.000 OA
BRANCH   2   4
ATOM      4  C   UNL     1       1.910   8.312  19.149  0.00  0.00    +0.000 A 
ATOM      5  C   UNL     1       1.616   8.133  20.463  0.00  0.00    +0.000 A 
ATOM      6  N   UNL     1       1.151   9.216  21.206  0.00  0.00    +0.000 N 
ATOM      7  C   UNL     1       0.802   9.097  22.619  0.00  0.00    +0.000 C 
ATOM      8  C   UNL     1       0.999  10.501  20.686  0.00  0.00    +0.000 A 
ATOM      9  O   UNL     1       0.610  11.435  21.385  0.00  0.00    +0.000 OA
ATOM     10  N   UNL     1       1.289  10.661  19.351  0.00  0.00    +0.000 N 
ATOM     11  C   UNL     1       1.140  11.972  18.744  0.00  0.00    +0.000 C 
ATOM     12  C   UNL     1       1.675   9.631  18.527  0.00  0.00    +0.000 A 
ATOM     13  O   UNL     1       1.845   9.788  17.319  0.00  0.00    +0.000 OA
BRANCH   5  14
ATOM     14  N   UNL     1       1.759   6.895  21.080  0.00  0.00    +0.000 N 
ATOM     15  H   UNL     1       2.539   6.880  21.754  0.00  0.00    +0.000 HD
ATOM     16  H   UNL     1       0.921   6.559  21.539  0.00  0.00    +0.000 HD
ENDBRANCH   5  14
ENDBRANCH   2   4
ENDBRANCH   1   2
BRANCH   1  17
ATOM     17  O   UNL     1       4.510   6.045  17.798  0.00  0.00    +0.000 OA
BRANCH  17  18
ATOM     18  C   UNL     1       5.257   5.722  16.717  0.00  0.00    +0.000 C 
ATOM     19  O   UNL     1       5.763   6.541  15.964  0.00  0.00    +0.000 OA
BRANCH  18  20
ATOM     20  C   UNL     1       5.264   4.228  16.501  0.00  0.00    +0.000 C 
BRANCH  20  21
ATOM     21  C   UNL     1       3.855   3.746  16.811  0.00  0.00    +0.000 C 
BRANCH  21  22
ATOM     22  O   UNL     1       3.862   2.584  17.633  0.00  0.00    +0.000 OA
BRANCH  22  28
ATOM     23  C   UNL     1       3.594   2.577  20.131  0.00  0.00    +0.000 A 
ATOM     24  C   UNL     1       2.694   2.772  21.190  0.00  0.00    +0.000 A 
ATOM     25  C   UNL     1       1.332   2.933  20.948  0.00  0.00    +0.000 A 
ATOM     26  C   UNL     1       0.863   2.943  19.639  0.00  0.00    +0.000 A 
ATOM     27  C   UNL     1       1.761   2.827  18.576  0.00  0.00    +0.000 A 
ATOM     28  C   UNL     1       3.135   2.659  18.802  0.00  0.00    +0.000 A 
BRANCH  23  30
ATOM     29  C   UNL     1       5.223   1.137  21.071  0.00  0.00    +0.000 C 
ATOM     30  O   UNL     1       4.919   2.358  20.399  0.00  0.00    +0.000 OA
ENDBRANCH  23  30
ENDBRANCH  22  28
ENDBRANCH  21  22
ENDBRANCH  20  21
ENDBRANCH  18  20
ENDBRANCH  17  18
ENDBRANCH   1  17
TORSDOF 10
ENDMDL
MODEL 6
REMARK VINA RESULT:      -6.9      3.984      7.438
REMARK  Name = 
REMARK  13 active torsions:
REMARK  status: ('A' for Active; 'I' for Inactive)
REMARK    1  A    between atoms: C_1  and  O_2
REMARK    2  A    between atoms: O_2  and  C_3
REMARK    3  A    between atoms: C_8  and  O_9
REMARK    4  A    between atoms: O_9  and  C_10
REMARK    5  A    between atoms: C_10  and  C_11
REMARK    6  A    between atoms: C_11  and  C_12
REMARK    7  A    between atoms: C_12  and  O_14
REMARK    8  A    between atoms: O_14  and  C_15
REMARK    9  A    between atoms: C_15  and  C_16
REMARK   10  A    between atoms: C_16  and  C_18
REMARK   11  A    between atoms: C_19  and  N_20
REMARK   12  A    between atoms: N_21  and  C_22
REMARK   13  A    between atoms: N_25  and  C_26
REMARK                            x       y       z     vdW  Elec       q    Type
REMARK                         _______ _______ _______ _____ _____    ______ ____
ROOT
ATOM      1  C   UNL     1       3.121   3.701  19.675  0.00  0.00    +0.000 C 
ENDROOT
BRANCH   1   2
ATOM      2  C   UNL     1       4.604   3.350  19.510  0.00  0.00    +0.000 C 
ATOM      3  O   UNL     1       5.132   2.498  20.239  0.00  0.00    +0.000 OA
BRANCH   2   4
ATOM      4  C   UNL     1       5.438   4.041  18.467  0.00  0.00    +0.000 A 
ATOM      5  C   UNL     1       5.288   3.724  17.155  0.00  0.00    +0.000 A 
ATOM      6  N   UNL     1       6.015   4.431  16.200  0.00  0.00    +0.000 N 
ATOM      7  C   UNL     1       5.916   4.138  14.773  0.00  0.00    +0.000 C 
ATOM      8  C   UNL     1       6.875   5.485  16.509  0.00  0.00    +0.000 A 
ATOM      9  O   UNL     1       7.478   6.100  15.631  0.00  0.00    +0.000 OA
ATOM     10  N   UNL     1       7.025   5.784  17.843  0.00  0.00    +0.000 N 
ATOM     11  C   UNL     1       7.915   6.863  18.233  0.00  0.00    +0.000 C 
ATOM     12  C   UNL     1       6.409   5.085  18.853  0.00  0.00    +0.000 A 
ATOM     13  O   UNL     1       6.629   5.321  20.040  0.00  0.00    +0.000 OA
BRANCH   5  14
ATOM     14  N   UNL     1       4.434   2.705  16.745  0.00  0.00    +0.000 N 
ATOM     15  H   UNL     1       4.315   2.681  15.722  0.00  0.00    +0.000 HD
ATOM     16  H   UNL     1       4.704   1.782  17.067  0.00  0.00    +0.000 HD
ENDBRANCH   5  14
ENDBRANCH   2   4
ENDBRANCH   1   2
BRANCH   1  17
ATOM     17  O   UNL     1       3.007   5.112  19.414  0.00  0.00    +0.000 OA
BRANCH  17  18
ATOM     18  C   UNL     1       2.310   5.395  18.289  0.00  0.00    +0.000 C 
ATOM     19  O   UNL     1       1.782   4.551  17.579  0.00  0.00    +0.000 OA
BRANCH  18  20
ATOM     20  C   UNL     1       2.388   6.868  17.969  0.00  0.00    +0.000 C 
BRANCH  20  21
ATOM     21  C   UNL     1       2.253   7.599  19.296  0.00  0.00    +0.000 C 
BRANCH  21  22
ATOM     22  O   UNL     1       1.733   8.913  19.126  0.00  0.00    +0.000 OA
BRANCH  22  28
ATOM     23  C   UNL     1       0.008  10.436  20.136  0.00  0.00    +0.000 A 
ATOM     24  C   UNL     1      -0.733  10.724  21.292  0.00  0.00    +0.000 A 
ATOM     25  C   UNL     1      -0.455  10.082  22.496  0.00  0.00    +0.000 A 
ATOM     26  C   UNL     1       0.542   9.114  22.545  0.00  0.00    +0.000 A 
ATOM     27  C   UNL     1       1.232   8.765  21.382  0.00  0.00    +0.000 A 
ATOM     28  C   UNL     1       0.967   9.405  20.162  0.00  0.00    +0.000 A 
BRANCH  23  30
ATOM     29  C   UNL     1      -0.936  12.363  19.133  0.00  0.00    +0.000 C 
ATOM     30  O   UNL     1      -0.243  11.125  18.980  0.00  0.00    +0.000 OA
ENDBRANCH  23  30
ENDBRANCH  22  28
ENDBRANCH  21  22
ENDBRANCH  20  21
ENDBRANCH  18  20
ENDBRANCH  17  18
ENDBRANCH   1  17
TORSDOF 10
ENDMDL
MODEL 7
REMARK VINA RESULT:      -6.9      1.085      1.257
REMARK  Name = 
REMARK  13 active torsions:
REMARK  status: ('A' for Active; 'I' for Inactive)
REMARK    1  A    between atoms: C_1  and  O_2
REMARK    2  A    between atoms: O_2  and  C_3
REMARK    3  A    between atoms: C_8  and  O_9
REMARK    4  A    between atoms: O_9  and  C_10
REMARK    5  A    between atoms: C_10  and  C_11
REMARK    6  A    between atoms: C_11  and  C_12
REMARK    7  A    between atoms: C_12  and  O_14
REMARK    8  A    between atoms: O_14  and  C_15
REMARK    9  A    between atoms: C_15  and  C_16
REMARK   10  A    between atoms: C_16  and  C_18
REMARK   11  A    between atoms: C_19  and  N_20
REMARK   12  A    between atoms: N_21  and  C_22
REMARK   13  A    between atoms: N_25  and  C_26
REMARK                            x       y       z     vdW  Elec       q    Type
REMARK                         _______ _______ _______ _____ _____    ______ ____
ROOT
ATOM      1  C   UNL     1       7.435   4.931  17.935  0.00  0.00    +0.000 C 
ENDROOT
BRANCH   1   2
ATOM      2  C   UNL     1       6.011   4.576  17.492  0.00  0.00    +0.000 C 
ATOM      3  O   UNL     1       5.811   4.036  16.395  0.00  0.00    +0.000 OA
BRANCH   2   4
ATOM      4  C   UNL     1       4.838   4.887  18.381  0.00  0.00    +0.000 A 
ATOM      5  C   UNL     1       4.148   6.045  18.217  0.00  0.00    +0.000 A 
ATOM      6  N   UNL     1       3.019   6.277  18.998  0.00  0.00    +0.000 N 
ATOM      7  C   UNL     1       2.234   7.503  18.887  0.00  0.00    +0.000 C 
ATOM      8  C   UNL     1       2.524   5.364  19.930  0.00  0.00    +0.000 A 
ATOM      9  O   UNL     1       1.507   5.598  20.581  0.00  0.00    +0.000 OA
ATOM     10  N   UNL     1       3.243   4.202  20.092  0.00  0.00    +0.000 N 
ATOM     11  C   UNL     1       2.789   3.215  21.055  0.00  0.00    +0.000 C 
ATOM     12  C   UNL     1       4.411   3.930  19.422  0.00  0.00    +0.000 A 
ATOM     13  O   UNL     1       5.077   2.922  19.651  0.00  0.00    +0.000 OA
BRANCH   5  14
ATOM     14  N   UNL     1       4.548   7.006  17.294  0.00  0.00    +0.000 N 
ATOM     15  H   UNL     1       3.924   7.827  17.288  0.00  0.00    +0.000 HD
ATOM     16  H   UNL     1       5.504   7.320  17.408  0.00  0.00    +0.000 HD
ENDBRANCH   5  14
ENDBRANCH   2   4
ENDBRANCH   1   2
BRANCH   1  17
ATOM     17  O   UNL     1       7.344   6.191  18.624  0.00  0.00    +0.000 OA
BRANCH  17  18
ATOM     18  C   UNL     1       7.747   7.243  17.875  0.00  0.00    +0.000 C 
ATOM     19  O   UNL     1       7.570   7.334  16.669  0.00  0.00    +0.000 OA
BRANCH  18  20
ATOM     20  C   UNL     1       8.552   8.212  18.706  0.00  0.00    +0.000 C 
BRANCH  20  21
ATOM     21  C   UNL     1       8.418   9.568  18.028  0.00  0.00    +0.000 C 
BRANCH  21  22
ATOM     22  O   UNL     1       9.570  10.378  18.234  0.00  0.00    +0.000 OA
BRANCH  22  28
ATOM     23  C   UNL     1       9.116  12.074  20.031  0.00  0.00    +0.000 A 
ATOM     24  C   UNL     1       8.995  13.444  20.314  0.00  0.00    +0.000 A 
ATOM     25  C   UNL     1       8.984  14.385  19.288  0.00  0.00    +0.000 A 
ATOM     26  C   UNL     1       9.135  13.969  17.970  0.00  0.00    +0.000 A 
ATOM     27  C   UNL     1       9.332  12.616  17.685  0.00  0.00    +0.000 A 
ATOM     28  C   UNL     1       9.342  11.653  18.706  0.00  0.00    +0.000 A 
BRANCH  23  30
ATOM     29  C   UNL     1       8.577  11.658  22.299  0.00  0.00    +0.000 C 
ATOM     30  O   UNL     1       9.062  11.163  21.052  0.00  0.00    +0.000 OA
ENDBRANCH  23  30
ENDBRANCH  22  28
ENDBRANCH  21  22
ENDBRANCH  20  21
ENDBRANCH  18  20
ENDBRANCH  17  18
ENDBRANCH   1  17
TORSDOF 10
ENDMDL
MODEL 8
REMARK VINA RESULT:      -6.9      1.368      2.290
REMARK  Name = 
REMARK  13 active torsions:
REMARK  status: ('A' for Active; 'I' for Inactive)
REMARK    1  A    between atoms: C_1  and  O_2
REMARK    2  A    between atoms: O_2  and  C_3
REMARK    3  A    between atoms: C_8  and  O_9
REMARK    4  A    between atoms: O_9  and  C_10
REMARK    5  A    between atoms: C_10  and  C_11
REMARK    6  A    between atoms: C_11  and  C_12
REMARK    7  A    between atoms: C_12  and  O_14
REMARK    8  A    between atoms: O_14  and  C_15
REMARK    9  A    between atoms: C_15  and  C_16
REMARK   10  A    between atoms: C_16  and  C_18
REMARK   11  A    between atoms: C_19  and  N_20
REMARK   12  A    between atoms: N_21  and  C_22
REMARK   13  A    between atoms: N_25  and  C_26
REMARK                            x       y       z     vdW  Elec       q    Type
REMARK                         _______ _______ _______ _____ _____    ______ ____
ROOT
ATOM      1  C   UNL     1       5.380   6.772  16.381  0.00  0.00    +0.000 C 
ENDROOT
BRANCH   1   2
ATOM      2  C   UNL     1       4.697   5.425  16.643  0.00  0.00    +0.000 C 
ATOM      3  O   UNL     1       4.752   4.519  15.799  0.00  0.00    +0.000 OA
BRANCH   2   4
ATOM      4  C   UNL     1       3.945   5.189  17.924  0.00  0.00    +0.000 A 
ATOM      5  C   UNL     1       4.054   3.999  18.568  0.00  0.00    +0.000 A 
ATOM      6  N   UNL     1       3.411   3.830  19.792  0.00  0.00    +0.000 N 
ATOM      7  C   UNL     1       3.472   2.576  20.536  0.00  0.00    +0.000 C 
ATOM      8  C   UNL     1       2.678   4.835  20.424  0.00  0.00    +0.000 A 
ATOM      9  O   UNL     1       2.147   4.651  21.519  0.00  0.00    +0.000 OA
ATOM     10  N   UNL     1       2.566   6.030  19.751  0.00  0.00    +0.000 N 
ATOM     11  C   UNL     1       1.807   7.112  20.348  0.00  0.00    +0.000 C 
ATOM     12  C   UNL     1       3.100   6.253  18.505  0.00  0.00    +0.000 A 
ATOM     13  O   UNL     1       2.912   7.302  17.891  0.00  0.00    +0.000 OA
BRANCH   5  14
ATOM     14  N   UNL     1       4.785   2.944  18.031  0.00  0.00    +0.000 N 
ATOM     15  H   UNL     1       5.050   2.247  18.743  0.00  0.00    +0.000 HD
ATOM     16  H   UNL     1       4.327   2.471  17.261  0.00  0.00    +0.000 HD
ENDBRANCH   5  14
ENDBRANCH   2   4
ENDBRANCH   1   2
BRANCH   1  17
ATOM     17  O   UNL     1       6.796   6.533  16.469  0.00  0.00    +0.000 OA
BRANCH  17  18
ATOM     18  C   UNL     1       7.362   7.065  17.577  0.00  0.00    +0.000 C 
ATOM     19  O   UNL     1       7.823   6.404  18.497  0.00  0.00    +0.000 OA
BRANCH  18  20
ATOM     20  C   UNL     1       7.224   8.568  17.577  0.00  0.00    +0.000 C 
BRANCH  20  21
ATOM     21  C   UNL     1       8.550   9.117  18.083  0.00  0.00    +0.000 C 
BRANCH  21  22
ATOM     22  O   UNL     1       8.470  10.508  18.375  0.00  0.00    +0.000 OA
BRANCH  22  28
ATOM     23  C   UNL     1       9.847  11.491  20.232  0.00  0.00    +0.000 A 
ATOM     24  C   UNL     1      11.114  11.979  20.588  0.00  0.00    +0.000 A 
ATOM     25  C   UNL     1      12.099  12.173  19.624  0.00  0.00    +0.000 A 
ATOM     26  C   UNL     1      11.841  11.843  18.299  0.00  0.00    +0.000 A 
ATOM     27  C   UNL     1      10.609  11.285  17.947  0.00  0.00    +0.000 A 
ATOM     28  C   UNL     1       9.603  11.086  18.905  0.00  0.00    +0.000 A 
BRANCH  23  30
ATOM     29  C   UNL     1       8.804  12.426  22.142  0.00  0.00    +0.000 C 
ATOM     30  O   UNL     1       8.874  11.367  21.188  0.00  0.00    +0.000 OA
ENDBRANCH  23  30
ENDBRANCH  22  28
ENDBRANCH  21  22
ENDBRANCH  20  21
ENDBRANCH  18  20
ENDBRANCH  17  18
ENDBRANCH   1  17
TORSDOF 10
ENDMDL
MODEL 9
REMARK VINA RESULT:      -6.9      1.462      2.274
REMARK  Name = 
REMARK  13 active torsions:
REMARK  status: ('A' for Active; 'I' for Inactive)
REMARK    1  A    between atoms: C_1  and  O_2
REMARK    2  A    between atoms: O_2  and  C_3
REMARK    3  A    between atoms: C_8  and  O_9
REMARK    4  A    between atoms: O_9  and  C_10
REMARK    5  A    between atoms: C_10  and  C_11
REMARK    6  A    between atoms: C_11  and  C_12
REMARK    7  A    between atoms: C_12  and  O_14
REMARK    8  A    between atoms: O_14  and  C_15
REMARK    9  A    between atoms: C_15  and  C_16
REMARK   10  A    between atoms: C_16  and  C_18
REMARK   11  A    between atoms: C_19  and  N_20
REMARK   12  A    between atoms: N_21  and  C_22
REMARK   13  A    between atoms: N_25  and  C_26
REMARK                            x       y       z     vdW  Elec       q    Type
REMARK                         _______ _______ _______ _____ _____    ______ ____
ROOT
ATOM      1  C   UNL     1       7.021   5.621  16.814  0.00  0.00    +0.000 C 
ENDROOT
BRANCH   1   2
ATOM      2  C   UNL     1       5.559   5.523  16.362  0.00  0.00    +0.000 C 
ATOM      3  O   UNL     1       5.259   5.682  15.170  0.00  0.00    +0.000 OA
BRANCH   2   4
ATOM      4  C   UNL     1       4.471   5.241  17.361  0.00  0.00    +0.000 A 
ATOM      5  C   UNL     1       4.171   3.960  17.696  0.00  0.00    +0.000 A 
ATOM      6  N   UNL     1       3.213   3.724  18.680  0.00  0.00    +0.000 N 
ATOM      7  C   UNL     1       2.829   2.375  19.085  0.00  0.00    +0.000 C 
ATOM      8  C   UNL     1       2.558   4.739  19.379  0.00  0.00    +0.000 A 
ATOM      9  O   UNL     1       1.737   4.486  20.259  0.00  0.00    +0.000 OA
ATOM     10  N   UNL     1       2.865   6.030  19.017  0.00  0.00    +0.000 N 
ATOM     11  C   UNL     1       2.208   7.132  19.696  0.00  0.00    +0.000 C 
ATOM     12  C   UNL     1       3.735   6.350  18.003  0.00  0.00    +0.000 A 
ATOM     13  O   UNL     1       3.924   7.511  17.645  0.00  0.00    +0.000 OA
BRANCH   5  14
ATOM     14  N   UNL     1       4.790   2.880  17.075  0.00  0.00    +0.000 N 
ATOM     15  H   UNL     1       4.194   2.038  17.066  0.00  0.00    +0.000 HD
ATOM     16  H   UNL     1       5.107   3.069  16.132  0.00  0.00    +0.000 HD
ENDBRANCH   5  14
ENDBRANCH   2   4
ENDBRANCH   1   2
BRANCH   1  17
ATOM     17  O   UNL     1       7.392   7.006  16.688  0.00  0.00    +0.000 OA
BRANCH  17  18
ATOM     18  C   UNL     1       7.833   7.550  17.846  0.00  0.00    +0.000 C 
ATOM     19  O   UNL     1       8.209   6.900  18.810  0.00  0.00    +0.000 OA
BRANCH  18  20
ATOM     20  C   UNL     1       7.672   9.051  17.825  0.00  0.00    +0.000 C 
BRANCH  20  21
ATOM     21  C   UNL     1       9.029   9.630  18.195  0.00  0.00    +0.000 C 
BRANCH  21  22
ATOM     22  O   UNL     1       8.979  10.356  19.419  0.00  0.00    +0.000 OA
BRANCH  22  28
ATOM     23  C   UNL     1       9.929  12.379  20.566  0.00  0.00    +0.000 A 
ATOM     24  C   UNL     1      10.833  13.446  20.450  0.00  0.00    +0.000 A 
ATOM     25  C   UNL     1      11.466  13.716  19.240  0.00  0.00    +0.000 A 
ATOM     26  C   UNL     1      11.233  12.893  18.143  0.00  0.00    +0.000 A 
ATOM     27  C   UNL     1      10.396  11.783  18.270  0.00  0.00    +0.000 A 
ATOM     28  C   UNL     1       9.746  11.500  19.482  0.00  0.00    +0.000 A 
BRANCH  23  30
ATOM     29  C   UNL     1       8.630  13.316  22.311  0.00  0.00    +0.000 C 
ATOM     30  O   UNL     1       9.272  12.172  21.749  0.00  0.00    +0.000 OA
ENDBRANCH  23  30
ENDBRANCH  22  28
ENDBRANCH  21  22
ENDBRANCH  20  21
ENDBRANCH  18  20
ENDBRANCH  17  18
ENDBRANCH   1  17
TORSDOF 10
ENDMDL
