MODEL 1
REMARK VINA RESULT:      -4.7      0.000      0.000
REMARK  Name = 
REMARK  2 active torsions:
REMARK  status: ('A' for Active; 'I' for Inactive)
REMARK    1  A    between atoms: C_2  and  C_3
REMARK    2  A    between atoms: C_8  and  N_9
REMARK                            x       y       z     vdW  Elec       q    Type
REMARK                         _______ _______ _______ _____ _____    ______ ____
ROOT
ATOM      1  C   UNL     1       2.666   3.258  19.735  0.00  0.00    +0.000 A 
ATOM      2  C   UNL     1       1.674   3.890  18.976  0.00  0.00    +0.000 A 
ATOM      3  C   UNL     1       1.884   4.104  17.618  0.00  0.00    +0.000 A 
ATOM      4  C   UNL     1       3.079   3.673  17.073  0.00  0.00    +0.000 A 
ATOM      5  N   UNL     1       4.048   3.051  17.782  0.00  0.00    +0.000 NA
ATOM      6  C   UNL     1       3.835   2.847  19.097  0.00  0.00    +0.000 A 
ENDROOT
BRANCH   6   7
ATOM      7  N   UNL     1       4.902   2.263  19.777  0.00  0.00    +0.000 N 
ATOM      8  H   UNL     1       4.586   2.053  20.722  0.00  0.00    +0.000 HD
ATOM      9  H   UNL     1       5.748   2.822  19.771  0.00  0.00    +0.000 HD
ENDBRANCH   6   7
BRANCH   1  11
ATOM     10  N   UNL     1       2.253   2.874  22.264  0.00  0.00    +0.000 NA
ATOM     11  C   UNL     1       2.456   3.040  21.131  0.00  0.00    +0.000 C 
ENDBRANCH   1  11
TORSDOF 2
ENDMDL
MODEL 2
REMARK VINA RESULT:      -4.7      1.834      2.595
REMARK  Name = 
REMARK  2 active torsions:
REMARK  status: ('A' for Active; 'I' for Inactive)
REMARK    1  A    between atoms: C_2  and  C_3
REMARK    2  A    between atoms: C_8  and  N_9
REMARK                            x       y       z     vdW  Elec       q    Type
REMARK                         _______ _______ _______ _____ _____    ______ ____
ROOT
ATOM      1  C   UNL     1       4.300   3.877  18.803  0.00  0.00    +0.000 A 
ATOM      2  C   UNL     1       3.349   4.467  17.962  0.00  0.00    +0.000 A 
ATOM      3  C   UNL     1       2.241   3.730  17.560  0.00  0.00    +0.000 A 
ATOM      4  C   UNL     1       2.125   2.432  18.021  0.00  0.00    +0.000 A 
ATOM      5  N   UNL     1       3.024   1.842  18.842  0.00  0.00    +0.000 NA
ATOM      6  C   UNL     1       4.095   2.565  19.226  0.00  0.00    +0.000 A 
ENDROOT
BRANCH   6   7
ATOM      7  N   UNL     1       5.012   1.874  20.015  0.00  0.00    +0.000 N 
ATOM      8  H   UNL     1       5.589   1.310  19.395  0.00  0.00    +0.000 HD
ATOM      9  H   UNL     1       4.586   1.321  20.751  0.00  0.00    +0.000 HD
ENDBRANCH   6   7
BRANCH   1  11
ATOM     10  N   UNL     1       6.353   5.259  19.571  0.00  0.00    +0.000 NA
ATOM     11  C   UNL     1       5.443   4.629  19.214  0.00  0.00    +0.000 C 
ENDBRANCH   1  11
TORSDOF 2
ENDMDL
MODEL 3
REMARK VINA RESULT:      -4.7      3.170      4.965
REMARK  Name = 
REMARK  2 active torsions:
REMARK  status: ('A' for Active; 'I' for Inactive)
REMARK    1  A    between atoms: C_2  and  C_3
REMARK    2  A    between atoms: C_8  and  N_9
REMARK                            x       y       z     vdW  Elec       q    Type
REMARK                         _______ _______ _______ _____ _____    ______ ____
ROOT
ATOM      1  C   UNL     1       5.969   4.597  16.663  0.00  0.00    +0.000 A 
ATOM      2  C   UNL     1       4.586   4.481  16.479  0.00  0.00    +0.000 A 
ATOM      3  C   UNL     1       3.776   4.155  17.561  0.00  0.00    +0.000 A 
ATOM      4  C   UNL     1       4.383   3.962  18.788  0.00  0.00    +0.000 A 
ATOM      5  N   UNL     1       5.715   4.077  18.995  0.00  0.00    +0.000 NA
ATOM      6  C   UNL     1       6.492   4.394  17.940  0.00  0.00    +0.000 A 
ENDROOT
BRANCH   6   7
ATOM      7  N   UNL     1       7.857   4.430  18.211  0.00  0.00    +0.000 N 
ATOM      8  H   UNL     1       8.031   5.234  18.810  0.00  0.00    +0.000 HD
ATOM      9  H   UNL     1       8.441   4.437  17.382  0.00  0.00    +0.000 HD
ENDBRANCH   6   7
BRANCH   1  11
ATOM     10  N   UNL     1       7.458   5.209  14.634  0.00  0.00    +0.000 NA
ATOM     11  C   UNL     1       6.805   4.927  15.554  0.00  0.00    +0.000 C 
ENDBRANCH   1  11
TORSDOF 2
ENDMDL
MODEL 4
REMARK VINA RESULT:      -4.7      3.416      4.246
REMARK  Name = 
REMARK  2 active torsions:
REMARK  status: ('A' for Active; 'I' for Inactive)
REMARK    1  A    between atoms: C_2  and  C_3
REMARK    2  A    between atoms: C_8  and  N_9
REMARK                            x       y       z     vdW  Elec       q    Type
REMARK                         _______ _______ _______ _____ _____    ______ ____
ROOT
ATOM      1  C   UNL     1       5.664   4.350  17.144  0.00  0.00    +0.000 A 
ATOM      2  C   UNL     1       4.918   4.480  15.967  0.00  0.00    +0.000 A 
ATOM      3  C   UNL     1       5.572   4.719  14.764  0.00  0.00    +0.000 A 
ATOM      4  C   UNL     1       6.952   4.813  14.786  0.00  0.00    +0.000 A 
ATOM      5  N   UNL     1       7.697   4.682  15.907  0.00  0.00    +0.000 NA
ATOM      6  C   UNL     1       7.053   4.450  17.068  0.00  0.00    +0.000 A 
ENDROOT
BRANCH   6   7
ATOM      7  N   UNL     1       7.877   4.392  18.190  0.00  0.00    +0.000 N 
ATOM      8  H   UNL     1       8.795   4.081  17.882  0.00  0.00    +0.000 HD
ATOM      9  H   UNL     1       7.509   3.818  18.940  0.00  0.00    +0.000 HD
ENDBRANCH   6   7
BRANCH   1  11
ATOM     10  N   UNL     1       4.433   3.944  19.387  0.00  0.00    +0.000 NA
ATOM     11  C   UNL     1       4.996   4.110  18.383  0.00  0.00    +0.000 C 
ENDBRANCH   1  11
TORSDOF 2
ENDMDL
MODEL 5
REMARK VINA RESULT:      -4.6      1.017      3.217
REMARK  Name = 
REMARK  2 active torsions:
REMARK  status: ('A' for Active; 'I' for Inactive)
REMARK    1  A    between atoms: C_2  and  C_3
REMARK    2  A    between atoms: C_8  and  N_9
REMARK                            x       y       z     vdW  Elec       q    Type
REMARK                         _______ _______ _______ _____ _____    ______ ____
ROOT
ATOM      1  C   UNL     1       2.992   3.433  19.060  0.00  0.00    +0.000 A 
ATOM      2  C   UNL     1       1.697   3.926  19.256  0.00  0.00    +0.000 A 
ATOM      3  C   UNL     1       1.056   3.703  20.469  0.00  0.00    +0.000 A 
ATOM      4  C   UNL     1       1.740   2.999  21.442  0.00  0.00    +0.000 A 
ATOM      5  N   UNL     1       2.995   2.521  21.282  0.00  0.00    +0.000 NA
ATOM      6  C   UNL     1       3.608   2.742  20.102  0.00  0.00    +0.000 A 
ENDROOT
BRANCH   6   7
ATOM      7  N   UNL     1       4.870   2.165  19.983  0.00  0.00    +0.000 N 
ATOM      8  H   UNL     1       5.449   2.800  19.438  0.00  0.00    +0.000 HD
ATOM      9  H   UNL     1       4.859   1.228  19.595  0.00  0.00    +0.000 HD
ENDBRANCH   6   7
BRANCH   1  11
ATOM     10  N   UNL     1       4.165   3.860  16.790  0.00  0.00    +0.000 NA
ATOM     11  C   UNL     1       3.652   3.655  17.813  0.00  0.00    +0.000 C 
ENDBRANCH   1  11
TORSDOF 2
ENDMDL
MODEL 6
REMARK VINA RESULT:      -4.5      5.179      6.760
REMARK  Name = 
REMARK  2 active torsions:
REMARK  status: ('A' for Active; 'I' for Inactive)
REMARK    1  A    between atoms: C_2  and  C_3
REMARK    2  A    between atoms: C_8  and  N_9
REMARK                            x       y       z     vdW  Elec       q    Type
REMARK                         _______ _______ _______ _____ _____    ______ ____
ROOT
ATOM      1  C   UNL     1       6.238   4.195  14.432  0.00  0.00    +0.000 A 
ATOM      2  C   UNL     1       5.486   3.796  15.543  0.00  0.00    +0.000 A 
ATOM      3  C   UNL     1       5.737   4.373  16.782  0.00  0.00    +0.000 A 
ATOM      4  C   UNL     1       6.729   5.332  16.860  0.00  0.00    +0.000 A 
ATOM      5  N   UNL     1       7.463   5.742  15.801  0.00  0.00    +0.000 NA
ATOM      6  C   UNL     1       7.212   5.177  14.603  0.00  0.00    +0.000 A 
ENDROOT
BRANCH   6   7
ATOM      7  N   UNL     1       8.050   5.598  13.572  0.00  0.00    +0.000 N 
ATOM      8  H   UNL     1       8.799   4.915  13.486  0.00  0.00    +0.000 HD
ATOM      9  H   UNL     1       8.403   6.541  13.689  0.00  0.00    +0.000 HD
ENDBRANCH   6   7
BRANCH   1  11
ATOM     10  N   UNL     1       5.779   3.151  12.106  0.00  0.00    +0.000 NA
ATOM     11  C   UNL     1       5.987   3.601  13.157  0.00  0.00    +0.000 C 
ENDBRANCH   1  11
TORSDOF 2
ENDMDL
MODEL 7
REMARK VINA RESULT:      -4.5      2.062      2.216
REMARK  Name = 
REMARK  2 active torsions:
REMARK  status: ('A' for Active; 'I' for Inactive)
REMARK    1  A    between atoms: C_2  and  C_3
REMARK    2  A    between atoms: C_8  and  N_9
REMARK                            x       y       z     vdW  Elec       q    Type
REMARK                         _______ _______ _______ _____ _____    ______ ____
ROOT
ATOM      1  C   UNL     1       1.721   3.693  20.085  0.00  0.00    +0.000 A 
ATOM      2  C   UNL     1       2.219   4.999  20.150  0.00  0.00    +0.000 A 
ATOM      3  C   UNL     1       2.395   5.724  18.976  0.00  0.00    +0.000 A 
ATOM      4  C   UNL     1       2.060   5.112  17.782  0.00  0.00    +0.000 A 
ATOM      5  N   UNL     1       1.569   3.855  17.693  0.00  0.00    +0.000 NA
ATOM      6  C   UNL     1       1.401   3.161  18.836  0.00  0.00    +0.000 A 
ENDROOT
BRANCH   6   7
ATOM      7  N   UNL     1       0.955   1.853  18.664  0.00  0.00    +0.000 N 
ATOM      8  H   UNL     1       0.037   1.781  19.097  0.00  0.00    +0.000 HD
ATOM      9  H   UNL     1       1.598   1.150  19.012  0.00  0.00    +0.000 HD
ENDBRANCH   6   7
BRANCH   1  11
ATOM     10  N   UNL     1       1.396   2.363  22.284  0.00  0.00    +0.000 NA
ATOM     11  C   UNL     1       1.543   2.943  21.287  0.00  0.00    +0.000 C 
ENDBRANCH   1  11
TORSDOF 2
ENDMDL
MODEL 8
REMARK VINA RESULT:      -4.4      1.993      2.856
REMARK  Name = 
REMARK  2 active torsions:
REMARK  status: ('A' for Active; 'I' for Inactive)
REMARK    1  A    between atoms: C_2  and  C_3
REMARK    2  A    between atoms: C_8  and  N_9
REMARK                            x       y       z     vdW  Elec       q    Type
REMARK                         _______ _______ _______ _____ _____    ______ ____
ROOT
ATOM      1  C   UNL     1       3.513   3.603  19.446  0.00  0.00    +0.000 A 
ATOM      2  C   UNL     1       2.631   4.478  20.091  0.00  0.00    +0.000 A 
ATOM      3  C   UNL     1       1.309   4.094  20.288  0.00  0.00    +0.000 A 
ATOM      4  C   UNL     1       0.923   2.846  19.835  0.00  0.00    +0.000 A 
ATOM      5  N   UNL     1       1.758   1.979  19.218  0.00  0.00    +0.000 NA
ATOM      6  C   UNL     1       3.038   2.359  19.032  0.00  0.00    +0.000 A 
ENDROOT
BRANCH   6   7
ATOM      7  N   UNL     1       3.822   1.446  18.333  0.00  0.00    +0.000 N 
ATOM      8  H   UNL     1       3.376   0.534  18.410  0.00  0.00    +0.000 HD
ATOM      9  H   UNL     1       4.791   1.425  18.629  0.00  0.00    +0.000 HD
ENDBRANCH   6   7
BRANCH   1  11
ATOM     10  N   UNL     1       5.976   4.327  19.100  0.00  0.00    +0.000 NA
ATOM     11  C   UNL     1       4.871   3.995  19.237  0.00  0.00    +0.000 C 
ENDBRANCH   1  11
TORSDOF 2
ENDMDL
MODEL 9
REMARK VINA RESULT:      -4.4      1.676      3.143
REMARK  Name = 
REMARK  2 active torsions:
REMARK  status: ('A' for Active; 'I' for Inactive)
REMARK    1  A    between atoms: C_2  and  C_3
REMARK    2  A    between atoms: C_8  and  N_9
REMARK                            x       y       z     vdW  Elec       q    Type
REMARK                         _______ _______ _______ _____ _____    ______ ____
ROOT
ATOM      1  C   UNL     1       3.294   4.320  18.010  0.00  0.00    +0.000 A 
ATOM      2  C   UNL     1       1.917   4.164  17.816  0.00  0.00    +0.000 A 
ATOM      3  C   UNL     1       1.265   3.077  18.388  0.00  0.00    +0.000 A 
ATOM      4  C   UNL     1       2.017   2.191  19.137  0.00  0.00    +0.000 A 
ATOM      5  N   UNL     1       3.347   2.325  19.347  0.00  0.00    +0.000 NA
ATOM      6  C   UNL     1       3.970   3.382  18.789  0.00  0.00    +0.000 A 
ENDROOT
BRANCH   6   7
ATOM      7  N   UNL     1       5.348   3.420  18.992  0.00  0.00    +0.000 N 
ATOM      8  H   UNL     1       5.514   3.862  19.893  0.00  0.00    +0.000 HD
ATOM      9  H   UNL     1       5.860   3.873  18.243  0.00  0.00    +0.000 HD
ENDBRANCH   6   7
BRANCH   1  11
ATOM     10  N   UNL     1       4.549   6.318  16.939  0.00  0.00    +0.000 NA
ATOM     11  C   UNL     1       3.970   5.433  17.421  0.00  0.00    +0.000 C 
ENDBRANCH   1  11
TORSDOF 2
ENDMDL
