MODEL 1
REMARK VINA RESULT:      -6.3      0.000      0.000
REMARK  Name = 
REMARK  20 active torsions:
REMARK  status: ('A' for Active; 'I' for Inactive)
REMARK    1  A    between atoms: C_1  and  C_2
REMARK    2  A    between atoms: C_2  and  C_3
REMARK    3  A    between atoms: C_3  and  C_4
REMARK    4  A    between atoms: C_4  and  C_5
REMARK    5  A    between atoms: C_5  and  C_6
REMARK    6  A    between atoms: C_6  and  C_7
REMARK    7  A    between atoms: C_7  and  C_8
REMARK    8  A    between atoms: C_8  and  C_9
REMARK    9  A    between atoms: C_10  and  C_11
REMARK   10  A    between atoms: C_11  and  C_12
REMARK   11  A    between atoms: C_12  and  C_13
REMARK   12  A    between atoms: C_13  and  C_14
REMARK   13  A    between atoms: C_14  and  C_15
REMARK   14  A    between atoms: C_15  and  C_16
REMARK   15  A    between atoms: C_16  and  C_17
REMARK   16  A    between atoms: C_17  and  C_18
REMARK   17  A    between atoms: C_21  and  C_22
REMARK   18  A    between atoms: C_22  and  O_23
REMARK   19  A    between atoms: O_23  and  P_24
REMARK   20  A    between atoms: P_24  and  O_27
REMARK                            x       y       z     vdW  Elec       q    Type
REMARK                         _______ _______ _______ _____ _____    ______ ____
ROOT
ATOM      1  C   UNL     1       1.100   4.488  20.507  0.00  0.00    +0.000 C 
ENDROOT
BRANCH   1   2
ATOM      2  C   UNL     1       2.322   5.401  20.607  0.00  0.00    +0.000 C 
BRANCH   2   3
ATOM      3  C   UNL     1       2.433   6.377  19.439  0.00  0.00    +0.000 C 
BRANCH   3   4
ATOM      4  C   UNL     1       1.494   7.584  19.541  0.00  0.00    +0.000 C 
ATOM      5  C   UNL     1       1.404   8.219  20.923  0.00  0.00    +0.000 C 
ATOM      6  C   UNL     1       0.774   9.588  20.659  0.00  0.00    +0.000 C 
ATOM      7  C   UNL     1       1.208   9.991  19.235  0.00  0.00    +0.000 C 
ATOM      8  C   UNL     1       1.959   8.755  18.680  0.00  0.00    +0.000 C 
BRANCH   7   9
ATOM      9  C   UNL     1       0.045  10.282  18.286  0.00  0.00    +0.000 C 
BRANCH   9  10
ATOM     10  O   UNL     1      -1.281  10.137  18.805  0.00  0.00    +0.000 OA
BRANCH  10  11
ATOM     11  P   UNL     1      -2.054  11.568  18.637  0.00  0.00    +0.000 P 
ATOM     12  O   UNL     1      -3.494  11.296  18.287  0.00  0.00    +0.000 OA
ATOM     13  O   UNL     1      -1.676  12.516  19.733  0.00  0.00    +0.000 OA
BRANCH  11  14
ATOM     14  O   UNL     1      -1.462  12.109  17.247  0.00  0.00    +0.000 OA
ATOM     15  H   UNL     1      -1.889  12.983  17.205  0.00  0.00    +0.000 HD
ENDBRANCH  11  14
ENDBRANCH  10  11
ENDBRANCH   9  10
ENDBRANCH   7   9
ENDBRANCH   3   4
ENDBRANCH   2   3
ENDBRANCH   1   2
BRANCH   1  16
ATOM     16  C   UNL     1       1.539   3.034  20.535  0.00  0.00    +0.000 C 
BRANCH  16  17
ATOM     17  C   UNL     1       0.851   2.215  19.443  0.00  0.00    +0.000 C 
BRANCH  17  18
ATOM     18  C   UNL     1       1.669   2.185  18.152  0.00  0.00    +0.000 C 
BRANCH  18  19
ATOM     19  C   UNL     1       3.128   1.803  18.407  0.00  0.00    +0.000 C 
BRANCH  19  21
ATOM     20  C   UNL     1       3.673   3.708  16.905  0.00  0.00    +0.000 C 
ATOM     21  C   UNL     1       4.049   2.850  17.869  0.00  0.00    +0.000 C 
BRANCH  20  22
ATOM     22  C   UNL     1       4.562   4.780  16.376  0.00  0.00    +0.000 C 
BRANCH  22  23
ATOM     23  C   UNL     1       5.717   4.160  15.598  0.00  0.00    +0.000 C 
BRANCH  23  24
ATOM     24  C   UNL     1       6.987   4.972  15.805  0.00  0.00    +0.000 C 
BRANCH  24  25
ATOM     25  C   UNL     1       7.698   4.540  17.078  0.00  0.00    +0.000 C 
BRANCH  25  26
ATOM     26  C   UNL     1       7.078   5.218  18.294  0.00  0.00    +0.000 C 
BRANCH  26  27
ATOM     27  C   UNL     1       7.837   6.492  18.636  0.00  0.00    +0.000 C 
BRANCH  27  29
ATOM     28  C   UNL     1       8.198   8.892  18.015  0.00  0.00    +0.000 C 
ATOM     29  C   UNL     1       7.632   7.558  17.564  0.00  0.00    +0.000 C 
ENDBRANCH  27  29
ENDBRANCH  26  27
ENDBRANCH  25  26
ENDBRANCH  24  25
ENDBRANCH  23  24
ENDBRANCH  22  23
ENDBRANCH  20  22
ENDBRANCH  19  21
ENDBRANCH  18  19
ENDBRANCH  17  18
ENDBRANCH  16  17
ENDBRANCH   1  16
TORSDOF 19
ENDMDL
MODEL 2
REMARK VINA RESULT:      -6.0      6.143      9.080
REMARK  Name = 
REMARK  20 active torsions:
REMARK  status: ('A' for Active; 'I' for Inactive)
REMARK    1  A    between atoms: C_1  and  C_2
REMARK    2  A    between atoms: C_2  and  C_3
REMARK    3  A    between atoms: C_3  and  C_4
REMARK    4  A    between atoms: C_4  and  C_5
REMARK    5  A    between atoms: C_5  and  C_6
REMARK    6  A    between atoms: C_6  and  C_7
REMARK    7  A    between atoms: C_7  and  C_8
REMARK    8  A    between atoms: C_8  and  C_9
REMARK    9  A    between atoms: C_10  and  C_11
REMARK   10  A    between atoms: C_11  and  C_12
REMARK   11  A    between atoms: C_12  and  C_13
REMARK   12  A    between atoms: C_13  and  C_14
REMARK   13  A    between atoms: C_14  and  C_15
REMARK   14  A    between atoms: C_15  and  C_16
REMARK   15  A    between atoms: C_16  and  C_17
REMARK   16  A    between atoms: C_17  and  C_18
REMARK   17  A    between atoms: C_21  and  C_22
REMARK   18  A    between atoms: C_22  and  O_23
REMARK   19  A    between atoms: O_23  and  P_24
REMARK   20  A    between atoms: P_24  and  O_27
REMARK                            x       y       z     vdW  Elec       q    Type
REMARK                         _______ _______ _______ _____ _____    ______ ____
ROOT
ATOM      1  C   UNL     1       7.905   8.506  17.745  0.00  0.00    +0.000 C 
ENDROOT
BRANCH   1   2
ATOM      2  C   UNL     1       8.978   9.253  18.536  0.00  0.00    +0.000 C 
BRANCH   2   3
ATOM      3  C   UNL     1       8.598  10.701  18.834  0.00  0.00    +0.000 C 
BRANCH   3   4
ATOM      4  C   UNL     1       9.768  11.685  18.747  0.00  0.00    +0.000 C 
ATOM      5  C   UNL     1      10.798  11.372  17.669  0.00  0.00    +0.000 C 
ATOM      6  C   UNL     1      11.582  12.676  17.517  0.00  0.00    +0.000 C 
ATOM      7  C   UNL     1      10.599  13.810  17.872  0.00  0.00    +0.000 C 
ATOM      8  C   UNL     1       9.317  13.091  18.359  0.00  0.00    +0.000 C 
BRANCH   7   9
ATOM      9  C   UNL     1      11.073  14.716  19.009  0.00  0.00    +0.000 C 
BRANCH   9  10
ATOM     10  O   UNL     1      11.712  15.944  18.650  0.00  0.00    +0.000 OA
BRANCH  10  11
ATOM     11  P   UNL     1      10.551  17.056  18.351  0.00  0.00    +0.000 P 
ATOM     12  O   UNL     1      10.307  17.105  16.865  0.00  0.00    +0.000 OA
ATOM     13  O   UNL     1       9.425  16.935  19.330  0.00  0.00    +0.000 OA
BRANCH  11  14
ATOM     14  O   UNL     1      11.329  18.435  18.614  0.00  0.00    +0.000 OA
ATOM     15  H   UNL     1      10.935  18.992  17.920  0.00  0.00    +0.000 HD
ENDBRANCH  11  14
ENDBRANCH  10  11
ENDBRANCH   9  10
ENDBRANCH   7   9
ENDBRANCH   3   4
ENDBRANCH   2   3
ENDBRANCH   1   2
BRANCH   1  16
ATOM     16  C   UNL     1       7.849   7.055  18.194  0.00  0.00    +0.000 C 
BRANCH  16  17
ATOM     17  C   UNL     1       7.135   6.174  17.170  0.00  0.00    +0.000 C 
BRANCH  17  18
ATOM     18  C   UNL     1       5.909   6.868  16.577  0.00  0.00    +0.000 C 
BRANCH  18  19
ATOM     19  C   UNL     1       4.639   6.569  17.374  0.00  0.00    +0.000 C 
BRANCH  19  21
ATOM     20  C   UNL     1       3.859   4.208  17.369  0.00  0.00    +0.000 C 
ATOM     21  C   UNL     1       4.653   5.164  17.882  0.00  0.00    +0.000 C 
BRANCH  20  22
ATOM     22  C   UNL     1       3.880   2.794  17.836  0.00  0.00    +0.000 C 
BRANCH  22  23
ATOM     23  C   UNL     1       2.559   2.114  17.489  0.00  0.00    +0.000 C 
BRANCH  23  24
ATOM     24  C   UNL     1       1.519   2.409  18.559  0.00  0.00    +0.000 C 
BRANCH  24  25
ATOM     25  C   UNL     1       2.111   2.221  19.948  0.00  0.00    +0.000 C 
BRANCH  25  26
ATOM     26  C   UNL     1       1.267   2.945  20.991  0.00  0.00    +0.000 C 
BRANCH  26  27
ATOM     27  C   UNL     1       1.019   4.386  20.566  0.00  0.00    +0.000 C 
BRANCH  27  29
ATOM     28  C   UNL     1       2.122   6.581  20.077  0.00  0.00    +0.000 C 
ATOM     29  C   UNL     1       2.263   5.243  20.778  0.00  0.00    +0.000 C 
ENDBRANCH  27  29
ENDBRANCH  26  27
ENDBRANCH  25  26
ENDBRANCH  24  25
ENDBRANCH  23  24
ENDBRANCH  22  23
ENDBRANCH  20  22
ENDBRANCH  19  21
ENDBRANCH  18  19
ENDBRANCH  17  18
ENDBRANCH  16  17
ENDBRANCH   1  16
TORSDOF 19
ENDMDL
MODEL 3
REMARK VINA RESULT:      -6.0      2.532      4.143
REMARK  Name = 
REMARK  20 active torsions:
REMARK  status: ('A' for Active; 'I' for Inactive)
REMARK    1  A    between atoms: C_1  and  C_2
REMARK    2  A    between atoms: C_2  and  C_3
REMARK    3  A    between atoms: C_3  and  C_4
REMARK    4  A    between atoms: C_4  and  C_5
REMARK    5  A    between atoms: C_5  and  C_6
REMARK    6  A    between atoms: C_6  and  C_7
REMARK    7  A    between atoms: C_7  and  C_8
REMARK    8  A    between atoms: C_8  and  C_9
REMARK    9  A    between atoms: C_10  and  C_11
REMARK   10  A    between atoms: C_11  and  C_12
REMARK   11  A    between atoms: C_12  and  C_13
REMARK   12  A    between atoms: C_13  and  C_14
REMARK   13  A    between atoms: C_14  and  C_15
REMARK   14  A    between atoms: C_15  and  C_16
REMARK   15  A    between atoms: C_16  and  C_17
REMARK   16  A    between atoms: C_17  and  C_18
REMARK   17  A    between atoms: C_21  and  C_22
REMARK   18  A    between atoms: C_22  and  O_23
REMARK   19  A    between atoms: O_23  and  P_24
REMARK   20  A    between atoms: P_24  and  O_27
REMARK                            x       y       z     vdW  Elec       q    Type
REMARK                         _______ _______ _______ _____ _____    ______ ____
ROOT
ATOM      1  C   UNL     1       1.128   4.621  19.711  0.00  0.00    +0.000 C 
ENDROOT
BRANCH   1   2
ATOM      2  C   UNL     1       1.687   5.855  20.417  0.00  0.00    +0.000 C 
BRANCH   2   3
ATOM      3  C   UNL     1       2.674   6.638  19.555  0.00  0.00    +0.000 C 
BRANCH   3   4
ATOM      4  C   UNL     1       2.280   8.100  19.323  0.00  0.00    +0.000 C 
ATOM      5  C   UNL     1       1.673   8.398  17.957  0.00  0.00    +0.000 C 
ATOM      6  C   UNL     1       1.006   9.762  18.140  0.00  0.00    +0.000 C 
ATOM      7  C   UNL     1       0.592   9.841  19.624  0.00  0.00    +0.000 C 
ATOM      8  C   UNL     1       1.176   8.561  20.271  0.00  0.00    +0.000 C 
BRANCH   7   9
ATOM      9  C   UNL     1       1.177  11.039  20.373  0.00  0.00    +0.000 C 
BRANCH   9  10
ATOM     10  O   UNL     1       1.300  12.270  19.654  0.00  0.00    +0.000 OA
BRANCH  10  11
ATOM     11  P   UNL     1       0.240  13.341  20.289  0.00  0.00    +0.000 P 
ATOM     12  O   UNL     1       0.777  14.732  20.072  0.00  0.00    +0.000 OA
ATOM     13  O   UNL     1      -1.168  12.977  19.938  0.00  0.00    +0.000 OA
BRANCH  11  14
ATOM     14  O   UNL     1       0.458  13.135  21.866  0.00  0.00    +0.000 OA
ATOM     15  H   UNL     1       0.485  14.062  22.160  0.00  0.00    +0.000 HD
ENDBRANCH  11  14
ENDBRANCH  10  11
ENDBRANCH   9  10
ENDBRANCH   7   9
ENDBRANCH   3   4
ENDBRANCH   2   3
ENDBRANCH   1   2
BRANCH   1  16
ATOM     16  C   UNL     1       1.288   3.401  20.602  0.00  0.00    +0.000 C 
BRANCH  16  17
ATOM     17  C   UNL     1       1.606   2.146  19.790  0.00  0.00    +0.000 C 
BRANCH  17  18
ATOM     18  C   UNL     1       3.106   2.000  19.530  0.00  0.00    +0.000 C 
BRANCH  18  19
ATOM     19  C   UNL     1       3.431   2.013  18.036  0.00  0.00    +0.000 C 
BRANCH  19  21
ATOM     20  C   UNL     1       4.761   3.631  16.695  0.00  0.00    +0.000 C 
ATOM     21  C   UNL     1       3.779   3.394  17.583  0.00  0.00    +0.000 C 
BRANCH  20  22
ATOM     22  C   UNL     1       5.103   4.994  16.203  0.00  0.00    +0.000 C 
BRANCH  22  23
ATOM     23  C   UNL     1       6.000   4.892  14.973  0.00  0.00    +0.000 C 
BRANCH  23  24
ATOM     24  C   UNL     1       5.364   3.980  13.934  0.00  0.00    +0.000 C 
BRANCH  24  25
ATOM     25  C   UNL     1       6.286   3.808  12.736  0.00  0.00    +0.000 C 
BRANCH  25  26
ATOM     26  C   UNL     1       5.559   3.098  11.600  0.00  0.00    +0.000 C 
BRANCH  26  27
ATOM     27  C   UNL     1       4.064   3.373  11.673  0.00  0.00    +0.000 C 
BRANCH  27  29
ATOM     28  C   UNL     1       3.030   4.299   9.588  0.00  0.00    +0.000 C 
ATOM     29  C   UNL     1       3.378   3.035  10.353  0.00  0.00    +0.000 C 
ENDBRANCH  27  29
ENDBRANCH  26  27
ENDBRANCH  25  26
ENDBRANCH  24  25
ENDBRANCH  23  24
ENDBRANCH  22  23
ENDBRANCH  20  22
ENDBRANCH  19  21
ENDBRANCH  18  19
ENDBRANCH  17  18
ENDBRANCH  16  17
ENDBRANCH   1  16
TORSDOF 19
ENDMDL
MODEL 4
REMARK VINA RESULT:      -6.0      4.874      8.125
REMARK  Name = 
REMARK  20 active torsions:
REMARK  status: ('A' for Active; 'I' for Inactive)
REMARK    1  A    between atoms: C_1  and  C_2
REMARK    2  A    between atoms: C_2  and  C_3
REMARK    3  A    between atoms: C_3  and  C_4
REMARK    4  A    between atoms: C_4  and  C_5
REMARK    5  A    between atoms: C_5  and  C_6
REMARK    6  A    between atoms: C_6  and  C_7
REMARK    7  A    between atoms: C_7  and  C_8
REMARK    8  A    between atoms: C_8  and  C_9
REMARK    9  A    between atoms: C_10  and  C_11
REMARK   10  A    between atoms: C_11  and  C_12
REMARK   11  A    between atoms: C_12  and  C_13
REMARK   12  A    between atoms: C_13  and  C_14
REMARK   13  A    between atoms: C_14  and  C_15
REMARK   14  A    between atoms: C_15  and  C_16
REMARK   15  A    between atoms: C_16  and  C_17
REMARK   16  A    between atoms: C_17  and  C_18
REMARK   17  A    between atoms: C_21  and  C_22
REMARK   18  A    between atoms: C_22  and  O_23
REMARK   19  A    between atoms: O_23  and  P_24
REMARK   20  A    between atoms: P_24  and  O_27
REMARK                            x       y       z     vdW  Elec       q    Type
REMARK                         _______ _______ _______ _____ _____    ______ ____
ROOT
ATOM      1  C   UNL     1       2.089   1.817  19.328  0.00  0.00    +0.000 C 
ENDROOT
BRANCH   1   2
ATOM      2  C   UNL     1       3.246   2.013  18.349  0.00  0.00    +0.000 C 
BRANCH   2   3
ATOM      3  C   UNL     1       4.308   2.978  18.868  0.00  0.00    +0.000 C 
BRANCH   3   4
ATOM      4  C   UNL     1       4.574   4.172  17.945  0.00  0.00    +0.000 C 
ATOM      5  C   UNL     1       3.380   5.091  17.716  0.00  0.00    +0.000 C 
ATOM      6  C   UNL     1       4.002   6.366  17.143  0.00  0.00    +0.000 C 
ATOM      7  C   UNL     1       5.422   6.454  17.737  0.00  0.00    +0.000 C 
ATOM      8  C   UNL     1       5.611   5.132  18.522  0.00  0.00    +0.000 C 
BRANCH   7   9
ATOM      9  C   UNL     1       6.534   6.524  16.689  0.00  0.00    +0.000 C 
BRANCH   9  10
ATOM     10  O   UNL     1       6.175   6.267  15.328  0.00  0.00    +0.000 OA
BRANCH  10  11
ATOM     11  P   UNL     1       6.929   4.897  14.852  0.00  0.00    +0.000 P 
ATOM     12  O   UNL     1       7.736   4.367  16.008  0.00  0.00    +0.000 OA
ATOM     13  O   UNL     1       6.003   4.017  14.070  0.00  0.00    +0.000 OA
BRANCH  11  14
ATOM     14  O   UNL     1       8.067   5.462  13.873  0.00  0.00    +0.000 OA
ATOM     15  H   UNL     1       8.541   4.639  13.663  0.00  0.00    +0.000 HD
ENDBRANCH  11  14
ENDBRANCH  10  11
ENDBRANCH   9  10
ENDBRANCH   7   9
ENDBRANCH   3   4
ENDBRANCH   2   3
ENDBRANCH   1   2
BRANCH   1  16
ATOM     16  C   UNL     1       1.182   3.037  19.304  0.00  0.00    +0.000 C 
BRANCH  16  17
ATOM     17  C   UNL     1       0.937   3.585  20.709  0.00  0.00    +0.000 C 
BRANCH  17  18
ATOM     18  C   UNL     1       2.048   4.539  21.152  0.00  0.00    +0.000 C 
BRANCH  18  19
ATOM     19  C   UNL     1       2.095   5.801  20.290  0.00  0.00    +0.000 C 
BRANCH  19  21
ATOM     20  C   UNL     1       1.665   8.179  20.877  0.00  0.00    +0.000 C 
ATOM     21  C   UNL     1       1.278   6.891  20.904  0.00  0.00    +0.000 C 
BRANCH  20  22
ATOM     22  C   UNL     1       0.852   9.286  21.453  0.00  0.00    +0.000 C 
BRANCH  22  23
ATOM     23  C   UNL     1      -0.386   9.521  20.594  0.00  0.00    +0.000 C 
BRANCH  23  24
ATOM     24  C   UNL     1       0.011  10.107  19.247  0.00  0.00    +0.000 C 
BRANCH  24  25
ATOM     25  C   UNL     1      -1.213  10.309  18.368  0.00  0.00    +0.000 C 
BRANCH  25  26
ATOM     26  C   UNL     1      -1.440  11.791  18.100  0.00  0.00    +0.000 C 
BRANCH  26  27
ATOM     27  C   UNL     1      -0.287  12.614  18.656  0.00  0.00    +0.000 C 
BRANCH  27  29
ATOM     28  C   UNL     1       0.145  14.017  20.686  0.00  0.00    +0.000 C 
ATOM     29  C   UNL     1      -0.798  13.759  19.526  0.00  0.00    +0.000 C 
ENDBRANCH  27  29
ENDBRANCH  26  27
ENDBRANCH  25  26
ENDBRANCH  24  25
ENDBRANCH  23  24
ENDBRANCH  22  23
ENDBRANCH  20  22
ENDBRANCH  19  21
ENDBRANCH  18  19
ENDBRANCH  17  18
ENDBRANCH  16  17
ENDBRANCH   1  16
TORSDOF 19
ENDMDL
MODEL 5
REMARK VINA RESULT:      -6.0      2.894      4.629
REMARK  Name = 
REMARK  20 active torsions:
REMARK  status: ('A' for Active; 'I' for Inactive)
REMARK    1  A    between atoms: C_1  and  C_2
REMARK    2  A    between atoms: C_2  and  C_3
REMARK    3  A    between atoms: C_3  and  C_4
REMARK    4  A    between atoms: C_4  and  C_5
REMARK    5  A    between atoms: C_5  and  C_6
REMARK    6  A    between atoms: C_6  and  C_7
REMARK    7  A    between atoms: C_7  and  C_8
REMARK    8  A    between atoms: C_8  and  C_9
REMARK    9  A    between atoms: C_10  and  C_11
REMARK   10  A    between atoms: C_11  and  C_12
REMARK   11  A    between atoms: C_12  and  C_13
REMARK   12  A    between atoms: C_13  and  C_14
REMARK   13  A    between atoms: C_14  and  C_15
REMARK   14  A    between atoms: C_15  and  C_16
REMARK   15  A    between atoms: C_16  and  C_17
REMARK   16  A    between atoms: C_17  and  C_18
REMARK   17  A    between atoms: C_21  and  C_22
REMARK   18  A    between atoms: C_22  and  O_23
REMARK   19  A    between atoms: O_23  and  P_24
REMARK   20  A    between atoms: P_24  and  O_27
REMARK                            x       y       z     vdW  Elec       q    Type
REMARK                         _______ _______ _______ _____ _____    ______ ____
ROOT
ATOM      1  C   UNL     1       1.958   6.197  19.326  0.00  0.00    +0.000 C 
ENDROOT
BRANCH   1   2
ATOM      2  C   UNL     1       2.652   7.195  18.399  0.00  0.00    +0.000 C 
BRANCH   2   3
ATOM      3  C   UNL     1       1.689   8.212  17.792  0.00  0.00    +0.000 C 
BRANCH   3   4
ATOM      4  C   UNL     1       1.528   9.492  18.619  0.00  0.00    +0.000 C 
ATOM      5  C   UNL     1       2.187  10.732  18.026  0.00  0.00    +0.000 C 
ATOM      6  C   UNL     1       1.540  11.891  18.786  0.00  0.00    +0.000 C 
ATOM      7  C   UNL     1       0.124  11.415  19.169  0.00  0.00    +0.000 C 
ATOM      8  C   UNL     1       0.070   9.929  18.735  0.00  0.00    +0.000 C 
BRANCH   7   9
ATOM      9  C   UNL     1      -0.166  11.461  20.670  0.00  0.00    +0.000 C 
BRANCH   9  10
ATOM     10  O   UNL     1       0.688  10.701  21.530  0.00  0.00    +0.000 OA
BRANCH  10  11
ATOM     11  P   UNL     1      -0.234  10.032  22.703  0.00  0.00    +0.000 P 
ATOM     12  O   UNL     1       0.670   9.565  23.815  0.00  0.00    +0.000 OA
ATOM     13  O   UNL     1      -1.448  10.864  22.973  0.00  0.00    +0.000 OA
BRANCH  11  14
ATOM     14  O   UNL     1      -0.685   8.648  22.028  0.00  0.00    +0.000 OA
ATOM     15  H   UNL     1      -1.435   8.954  21.488  0.00  0.00    +0.000 HD
ENDBRANCH  11  14
ENDBRANCH  10  11
ENDBRANCH   9  10
ENDBRANCH   7   9
ENDBRANCH   3   4
ENDBRANCH   2   3
ENDBRANCH   1   2
BRANCH   1  16
ATOM     16  C   UNL     1       1.663   4.912  18.572  0.00  0.00    +0.000 C 
BRANCH  16  17
ATOM     17  C   UNL     1       2.900   4.387  17.844  0.00  0.00    +0.000 C 
BRANCH  17  18
ATOM     18  C   UNL     1       3.809   3.580  18.771  0.00  0.00    +0.000 C 
BRANCH  18  19
ATOM     19  C   UNL     1       5.109   4.320  19.085  0.00  0.00    +0.000 C 
BRANCH  19  21
ATOM     20  C   UNL     1       6.692   4.408  17.170  0.00  0.00    +0.000 C 
ATOM     21  C   UNL     1       5.669   4.952  17.852  0.00  0.00    +0.000 C 
BRANCH  20  22
ATOM     22  C   UNL     1       7.244   5.002  15.920  0.00  0.00    +0.000 C 
BRANCH  22  23
ATOM     23  C   UNL     1       6.180   4.996  14.828  0.00  0.00    +0.000 C 
BRANCH  23  24
ATOM     24  C   UNL     1       6.287   3.725  13.998  0.00  0.00    +0.000 C 
BRANCH  24  25
ATOM     25  C   UNL     1       6.511   4.061  12.531  0.00  0.00    +0.000 C 
BRANCH  25  26
ATOM     26  C   UNL     1       6.351   2.816  11.667  0.00  0.00    +0.000 C 
BRANCH  26  27
ATOM     27  C   UNL     1       4.879   2.457  11.519  0.00  0.00    +0.000 C 
BRANCH  27  29
ATOM     28  C   UNL     1       3.114   3.463  10.053  0.00  0.00    +0.000 C 
ATOM     29  C   UNL     1       4.038   3.697  11.235  0.00  0.00    +0.000 C 
ENDBRANCH  27  29
ENDBRANCH  26  27
ENDBRANCH  25  26
ENDBRANCH  24  25
ENDBRANCH  23  24
ENDBRANCH  22  23
ENDBRANCH  20  22
ENDBRANCH  19  21
ENDBRANCH  18  19
ENDBRANCH  17  18
ENDBRANCH  16  17
ENDBRANCH   1  16
TORSDOF 19
ENDMDL
MODEL 6
REMARK VINA RESULT:      -5.9      1.955      3.513
REMARK  Name = 
REMARK  20 active torsions:
REMARK  status: ('A' for Active; 'I' for Inactive)
REMARK    1  A    between atoms: C_1  and  C_2
REMARK    2  A    between atoms: C_2  and  C_3
REMARK    3  A    between atoms: C_3  and  C_4
REMARK    4  A    between atoms: C_4  and  C_5
REMARK    5  A    between atoms: C_5  and  C_6
REMARK    6  A    between atoms: C_6  and  C_7
REMARK    7  A    between atoms: C_7  and  C_8
REMARK    8  A    between atoms: C_8  and  C_9
REMARK    9  A    between atoms: C_10  and  C_11
REMARK   10  A    between atoms: C_11  and  C_12
REMARK   11  A    between atoms: C_12  and  C_13
REMARK   12  A    between atoms: C_13  and  C_14
REMARK   13  A    between atoms: C_14  and  C_15
REMARK   14  A    between atoms: C_15  and  C_16
REMARK   15  A    between atoms: C_16  and  C_17
REMARK   16  A    between atoms: C_17  and  C_18
REMARK   17  A    between atoms: C_21  and  C_22
REMARK   18  A    between atoms: C_22  and  O_23
REMARK   19  A    between atoms: O_23  and  P_24
REMARK   20  A    between atoms: P_24  and  O_27
REMARK                            x       y       z     vdW  Elec       q    Type
REMARK                         _______ _______ _______ _____ _____    ______ ____
ROOT
ATOM      1  C   UNL     1       1.859   4.785  17.895  0.00  0.00    +0.000 C 
ENDROOT
BRANCH   1   2
ATOM      2  C   UNL     1       2.469   6.185  17.967  0.00  0.00    +0.000 C 
BRANCH   2   3
ATOM      3  C   UNL     1       2.490   6.752  19.384  0.00  0.00    +0.000 C 
BRANCH   3   4
ATOM      4  C   UNL     1       2.073   8.222  19.476  0.00  0.00    +0.000 C 
ATOM      5  C   UNL     1       1.442   8.796  18.213  0.00  0.00    +0.000 C 
ATOM      6  C   UNL     1       0.759  10.078  18.692  0.00  0.00    +0.000 C 
ATOM      7  C   UNL     1       0.365   9.830  20.162  0.00  0.00    +0.000 C 
ATOM      8  C   UNL     1       0.976   8.451  20.514  0.00  0.00    +0.000 C 
BRANCH   7   9
ATOM      9  C   UNL     1       0.944  10.849  21.145  0.00  0.00    +0.000 C 
BRANCH   9  10
ATOM     10  O   UNL     1       0.332  12.141  21.191  0.00  0.00    +0.000 OA
BRANCH  10  11
ATOM     11  P   UNL     1      -0.899  12.085  22.265  0.00  0.00    +0.000 P 
ATOM     12  O   UNL     1      -2.199  12.068  21.503  0.00  0.00    +0.000 OA
ATOM     13  O   UNL     1      -0.615  11.104  23.359  0.00  0.00    +0.000 OA
BRANCH  11  14
ATOM     14  O   UNL     1      -0.882  13.570  22.875  0.00  0.00    +0.000 OA
ATOM     15  H   UNL     1      -0.428  14.047  22.158  0.00  0.00    +0.000 HD
ENDBRANCH  11  14
ENDBRANCH  10  11
ENDBRANCH   9  10
ENDBRANCH   7   9
ENDBRANCH   3   4
ENDBRANCH   2   3
ENDBRANCH   1   2
BRANCH   1  16
ATOM     16  C   UNL     1       1.552   4.283  19.296  0.00  0.00    +0.000 C 
BRANCH  16  17
ATOM     17  C   UNL     1       2.160   2.904  19.547  0.00  0.00    +0.000 C 
BRANCH  17  18
ATOM     18  C   UNL     1       3.521   2.997  20.238  0.00  0.00    +0.000 C 
BRANCH  18  19
ATOM     19  C   UNL     1       4.674   2.996  19.234  0.00  0.00    +0.000 C 
BRANCH  19  21
ATOM     20  C   UNL     1       6.590   4.567  19.020  0.00  0.00    +0.000 C 
ATOM     21  C   UNL     1       5.263   4.363  19.104  0.00  0.00    +0.000 C 
BRANCH  20  22
ATOM     22  C   UNL     1       7.198   5.916  18.857  0.00  0.00    +0.000 C 
BRANCH  22  23
ATOM     23  C   UNL     1       7.289   6.269  17.376  0.00  0.00    +0.000 C 
BRANCH  23  24
ATOM     24  C   UNL     1       5.985   6.897  16.905  0.00  0.00    +0.000 C 
BRANCH  24  25
ATOM     25  C   UNL     1       5.327   6.032  15.841  0.00  0.00    +0.000 C 
BRANCH  25  26
ATOM     26  C   UNL     1       6.378   5.250  15.062  0.00  0.00    +0.000 C 
BRANCH  26  27
ATOM     27  C   UNL     1       5.891   3.835  14.785  0.00  0.00    +0.000 C 
BRANCH  27  29
ATOM     28  C   UNL     1       6.611   3.713  12.389  0.00  0.00    +0.000 C 
ATOM     29  C   UNL     1       5.428   3.687  13.339  0.00  0.00    +0.000 C 
ENDBRANCH  27  29
ENDBRANCH  26  27
ENDBRANCH  25  26
ENDBRANCH  24  25
ENDBRANCH  23  24
ENDBRANCH  22  23
ENDBRANCH  20  22
ENDBRANCH  19  21
ENDBRANCH  18  19
ENDBRANCH  17  18
ENDBRANCH  16  17
ENDBRANCH   1  16
TORSDOF 19
ENDMDL
MODEL 7
REMARK VINA RESULT:      -5.9      2.081      2.716
REMARK  Name = 
REMARK  20 active torsions:
REMARK  status: ('A' for Active; 'I' for Inactive)
REMARK    1  A    between atoms: C_1  and  C_2
REMARK    2  A    between atoms: C_2  and  C_3
REMARK    3  A    between atoms: C_3  and  C_4
REMARK    4  A    between atoms: C_4  and  C_5
REMARK    5  A    between atoms: C_5  and  C_6
REMARK    6  A    between atoms: C_6  and  C_7
REMARK    7  A    between atoms: C_7  and  C_8
REMARK    8  A    between atoms: C_8  and  C_9
REMARK    9  A    between atoms: C_10  and  C_11
REMARK   10  A    between atoms: C_11  and  C_12
REMARK   11  A    between atoms: C_12  and  C_13
REMARK   12  A    between atoms: C_13  and  C_14
REMARK   13  A    between atoms: C_14  and  C_15
REMARK   14  A    between atoms: C_15  and  C_16
REMARK   15  A    between atoms: C_16  and  C_17
REMARK   16  A    between atoms: C_17  and  C_18
REMARK   17  A    between atoms: C_21  and  C_22
REMARK   18  A    between atoms: C_22  and  O_23
REMARK   19  A    between atoms: O_23  and  P_24
REMARK   20  A    between atoms: P_24  and  O_27
REMARK                            x       y       z     vdW  Elec       q    Type
REMARK                         _______ _______ _______ _____ _____    ______ ____
ROOT
ATOM      1  C   UNL     1       1.995   4.976  20.986  0.00  0.00    +0.000 C 
ENDROOT
BRANCH   1   2
ATOM      2  C   UNL     1       2.047   6.248  20.141  0.00  0.00    +0.000 C 
BRANCH   2   3
ATOM      3  C   UNL     1       1.554   7.482  20.893  0.00  0.00    +0.000 C 
BRANCH   3   4
ATOM      4  C   UNL     1       1.539   8.762  20.051  0.00  0.00    +0.000 C 
ATOM      5  C   UNL     1       1.811   8.563  18.565  0.00  0.00    +0.000 C 
ATOM      6  C   UNL     1       1.332   9.867  17.925  0.00  0.00    +0.000 C 
ATOM      7  C   UNL     1       0.196  10.393  18.825  0.00  0.00    +0.000 C 
ATOM      8  C   UNL     1       0.168   9.432  20.039  0.00  0.00    +0.000 C 
BRANCH   7   9
ATOM      9  C   UNL     1       0.430  11.804  19.366  0.00  0.00    +0.000 C 
BRANCH   9  10
ATOM     10  O   UNL     1       1.519  12.550  18.813  0.00  0.00    +0.000 OA
BRANCH  10  11
ATOM     11  P   UNL     1       2.023  13.626  19.936  0.00  0.00    +0.000 P 
ATOM     12  O   UNL     1       1.280  14.921  19.725  0.00  0.00    +0.000 OA
ATOM     13  O   UNL     1       2.125  12.988  21.286  0.00  0.00    +0.000 OA
BRANCH  11  14
ATOM     14  O   UNL     1       3.496  13.991  19.415  0.00  0.00    +0.000 OA
ATOM     15  H   UNL     1       3.760  14.646  20.085  0.00  0.00    +0.000 HD
ENDBRANCH  11  14
ENDBRANCH  10  11
ENDBRANCH   9  10
ENDBRANCH   7   9
ENDBRANCH   3   4
ENDBRANCH   2   3
ENDBRANCH   1   2
BRANCH   1  16
ATOM     16  C   UNL     1       0.944   4.029  20.430  0.00  0.00    +0.000 C 
BRANCH  16  17
ATOM     17  C   UNL     1       1.476   2.602  20.311  0.00  0.00    +0.000 C 
BRANCH  17  18
ATOM     18  C   UNL     1       1.715   2.201  18.855  0.00  0.00    +0.000 C 
BRANCH  18  19
ATOM     19  C   UNL     1       1.788   3.417  17.931  0.00  0.00    +0.000 C 
BRANCH  19  21
ATOM     20  C   UNL     1       4.141   3.525  17.136  0.00  0.00    +0.000 C 
ATOM     21  C   UNL     1       2.850   3.233  16.897  0.00  0.00    +0.000 C 
BRANCH  20  22
ATOM     22  C   UNL     1       5.222   3.318  16.133  0.00  0.00    +0.000 C 
BRANCH  22  23
ATOM     23  C   UNL     1       6.050   4.591  15.993  0.00  0.00    +0.000 C 
BRANCH  23  24
ATOM     24  C   UNL     1       5.221   5.687  15.340  0.00  0.00    +0.000 C 
BRANCH  24  25
ATOM     25  C   UNL     1       5.094   6.887  16.266  0.00  0.00    +0.000 C 
BRANCH  25  26
ATOM     26  C   UNL     1       5.913   6.673  17.534  0.00  0.00    +0.000 C 
BRANCH  26  27
ATOM     27  C   UNL     1       7.141   7.573  17.531  0.00  0.00    +0.000 C 
BRANCH  27  29
ATOM     28  C   UNL     1       7.799   5.741  19.108  0.00  0.00    +0.000 C 
ATOM     29  C   UNL     1       8.162   7.112  18.567  0.00  0.00    +0.000 C 
ENDBRANCH  27  29
ENDBRANCH  26  27
ENDBRANCH  25  26
ENDBRANCH  24  25
ENDBRANCH  23  24
ENDBRANCH  22  23
ENDBRANCH  20  22
ENDBRANCH  19  21
ENDBRANCH  18  19
ENDBRANCH  17  18
ENDBRANCH  16  17
ENDBRANCH   1  16
TORSDOF 19
ENDMDL
MODEL 8
REMARK VINA RESULT:      -5.8      5.826      8.623
REMARK  Name = 
REMARK  20 active torsions:
REMARK  status: ('A' for Active; 'I' for Inactive)
REMARK    1  A    between atoms: C_1  and  C_2
REMARK    2  A    between atoms: C_2  and  C_3
REMARK    3  A    between atoms: C_3  and  C_4
REMARK    4  A    between atoms: C_4  and  C_5
REMARK    5  A    between atoms: C_5  and  C_6
REMARK    6  A    between atoms: C_6  and  C_7
REMARK    7  A    between atoms: C_7  and  C_8
REMARK    8  A    between atoms: C_8  and  C_9
REMARK    9  A    between atoms: C_10  and  C_11
REMARK   10  A    between atoms: C_11  and  C_12
REMARK   11  A    between atoms: C_12  and  C_13
REMARK   12  A    between atoms: C_13  and  C_14
REMARK   13  A    between atoms: C_14  and  C_15
REMARK   14  A    between atoms: C_15  and  C_16
REMARK   15  A    between atoms: C_16  and  C_17
REMARK   16  A    between atoms: C_17  and  C_18
REMARK   17  A    between atoms: C_21  and  C_22
REMARK   18  A    between atoms: C_22  and  O_23
REMARK   19  A    between atoms: O_23  and  P_24
REMARK   20  A    between atoms: P_24  and  O_27
REMARK                            x       y       z     vdW  Elec       q    Type
REMARK                         _______ _______ _______ _____ _____    ______ ____
ROOT
ATOM      1  C   UNL     1       4.597   5.625  17.342  0.00  0.00    +0.000 C 
ENDROOT
BRANCH   1   2
ATOM      2  C   UNL     1       3.807   6.916  17.554  0.00  0.00    +0.000 C 
BRANCH   2   3
ATOM      3  C   UNL     1       2.901   6.865  18.781  0.00  0.00    +0.000 C 
BRANCH   3   4
ATOM      4  C   UNL     1       2.497   5.448  19.201  0.00  0.00    +0.000 C 
ATOM      5  C   UNL     1       1.755   5.355  20.529  0.00  0.00    +0.000 C 
ATOM      6  C   UNL     1       1.121   3.963  20.499  0.00  0.00    +0.000 C 
ATOM      7  C   UNL     1       0.863   3.641  19.013  0.00  0.00    +0.000 C 
ATOM      8  C   UNL     1       1.500   4.817  18.232  0.00  0.00    +0.000 C 
BRANCH   7   9
ATOM      9  C   UNL     1       1.531   2.355  18.526  0.00  0.00    +0.000 C 
BRANCH   9  10
ATOM     10  O   UNL     1       2.448   1.712  19.416  0.00  0.00    +0.000 OA
BRANCH  10  11
ATOM     11  P   UNL     1       3.963   1.943  18.844  0.00  0.00    +0.000 P 
ATOM     12  O   UNL     1       3.871   2.322  17.388  0.00  0.00    +0.000 OA
ATOM     13  O   UNL     1       4.789   2.731  19.812  0.00  0.00    +0.000 OA
BRANCH  11  14
ATOM     14  O   UNL     1       4.527   0.443  18.770  0.00  0.00    +0.000 OA
ATOM     15  H   UNL     1       4.722   0.377  17.819  0.00  0.00    +0.000 HD
ENDBRANCH  11  14
ENDBRANCH  10  11
ENDBRANCH   9  10
ENDBRANCH   7   9
ENDBRANCH   3   4
ENDBRANCH   2   3
ENDBRANCH   1   2
BRANCH   1  16
ATOM     16  C   UNL     1       5.946   5.727  18.034  0.00  0.00    +0.000 C 
BRANCH  16  17
ATOM     17  C   UNL     1       6.925   6.590  17.239  0.00  0.00    +0.000 C 
BRANCH  17  18
ATOM     18  C   UNL     1       7.941   7.284  18.147  0.00  0.00    +0.000 C 
BRANCH  18  19
ATOM     19  C   UNL     1       8.124   8.757  17.781  0.00  0.00    +0.000 C 
BRANCH  19  21
ATOM     20  C   UNL     1       9.310  10.739  18.701  0.00  0.00    +0.000 C 
ATOM     21  C   UNL     1       8.856   9.483  18.862  0.00  0.00    +0.000 C 
BRANCH  20  22
ATOM     22  C   UNL     1      10.013  11.494  19.775  0.00  0.00    +0.000 C 
BRANCH  22  23
ATOM     23  C   UNL     1      11.101  12.372  19.164  0.00  0.00    +0.000 C 
BRANCH  23  24
ATOM     24  C   UNL     1      11.076  13.756  19.796  0.00  0.00    +0.000 C 
BRANCH  24  25
ATOM     25  C   UNL     1      10.344  13.723  21.129  0.00  0.00    +0.000 C 
BRANCH  25  26
ATOM     26  C   UNL     1      10.315  15.111  21.757  0.00  0.00    +0.000 C 
BRANCH  26  27
ATOM     27  C   UNL     1       8.905  15.684  21.715  0.00  0.00    +0.000 C 
BRANCH  27  29
ATOM     28  C   UNL     1       9.883  17.986  21.575  0.00  0.00    +0.000 C 
ATOM     29  C   UNL     1       8.876  17.019  20.979  0.00  0.00    +0.000 C 
ENDBRANCH  27  29
ENDBRANCH  26  27
ENDBRANCH  25  26
ENDBRANCH  24  25
ENDBRANCH  23  24
ENDBRANCH  22  23
ENDBRANCH  20  22
ENDBRANCH  19  21
ENDBRANCH  18  19
ENDBRANCH  17  18
ENDBRANCH  16  17
ENDBRANCH   1  16
TORSDOF 19
ENDMDL
MODEL 9
REMARK VINA RESULT:      -5.8      4.998      8.596
REMARK  Name = 
REMARK  20 active torsions:
REMARK  status: ('A' for Active; 'I' for Inactive)
REMARK    1  A    between atoms: C_1  and  C_2
REMARK    2  A    between atoms: C_2  and  C_3
REMARK    3  A    between atoms: C_3  and  C_4
REMARK    4  A    between atoms: C_4  and  C_5
REMARK    5  A    between atoms: C_5  and  C_6
REMARK    6  A    between atoms: C_6  and  C_7
REMARK    7  A    between atoms: C_7  and  C_8
REMARK    8  A    between atoms: C_8  and  C_9
REMARK    9  A    between atoms: C_10  and  C_11
REMARK   10  A    between atoms: C_11  and  C_12
REMARK   11  A    between atoms: C_12  and  C_13
REMARK   12  A    between atoms: C_13  and  C_14
REMARK   13  A    between atoms: C_14  and  C_15
REMARK   14  A    between atoms: C_15  and  C_16
REMARK   15  A    between atoms: C_16  and  C_17
REMARK   16  A    between atoms: C_17  and  C_18
REMARK   17  A    between atoms: C_21  and  C_22
REMARK   18  A    between atoms: C_22  and  O_23
REMARK   19  A    between atoms: O_23  and  P_24
REMARK   20  A    between atoms: P_24  and  O_27
REMARK                            x       y       z     vdW  Elec       q    Type
REMARK                         _______ _______ _______ _____ _____    ______ ____
ROOT
ATOM      1  C   UNL     1       6.028   7.229  17.236  0.00  0.00    +0.000 C 
ENDROOT
BRANCH   1   2
ATOM      2  C   UNL     1       5.776   5.997  16.368  0.00  0.00    +0.000 C 
BRANCH   2   3
ATOM      3  C   UNL     1       5.684   4.706  17.178  0.00  0.00    +0.000 C 
BRANCH   3   4
ATOM      4  C   UNL     1       4.304   4.450  17.792  0.00  0.00    +0.000 C 
ATOM      5  C   UNL     1       3.266   5.535  17.527  0.00  0.00    +0.000 C 
ATOM      6  C   UNL     1       1.935   4.860  17.861  0.00  0.00    +0.000 C 
ATOM      7  C   UNL     1       2.129   3.359  17.566  0.00  0.00    +0.000 C 
ATOM      8  C   UNL     1       3.629   3.212  17.208  0.00  0.00    +0.000 C 
BRANCH   7   9
ATOM      9  C   UNL     1       1.855   2.446  18.762  0.00  0.00    +0.000 C 
BRANCH   9  10
ATOM     10  O   UNL     1       2.806   2.457  19.831  0.00  0.00    +0.000 OA
BRANCH  10  11
ATOM     11  P   UNL     1       2.098   3.143  21.136  0.00  0.00    +0.000 P 
ATOM     12  O   UNL     1       2.344   2.260  22.333  0.00  0.00    +0.000 OA
ATOM     13  O   UNL     1       2.358   4.616  21.178  0.00  0.00    +0.000 OA
BRANCH  11  14
ATOM     14  O   UNL     1       0.540   2.893  20.844  0.00  0.00    +0.000 OA
ATOM     15  H   UNL     1       0.488   1.932  20.988  0.00  0.00    +0.000 HD
ENDBRANCH  11  14
ENDBRANCH  10  11
ENDBRANCH   9  10
ENDBRANCH   7   9
ENDBRANCH   3   4
ENDBRANCH   2   3
ENDBRANCH   1   2
BRANCH   1  16
ATOM     16  C   UNL     1       7.433   7.175  17.812  0.00  0.00    +0.000 C 
BRANCH  16  17
ATOM     17  C   UNL     1       8.305   8.312  17.282  0.00  0.00    +0.000 C 
BRANCH  17  18
ATOM     18  C   UNL     1       8.116   9.599  18.087  0.00  0.00    +0.000 C 
BRANCH  18  19
ATOM     19  C   UNL     1       9.218   9.790  19.128  0.00  0.00    +0.000 C 
BRANCH  19  21
ATOM     20  C   UNL     1       9.602  11.929  17.919  0.00  0.00    +0.000 C 
ATOM     21  C   UNL     1       9.895  11.109  18.945  0.00  0.00    +0.000 C 
BRANCH  20  22
ATOM     22  C   UNL     1      10.238  13.262  17.734  0.00  0.00    +0.000 C 
BRANCH  22  23
ATOM     23  C   UNL     1       9.758  14.221  18.818  0.00  0.00    +0.000 C 
BRANCH  23  24
ATOM     24  C   UNL     1      10.906  14.575  19.752  0.00  0.00    +0.000 C 
BRANCH  24  25
ATOM     25  C   UNL     1      10.486  14.406  21.205  0.00  0.00    +0.000 C 
BRANCH  25  26
ATOM     26  C   UNL     1       9.143  13.692  21.293  0.00  0.00    +0.000 C 
BRANCH  26  27
ATOM     27  C   UNL     1       9.285  12.386  22.063  0.00  0.00    +0.000 C 
BRANCH  27  29
ATOM     28  C   UNL     1       7.009  13.176  22.750  0.00  0.00    +0.000 C 
ATOM     29  C   UNL     1       8.134  12.201  23.046  0.00  0.00    +0.000 C 
ENDBRANCH  27  29
ENDBRANCH  26  27
ENDBRANCH  25  26
ENDBRANCH  24  25
ENDBRANCH  23  24
ENDBRANCH  22  23
ENDBRANCH  20  22
ENDBRANCH  19  21
ENDBRANCH  18  19
ENDBRANCH  17  18
ENDBRANCH  16  17
ENDBRANCH   1  16
TORSDOF 19
ENDMDL
