MODEL 1
REMARK VINA RESULT:      -7.7      0.000      0.000
REMARK  Name = 
REMARK  5 active torsions:
REMARK  status: ('A' for Active; 'I' for Inactive)
REMARK    1  A    between atoms: C_1  and  O_2
REMARK    2  A    between atoms: O_2  and  C_3
REMARK    3  A    between atoms: C_3  and  N_4
REMARK    4  A    between atoms: C_9  and  C_10
REMARK    5  A    between atoms: C_18  and  N_19
REMARK                            x       y       z     vdW  Elec       q    Type
REMARK                         _______ _______ _______ _____ _____    ______ ____
ROOT
ATOM      1  N   UNL     1       6.058   5.076  17.763  0.00  0.00    +0.000 N 
ATOM      2  C   UNL     1       6.249   6.005  16.733  0.00  0.00    +0.000 C 
ATOM      3  O   UNL     1       7.340   6.529  16.497  0.00  0.00    +0.000 OA
ATOM      4  C   UNL     1       5.042   6.321  15.866  0.00  0.00    +0.000 C 
ATOM      5  N   UNL     1       4.144   7.189  16.617  0.00  0.00    +0.000 NA
ATOM      6  C   UNL     1       3.500   6.696  17.619  0.00  0.00    +0.000 C 
ATOM      7  C   UNL     1       3.561   5.257  18.027  0.00  0.00    +0.000 A 
ATOM      8  C   UNL     1       2.332   4.646  18.365  0.00  0.00    +0.000 A 
ATOM      9  C   UNL     1       2.303   3.335  18.848  0.00  0.00    +0.000 A 
ATOM     10  C   UNL     1       3.486   2.617  18.978  0.00  0.00    +0.000 A 
ATOM     11  C   UNL     1       4.697   3.218  18.621  0.00  0.00    +0.000 A 
ATOM     12  C   UNL     1       4.775   4.539  18.131  0.00  0.00    +0.000 A 
ENDROOT
BRANCH   6  13
ATOM     13  C   UNL     1       2.628   7.641  18.395  0.00  0.00    +0.000 A 
ATOM     14  C   UNL     1       2.149   8.793  17.758  0.00  0.00    +0.000 A 
ATOM     15  C   UNL     1       1.338   9.694  18.452  0.00  0.00    +0.000 A 
ATOM     16  C   UNL     1       1.007   9.451  19.784  0.00  0.00    +0.000 A 
ATOM     17  C   UNL     1       1.492   8.313  20.428  0.00  0.00    +0.000 A 
ATOM     18  C   UNL     1       2.309   7.413  19.740  0.00  0.00    +0.000 A 
ENDBRANCH   6  13
BRANCH   9  19
ATOM     19  N   UNL     1       1.030   2.717  19.237  0.00  0.00    +0.000 N 
ATOM     20  O   UNL     1       0.380   2.139  18.357  0.00  0.00    +0.000 OA
ATOM     21  O   UNL     1       0.676   2.822  20.422  0.00  0.00    +0.000 OA
ENDBRANCH   9  19
BRANCH   1  22
ATOM     22  C   UNL     1       7.233   4.763  18.574  0.00  0.00    +0.000 C 
BRANCH  22  24
ATOM     23  C   UNL     1       8.420   5.398  20.502  0.00  0.00    +0.000 C 
ATOM     24  O   UNL     1       7.170   5.439  19.826  0.00  0.00    +0.000 OA
ENDBRANCH  22  24
ENDBRANCH   1  22
TORSDOF 4
ENDMDL
MODEL 2
REMARK VINA RESULT:      -7.7      0.045      1.173
REMARK  Name = 
REMARK  5 active torsions:
REMARK  status: ('A' for Active; 'I' for Inactive)
REMARK    1  A    between atoms: C_1  and  O_2
REMARK    2  A    between atoms: O_2  and  C_3
REMARK    3  A    between atoms: C_3  and  N_4
REMARK    4  A    between atoms: C_9  and  C_10
REMARK    5  A    between atoms: C_18  and  N_19
REMARK                            x       y       z     vdW  Elec       q    Type
REMARK                         _______ _______ _______ _____ _____    ______ ____
ROOT
ATOM      1  N   UNL     1       6.057   5.057  17.750  0.00  0.00    +0.000 N 
ATOM      2  C   UNL     1       6.257   5.974  16.711  0.00  0.00    +0.000 C 
ATOM      3  O   UNL     1       7.352   6.488  16.471  0.00  0.00    +0.000 OA
ATOM      4  C   UNL     1       5.054   6.290  15.838  0.00  0.00    +0.000 C 
ATOM      5  N   UNL     1       4.161   7.173  16.580  0.00  0.00    +0.000 NA
ATOM      6  C   UNL     1       3.512   6.695  17.586  0.00  0.00    +0.000 C 
ATOM      7  C   UNL     1       3.562   5.259  18.009  0.00  0.00    +0.000 A 
ATOM      8  C   UNL     1       2.328   4.662  18.350  0.00  0.00    +0.000 A 
ATOM      9  C   UNL     1       2.288   3.355  18.847  0.00  0.00    +0.000 A 
ATOM     10  C   UNL     1       3.466   2.630  18.986  0.00  0.00    +0.000 A 
ATOM     11  C   UNL     1       4.682   3.218  18.624  0.00  0.00    +0.000 A 
ATOM     12  C   UNL     1       4.771   4.534  18.122  0.00  0.00    +0.000 A 
ENDROOT
BRANCH   6  13
ATOM     13  C   UNL     1       2.645   7.655  18.351  0.00  0.00    +0.000 A 
ATOM     14  C   UNL     1       2.352   7.376  19.692  0.00  0.00    +0.000 A 
ATOM     15  C   UNL     1       1.547   8.245  20.431  0.00  0.00    +0.000 A 
ATOM     16  C   UNL     1       1.028   9.392  19.833  0.00  0.00    +0.000 A 
ATOM     17  C   UNL     1       1.306   9.668  18.494  0.00  0.00    +0.000 A 
ATOM     18  C   UNL     1       2.104   8.798  17.749  0.00  0.00    +0.000 A 
ENDBRANCH   6  13
BRANCH   9  19
ATOM     19  N   UNL     1       1.011   2.751  19.241  0.00  0.00    +0.000 N 
ATOM     20  O   UNL     1       0.660   2.868  20.422  0.00  0.00    +0.000 OA
ATOM     21  O   UNL     1       0.364   2.149  18.370  0.00  0.00    +0.000 OA
ENDBRANCH   9  19
BRANCH   1  22
ATOM     22  C   UNL     1       7.229   4.744  18.565  0.00  0.00    +0.000 C 
BRANCH  22  24
ATOM     23  C   UNL     1       8.419   5.436  20.472  0.00  0.00    +0.000 C 
ATOM     24  O   UNL     1       7.154   5.408  19.823  0.00  0.00    +0.000 OA
ENDBRANCH  22  24
ENDBRANCH   1  22
TORSDOF 4
ENDMDL
MODEL 3
REMARK VINA RESULT:      -7.5      1.018      1.350
REMARK  Name = 
REMARK  5 active torsions:
REMARK  status: ('A' for Active; 'I' for Inactive)
REMARK    1  A    between atoms: C_1  and  O_2
REMARK    2  A    between atoms: O_2  and  C_3
REMARK    3  A    between atoms: C_3  and  N_4
REMARK    4  A    between atoms: C_9  and  C_10
REMARK    5  A    between atoms: C_18  and  N_19
REMARK                            x       y       z     vdW  Elec       q    Type
REMARK                         _______ _______ _______ _____ _____    ______ ____
ROOT
ATOM      1  N   UNL     1       5.745   5.879  18.309  0.00  0.00    +0.000 N 
ATOM      2  C   UNL     1       5.778   6.814  17.267  0.00  0.00    +0.000 C 
ATOM      3  O   UNL     1       6.785   7.466  16.983  0.00  0.00    +0.000 OA
ATOM      4  C   UNL     1       4.507   6.970  16.449  0.00  0.00    +0.000 C 
ATOM      5  N   UNL     1       3.540   7.729  17.233  0.00  0.00    +0.000 NA
ATOM      6  C   UNL     1       3.003   7.171  18.263  0.00  0.00    +0.000 C 
ATOM      7  C   UNL     1       3.258   5.755  18.677  0.00  0.00    +0.000 A 
ATOM      8  C   UNL     1       2.128   5.001  19.069  0.00  0.00    +0.000 A 
ATOM      9  C   UNL     1       2.281   3.702  19.560  0.00  0.00    +0.000 A 
ATOM     10  C   UNL     1       3.548   3.136  19.644  0.00  0.00    +0.000 A 
ATOM     11  C   UNL     1       4.660   3.878  19.234  0.00  0.00    +0.000 A 
ATOM     12  C   UNL     1       4.555   5.193  18.734  0.00  0.00    +0.000 A 
ENDROOT
BRANCH   6  13
ATOM     13  C   UNL     1       2.053   8.010  19.070  0.00  0.00    +0.000 A 
ATOM     14  C   UNL     1       1.418   9.094  18.450  0.00  0.00    +0.000 A 
ATOM     15  C   UNL     1       0.532   9.896  19.172  0.00  0.00    +0.000 A 
ATOM     16  C   UNL     1       0.280   9.622  20.516  0.00  0.00    +0.000 A 
ATOM     17  C   UNL     1       0.920   8.552  21.142  0.00  0.00    +0.000 A 
ATOM     18  C   UNL     1       1.813   7.753  20.426  0.00  0.00    +0.000 A 
ENDBRANCH   6  13
BRANCH   9  19
ATOM     19  N   UNL     1       1.111   2.936  20.006  0.00  0.00    +0.000 N 
ATOM     20  O   UNL     1       0.987   2.733  21.220  0.00  0.00    +0.000 OA
ATOM     21  O   UNL     1       0.323   2.528  19.138  0.00  0.00    +0.000 OA
ENDBRANCH   9  19
BRANCH   1  22
ATOM     22  C   UNL     1       6.982   5.722  19.072  0.00  0.00    +0.000 C 
BRANCH  22  24
ATOM     23  C   UNL     1       7.781   4.406  17.295  0.00  0.00    +0.000 C 
ATOM     24  O   UNL     1       7.645   4.516  18.705  0.00  0.00    +0.000 OA
ENDBRANCH  22  24
ENDBRANCH   1  22
TORSDOF 4
ENDMDL
MODEL 4
REMARK VINA RESULT:      -7.5      2.643      4.856
REMARK  Name = 
REMARK  5 active torsions:
REMARK  status: ('A' for Active; 'I' for Inactive)
REMARK    1  A    between atoms: C_1  and  O_2
REMARK    2  A    between atoms: O_2  and  C_3
REMARK    3  A    between atoms: C_3  and  N_4
REMARK    4  A    between atoms: C_9  and  C_10
REMARK    5  A    between atoms: C_18  and  N_19
REMARK                            x       y       z     vdW  Elec       q    Type
REMARK                         _______ _______ _______ _____ _____    ______ ____
ROOT
ATOM      1  N   UNL     1       6.054   5.597  16.769  0.00  0.00    +0.000 N 
ATOM      2  C   UNL     1       6.931   4.832  17.548  0.00  0.00    +0.000 C 
ATOM      3  O   UNL     1       7.836   4.148  17.064  0.00  0.00    +0.000 OA
ATOM      4  C   UNL     1       6.751   4.912  19.055  0.00  0.00    +0.000 C 
ATOM      5  N   UNL     1       5.580   4.126  19.425  0.00  0.00    +0.000 NA
ATOM      6  C   UNL     1       4.412   4.564  19.098  0.00  0.00    +0.000 C 
ATOM      7  C   UNL     1       4.170   5.874  18.415  0.00  0.00    +0.000 A 
ATOM      8  C   UNL     1       3.098   6.652  18.909  0.00  0.00    +0.000 A 
ATOM      9  C   UNL     1       2.739   7.844  18.273  0.00  0.00    +0.000 A 
ATOM     10  C   UNL     1       3.451   8.280  17.162  0.00  0.00    +0.000 A 
ATOM     11  C   UNL     1       4.525   7.519  16.692  0.00  0.00    +0.000 A 
ATOM     12  C   UNL     1       4.923   6.309  17.299  0.00  0.00    +0.000 A 
ENDROOT
BRANCH   6  13
ATOM     13  C   UNL     1       3.239   3.695  19.454  0.00  0.00    +0.000 A 
ATOM     14  C   UNL     1       2.545   3.046  18.426  0.00  0.00    +0.000 A 
ATOM     15  C   UNL     1       1.448   2.234  18.721  0.00  0.00    +0.000 A 
ATOM     16  C   UNL     1       1.037   2.072  20.044  0.00  0.00    +0.000 A 
ATOM     17  C   UNL     1       1.717   2.726  21.071  0.00  0.00    +0.000 A 
ATOM     18  C   UNL     1       2.809   3.545  20.779  0.00  0.00    +0.000 A 
ENDBRANCH   6  13
BRANCH   9  19
ATOM     19  N   UNL     1       1.599   8.629  18.761  0.00  0.00    +0.000 N 
ATOM     20  O   UNL     1       0.969   9.301  17.935  0.00  0.00    +0.000 OA
ATOM     21  O   UNL     1       1.342   8.581  19.974  0.00  0.00    +0.000 OA
ENDBRANCH   9  19
BRANCH   1  22
ATOM     22  C   UNL     1       6.255   5.530  15.323  0.00  0.00    +0.000 C 
BRANCH  22  24
ATOM     23  C   UNL     1       6.168   3.867  13.662  0.00  0.00    +0.000 C 
ATOM     24  O   UNL     1       5.494   4.465  14.762  0.00  0.00    +0.000 OA
ENDBRANCH  22  24
ENDBRANCH   1  22
TORSDOF 4
ENDMDL
MODEL 5
REMARK VINA RESULT:      -7.4      2.656      4.971
REMARK  Name = 
REMARK  5 active torsions:
REMARK  status: ('A' for Active; 'I' for Inactive)
REMARK    1  A    between atoms: C_1  and  O_2
REMARK    2  A    between atoms: O_2  and  C_3
REMARK    3  A    between atoms: C_3  and  N_4
REMARK    4  A    between atoms: C_9  and  C_10
REMARK    5  A    between atoms: C_18  and  N_19
REMARK                            x       y       z     vdW  Elec       q    Type
REMARK                         _______ _______ _______ _____ _____    ______ ____
ROOT
ATOM      1  N   UNL     1       6.052   5.577  16.684  0.00  0.00    +0.000 N 
ATOM      2  C   UNL     1       6.919   4.794  17.455  0.00  0.00    +0.000 C 
ATOM      3  O   UNL     1       7.816   4.104  16.965  0.00  0.00    +0.000 OA
ATOM      4  C   UNL     1       6.738   4.858  18.963  0.00  0.00    +0.000 C 
ATOM      5  N   UNL     1       5.557   4.082  19.323  0.00  0.00    +0.000 NA
ATOM      6  C   UNL     1       4.395   4.537  19.000  0.00  0.00    +0.000 C 
ATOM      7  C   UNL     1       4.169   5.857  18.331  0.00  0.00    +0.000 A 
ATOM      8  C   UNL     1       3.106   6.642  18.832  0.00  0.00    +0.000 A 
ATOM      9  C   UNL     1       2.761   7.845  18.210  0.00  0.00    +0.000 A 
ATOM     10  C   UNL     1       3.480   8.286  17.105  0.00  0.00    +0.000 A 
ATOM     11  C   UNL     1       4.545   7.517  16.627  0.00  0.00    +0.000 A 
ATOM     12  C   UNL     1       4.928   6.296  17.221  0.00  0.00    +0.000 A 
ENDROOT
BRANCH   6  13
ATOM     13  C   UNL     1       3.211   3.678  19.344  0.00  0.00    +0.000 A 
ATOM     14  C   UNL     1       2.904   3.463  20.693  0.00  0.00    +0.000 A 
ATOM     15  C   UNL     1       1.813   2.668  21.048  0.00  0.00    +0.000 A 
ATOM     16  C   UNL     1       1.027   2.080  20.058  0.00  0.00    +0.000 A 
ATOM     17  C   UNL     1       1.336   2.279  18.712  0.00  0.00    +0.000 A 
ATOM     18  C   UNL     1       2.432   3.068  18.353  0.00  0.00    +0.000 A 
ENDBRANCH   6  13
BRANCH   9  19
ATOM     19  N   UNL     1       1.630   8.638  18.706  0.00  0.00    +0.000 N 
ATOM     20  O   UNL     1       1.393   8.603  19.920  0.00  0.00    +0.000 OA
ATOM     21  O   UNL     1       0.970   9.285  17.877  0.00  0.00    +0.000 OA
ENDBRANCH   9  19
BRANCH   1  22
ATOM     22  C   UNL     1       6.253   5.524  15.237  0.00  0.00    +0.000 C 
BRANCH  22  24
ATOM     23  C   UNL     1       6.165   3.863  13.576  0.00  0.00    +0.000 C 
ATOM     24  O   UNL     1       5.483   4.473  14.664  0.00  0.00    +0.000 OA
ENDBRANCH  22  24
ENDBRANCH   1  22
TORSDOF 4
ENDMDL
MODEL 6
REMARK VINA RESULT:      -7.2      2.751      4.984
REMARK  Name = 
REMARK  5 active torsions:
REMARK  status: ('A' for Active; 'I' for Inactive)
REMARK    1  A    between atoms: C_1  and  O_2
REMARK    2  A    between atoms: O_2  and  C_3
REMARK    3  A    between atoms: C_3  and  N_4
REMARK    4  A    between atoms: C_9  and  C_10
REMARK    5  A    between atoms: C_18  and  N_19
REMARK                            x       y       z     vdW  Elec       q    Type
REMARK                         _______ _______ _______ _____ _____    ______ ____
ROOT
ATOM      1  N   UNL     1       2.991   2.802  19.457  0.00  0.00    +0.000 N 
ATOM      2  C   UNL     1       3.379   2.217  18.246  0.00  0.00    +0.000 C 
ATOM      3  O   UNL     1       3.704   1.032  18.147  0.00  0.00    +0.000 OA
ATOM      4  C   UNL     1       3.345   3.108  17.015  0.00  0.00    +0.000 C 
ATOM      5  N   UNL     1       4.489   4.009  17.062  0.00  0.00    +0.000 NA
ATOM      6  C   UNL     1       4.502   4.950  17.944  0.00  0.00    +0.000 C 
ATOM      7  C   UNL     1       3.376   5.224  18.892  0.00  0.00    +0.000 A 
ATOM      8  C   UNL     1       3.023   6.581  19.073  0.00  0.00    +0.000 A 
ATOM      9  C   UNL     1       2.048   6.939  20.008  0.00  0.00    +0.000 A 
ATOM     10  C   UNL     1       1.405   5.955  20.751  0.00  0.00    +0.000 A 
ATOM     11  C   UNL     1       1.741   4.613  20.551  0.00  0.00    +0.000 A 
ATOM     12  C   UNL     1       2.720   4.205  19.621  0.00  0.00    +0.000 A 
ENDROOT
BRANCH   6  13
ATOM     13  C   UNL     1       5.726   5.820  17.989  0.00  0.00    +0.000 A 
ATOM     14  C   UNL     1       6.732   5.522  18.916  0.00  0.00    +0.000 A 
ATOM     15  C   UNL     1       7.881   6.312  18.986  0.00  0.00    +0.000 A 
ATOM     16  C   UNL     1       8.027   7.407  18.134  0.00  0.00    +0.000 A 
ATOM     17  C   UNL     1       7.022   7.717  17.218  0.00  0.00    +0.000 A 
ATOM     18  C   UNL     1       5.868   6.933  17.150  0.00  0.00    +0.000 A 
ENDBRANCH   6  13
BRANCH   9  19
ATOM     19  N   UNL     1       1.713   8.351  20.225  0.00  0.00    +0.000 N 
ATOM     20  O   UNL     1       1.598   9.073  19.227  0.00  0.00    +0.000 OA
ATOM     21  O   UNL     1       1.577   8.739  21.396  0.00  0.00    +0.000 OA
ENDBRANCH   9  19
BRANCH   1  22
ATOM     22  C   UNL     1       3.005   1.927  20.628  0.00  0.00    +0.000 C 
BRANCH  22  24
ATOM     23  C   UNL     1       5.161   1.191  21.214  0.00  0.00    +0.000 C 
ATOM     24  O   UNL     1       4.159   2.178  21.425  0.00  0.00    +0.000 OA
ENDBRANCH  22  24
ENDBRANCH   1  22
TORSDOF 4
ENDMDL
MODEL 7
REMARK VINA RESULT:      -7.1      2.733      4.929
REMARK  Name = 
REMARK  5 active torsions:
REMARK  status: ('A' for Active; 'I' for Inactive)
REMARK    1  A    between atoms: C_1  and  O_2
REMARK    2  A    between atoms: O_2  and  C_3
REMARK    3  A    between atoms: C_3  and  N_4
REMARK    4  A    between atoms: C_9  and  C_10
REMARK    5  A    between atoms: C_18  and  N_19
REMARK                            x       y       z     vdW  Elec       q    Type
REMARK                         _______ _______ _______ _____ _____    ______ ____
ROOT
ATOM      1  N   UNL     1       2.795   2.884  19.437  0.00  0.00    +0.000 N 
ATOM      2  C   UNL     1       3.187   2.298  18.227  0.00  0.00    +0.000 C 
ATOM      3  O   UNL     1       3.470   1.103  18.121  0.00  0.00    +0.000 OA
ATOM      4  C   UNL     1       3.210   3.203  17.006  0.00  0.00    +0.000 C 
ATOM      5  N   UNL     1       4.386   4.061  17.086  0.00  0.00    +0.000 NA
ATOM      6  C   UNL     1       4.415   4.991  17.978  0.00  0.00    +0.000 C 
ATOM      7  C   UNL     1       3.280   5.296  18.906  0.00  0.00    +0.000 A 
ATOM      8  C   UNL     1       2.974   6.663  19.096  0.00  0.00    +0.000 A 
ATOM      9  C   UNL     1       1.994   7.047  20.016  0.00  0.00    +0.000 A 
ATOM     10  C   UNL     1       1.300   6.080  20.734  0.00  0.00    +0.000 A 
ATOM     11  C   UNL     1       1.591   4.728  20.526  0.00  0.00    +0.000 A 
ATOM     12  C   UNL     1       2.573   4.294  19.610  0.00  0.00    +0.000 A 
ENDROOT
BRANCH   6  13
ATOM     13  C   UNL     1       5.669   5.815  18.057  0.00  0.00    +0.000 A 
ATOM     14  C   UNL     1       5.811   6.909  17.194  0.00  0.00    +0.000 A 
ATOM     15  C   UNL     1       6.965   7.694  17.239  0.00  0.00    +0.000 A 
ATOM     16  C   UNL     1       7.982   7.388  18.143  0.00  0.00    +0.000 A 
ATOM     17  C   UNL     1       7.851   6.292  18.995  0.00  0.00    +0.000 A 
ATOM     18  C   UNL     1       6.702   5.499  18.948  0.00  0.00    +0.000 A 
ENDBRANCH   6  13
BRANCH   9  19
ATOM     19  N   UNL     1       1.706   8.468  20.242  0.00  0.00    +0.000 N 
ATOM     20  O   UNL     1       1.660   9.209  19.252  0.00  0.00    +0.000 OA
ATOM     21  O   UNL     1       1.538   8.844  21.413  0.00  0.00    +0.000 OA
ENDBRANCH   9  19
BRANCH   1  22
ATOM     22  C   UNL     1       2.754   1.997  20.597  0.00  0.00    +0.000 C 
BRANCH  22  24
ATOM     23  C   UNL     1       5.004   1.508  21.075  0.00  0.00    +0.000 C 
ATOM     24  O   UNL     1       3.857   2.253  21.461  0.00  0.00    +0.000 OA
ENDBRANCH  22  24
ENDBRANCH   1  22
TORSDOF 4
ENDMDL
MODEL 8
REMARK VINA RESULT:      -7.0      1.634      5.068
REMARK  Name = 
REMARK  5 active torsions:
REMARK  status: ('A' for Active; 'I' for Inactive)
REMARK    1  A    between atoms: C_1  and  O_2
REMARK    2  A    between atoms: O_2  and  C_3
REMARK    3  A    between atoms: C_3  and  N_4
REMARK    4  A    between atoms: C_9  and  C_10
REMARK    5  A    between atoms: C_18  and  N_19
REMARK                            x       y       z     vdW  Elec       q    Type
REMARK                         _______ _______ _______ _____ _____    ______ ____
ROOT
ATOM      1  N   UNL     1       2.930   3.096  19.244  0.00  0.00    +0.000 N 
ATOM      2  C   UNL     1       2.137   3.150  20.396  0.00  0.00    +0.000 C 
ATOM      3  O   UNL     1       1.192   2.384  20.597  0.00  0.00    +0.000 OA
ATOM      4  C   UNL     1       2.518   4.188  21.439  0.00  0.00    +0.000 C 
ATOM      5  N   UNL     1       2.095   5.500  20.965  0.00  0.00    +0.000 NA
ATOM      6  C   UNL     1       2.721   6.031  19.971  0.00  0.00    +0.000 C 
ATOM      7  C   UNL     1       3.910   5.413  19.304  0.00  0.00    +0.000 A 
ATOM      8  C   UNL     1       4.984   6.282  19.004  0.00  0.00    +0.000 A 
ATOM      9  C   UNL     1       6.096   5.813  18.297  0.00  0.00    +0.000 A 
ATOM     10  C   UNL     1       6.158   4.482  17.905  0.00  0.00    +0.000 A 
ATOM     11  C   UNL     1       5.103   3.621  18.224  0.00  0.00    +0.000 A 
ATOM     12  C   UNL     1       3.961   4.049  18.933  0.00  0.00    +0.000 A 
ENDROOT
BRANCH   6  13
ATOM     13  C   UNL     1       2.216   7.360  19.484  0.00  0.00    +0.000 A 
ATOM     14  C   UNL     1       1.560   8.204  20.389  0.00  0.00    +0.000 A 
ATOM     15  C   UNL     1       1.076   9.444  19.969  0.00  0.00    +0.000 A 
ATOM     16  C   UNL     1       1.240   9.844  18.643  0.00  0.00    +0.000 A 
ATOM     17  C   UNL     1       1.880   9.002  17.734  0.00  0.00    +0.000 A 
ATOM     18  C   UNL     1       2.359   7.757  18.149  0.00  0.00    +0.000 A 
ENDBRANCH   6  13
BRANCH   9  19
ATOM     19  N   UNL     1       7.191   6.726  17.950  0.00  0.00    +0.000 N 
ATOM     20  O   UNL     1       8.132   6.824  18.748  0.00  0.00    +0.000 OA
ATOM     21  O   UNL     1       7.103   7.355  16.884  0.00  0.00    +0.000 OA
ENDBRANCH   9  19
BRANCH   1  22
ATOM     22  C   UNL     1       2.566   2.077  18.260  0.00  0.00    +0.000 C 
BRANCH  22  24
ATOM     23  C   UNL     1       1.285   3.826  17.352  0.00  0.00    +0.000 C 
ATOM     24  O   UNL     1       2.083   2.685  17.067  0.00  0.00    +0.000 OA
ENDBRANCH  22  24
ENDBRANCH   1  22
TORSDOF 4
ENDMDL
MODEL 9
REMARK VINA RESULT:      -6.7      2.706      5.341
REMARK  Name = 
REMARK  5 active torsions:
REMARK  status: ('A' for Active; 'I' for Inactive)
REMARK    1  A    between atoms: C_1  and  O_2
REMARK    2  A    between atoms: O_2  and  C_3
REMARK    3  A    between atoms: C_3  and  N_4
REMARK    4  A    between atoms: C_9  and  C_10
REMARK    5  A    between atoms: C_18  and  N_19
REMARK                            x       y       z     vdW  Elec       q    Type
REMARK                         _______ _______ _______ _____ _____    ______ ____
ROOT
ATOM      1  N   UNL     1       2.988   3.170  19.566  0.00  0.00    +0.000 N 
ATOM      2  C   UNL     1       3.453   2.447  18.461  0.00  0.00    +0.000 C 
ATOM      3  O   UNL     1       3.767   1.257  18.521  0.00  0.00    +0.000 OA
ATOM      4  C   UNL     1       3.519   3.192  17.137  0.00  0.00    +0.000 C 
ATOM      5  N   UNL     1       4.671   4.085  17.163  0.00  0.00    +0.000 NA
ATOM      6  C   UNL     1       4.635   5.120  17.931  0.00  0.00    +0.000 C 
ATOM      7  C   UNL     1       3.448   5.509  18.757  0.00  0.00    +0.000 A 
ATOM      8  C   UNL     1       3.103   6.880  18.757  0.00  0.00    +0.000 A 
ATOM      9  C   UNL     1       2.070   7.349  19.573  0.00  0.00    +0.000 A 
ATOM     10  C   UNL     1       1.361   6.461  20.374  0.00  0.00    +0.000 A 
ATOM     11  C   UNL     1       1.692   5.103  20.354  0.00  0.00    +0.000 A 
ATOM     12  C   UNL     1       2.728   4.584  19.549  0.00  0.00    +0.000 A 
ENDROOT
BRANCH   6  13
ATOM     13  C   UNL     1       5.865   5.982  17.964  0.00  0.00    +0.000 A 
ATOM     14  C   UNL     1       6.873   5.683  18.889  0.00  0.00    +0.000 A 
ATOM     15  C   UNL     1       8.027   6.466  18.949  0.00  0.00    +0.000 A 
ATOM     16  C   UNL     1       8.178   7.553  18.088  0.00  0.00    +0.000 A 
ATOM     17  C   UNL     1       7.171   7.864  17.174  0.00  0.00    +0.000 A 
ATOM     18  C   UNL     1       6.012   7.088  17.116  0.00  0.00    +0.000 A 
ENDBRANCH   6  13
BRANCH   9  19
ATOM     19  N   UNL     1       1.741   8.778  19.602  0.00  0.00    +0.000 N 
ATOM     20  O   UNL     1       1.320   9.249  20.667  0.00  0.00    +0.000 OA
ATOM     21  O   UNL     1       1.893   9.428  18.556  0.00  0.00    +0.000 OA
ENDBRANCH   9  19
BRANCH   1  22
ATOM     22  C   UNL     1       2.907   2.435  20.827  0.00  0.00    +0.000 C 
BRANCH  22  24
ATOM     23  C   UNL     1       1.120   2.380  22.354  0.00  0.00    +0.000 C 
ATOM     24  O   UNL     1       1.574   1.994  21.063  0.00  0.00    +0.000 OA
ENDBRANCH  22  24
ENDBRANCH   1  22
TORSDOF 4
ENDMDL
