MODEL 1
REMARK VINA RESULT:      -7.1      0.000      0.000
REMARK  Name = 
REMARK  7 active torsions:
REMARK  status: ('A' for Active; 'I' for Inactive)
REMARK    1  A    between atoms: C_1  and  O_2
REMARK    2  A    between atoms: O_2  and  C_3
REMARK    3  A    between atoms: C_6  and  N_7
REMARK    4  A    between atoms: C_8  and  C_11
REMARK    5  A    between atoms: N_9  and  O_10
REMARK    6  A    between atoms: C_14  and  O_15
REMARK    7  A    between atoms: O_15  and  C_16
REMARK                            x       y       z     vdW  Elec       q    Type
REMARK                         _______ _______ _______ _____ _____    ______ ____
ROOT
ATOM      1  N   UNL     1       2.218   6.888  18.646  0.00  0.00    +0.000 N 
ATOM      2  C   UNL     1       1.958   8.251  18.528  0.00  0.00    +0.000 C 
ATOM      3  N   UNL     1       2.224   8.884  17.412  0.00  0.00    +0.000 NA
ATOM      4  H   UNL     1       1.786   6.400  19.420  0.00  0.00    +0.000 HD
ENDROOT
BRANCH   1   8
ATOM      5  C   UNL     1       5.097   4.541  16.583  0.00  0.00    +0.000 A 
ATOM      6  C   UNL     1       5.339   5.890  16.814  0.00  0.00    +0.000 A 
ATOM      7  C   UNL     1       4.409   6.669  17.511  0.00  0.00    +0.000 A 
ATOM      8  C   UNL     1       3.204   6.133  17.976  0.00  0.00    +0.000 A 
ATOM      9  C   UNL     1       2.966   4.774  17.713  0.00  0.00    +0.000 A 
ATOM     10  C   UNL     1       3.906   3.979  17.032  0.00  0.00    +0.000 A 
BRANCH   5  12
ATOM     11  C   UNL     1       6.736   4.663  14.883  0.00  0.00    +0.000 C 
ATOM     12  O   UNL     1       6.075   3.897  15.880  0.00  0.00    +0.000 OA
ENDBRANCH   5  12
ENDBRANCH   1   8
BRANCH   2  13
ATOM     13  C   UNL     1       1.339   8.912  19.742  0.00  0.00    +0.000 A 
ATOM     14  C   UNL     1       1.662   8.444  21.023  0.00  0.00    +0.000 A 
ATOM     15  C   UNL     1       1.073   9.018  22.152  0.00  0.00    +0.000 A 
ATOM     16  C   UNL     1       0.185  10.087  22.026  0.00  0.00    +0.000 A 
ATOM     17  C   UNL     1      -0.141  10.560  20.757  0.00  0.00    +0.000 A 
ATOM     18  C   UNL     1       0.416   9.959  19.621  0.00  0.00    +0.000 A 
BRANCH  16  19
ATOM     19  O   UNL     1      -0.327  10.562  23.203  0.00  0.00    +0.000 OA
ATOM     20  C   UNL     1      -1.463  11.413  23.086  0.00  0.00    +0.000 C 
ENDBRANCH  16  19
ENDBRANCH   2  13
BRANCH   3  21
ATOM     21  O   UNL     1       2.054  10.266  17.450  0.00  0.00    +0.000 OA
ATOM     22  H   UNL     1       1.709  10.400  18.353  0.00  0.00    +0.000 HD
ENDBRANCH   3  21
TORSDOF 5
ENDMDL
MODEL 2
REMARK VINA RESULT:      -7.0      1.779      8.259
REMARK  Name = 
REMARK  7 active torsions:
REMARK  status: ('A' for Active; 'I' for Inactive)
REMARK    1  A    between atoms: C_1  and  O_2
REMARK    2  A    between atoms: O_2  and  C_3
REMARK    3  A    between atoms: C_6  and  N_7
REMARK    4  A    between atoms: C_8  and  C_11
REMARK    5  A    between atoms: N_9  and  O_10
REMARK    6  A    between atoms: C_14  and  O_15
REMARK    7  A    between atoms: O_15  and  C_16
REMARK                            x       y       z     vdW  Elec       q    Type
REMARK                         _______ _______ _______ _____ _____    ______ ____
ROOT
ATOM      1  N   UNL     1       2.974   6.158  18.114  0.00  0.00    +0.000 N 
ATOM      2  C   UNL     1       4.252   5.621  18.257  0.00  0.00    +0.000 C 
ATOM      3  N   UNL     1       4.802   5.523  19.442  0.00  0.00    +0.000 NA
ATOM      4  H   UNL     1       2.501   5.997  17.234  0.00  0.00    +0.000 HD
ENDROOT
BRANCH   1   8
ATOM      5  C   UNL     1       1.005   9.077  20.492  0.00  0.00    +0.000 A 
ATOM      6  C   UNL     1       1.283   7.823  21.022  0.00  0.00    +0.000 A 
ATOM      7  C   UNL     1       1.949   6.860  20.257  0.00  0.00    +0.000 A 
ATOM      8  C   UNL     1       2.337   7.111  18.937  0.00  0.00    +0.000 A 
ATOM      9  C   UNL     1       2.028   8.375  18.410  0.00  0.00    +0.000 A 
ATOM     10  C   UNL     1       1.377   9.356  19.179  0.00  0.00    +0.000 A 
BRANCH   5  12
ATOM     11  C   UNL     1      -0.278   9.317  22.463  0.00  0.00    +0.000 C 
ATOM     12  O   UNL     1       0.339   9.920  21.334  0.00  0.00    +0.000 OA
ENDBRANCH   5  12
ENDBRANCH   1   8
BRANCH   2  13
ATOM     13  C   UNL     1       4.917   5.152  16.979  0.00  0.00    +0.000 A 
ATOM     14  C   UNL     1       5.443   6.096  16.088  0.00  0.00    +0.000 A 
ATOM     15  C   UNL     1       6.028   5.683  14.888  0.00  0.00    +0.000 A 
ATOM     16  C   UNL     1       6.129   4.326  14.576  0.00  0.00    +0.000 A 
ATOM     17  C   UNL     1       5.609   3.380  15.456  0.00  0.00    +0.000 A 
ATOM     18  C   UNL     1       4.986   3.794  16.640  0.00  0.00    +0.000 A 
BRANCH  16  19
ATOM     19  O   UNL     1       6.719   4.048  13.373  0.00  0.00    +0.000 OA
ATOM     20  C   UNL     1       5.897   3.381  12.419  0.00  0.00    +0.000 C 
ENDBRANCH  16  19
ENDBRANCH   2  13
BRANCH   3  21
ATOM     21  O   UNL     1       6.129   5.101  19.455  0.00  0.00    +0.000 OA
ATOM     22  H   UNL     1       6.329   5.042  18.501  0.00  0.00    +0.000 HD
ENDBRANCH   3  21
TORSDOF 5
ENDMDL
MODEL 3
REMARK VINA RESULT:      -6.9      1.664      8.159
REMARK  Name = 
REMARK  7 active torsions:
REMARK  status: ('A' for Active; 'I' for Inactive)
REMARK    1  A    between atoms: C_1  and  O_2
REMARK    2  A    between atoms: O_2  and  C_3
REMARK    3  A    between atoms: C_6  and  N_7
REMARK    4  A    between atoms: C_8  and  C_11
REMARK    5  A    between atoms: N_9  and  O_10
REMARK    6  A    between atoms: C_14  and  O_15
REMARK    7  A    between atoms: O_15  and  C_16
REMARK                            x       y       z     vdW  Elec       q    Type
REMARK                         _______ _______ _______ _____ _____    ______ ____
ROOT
ATOM      1  N   UNL     1       2.785   6.413  18.170  0.00  0.00    +0.000 N 
ATOM      2  C   UNL     1       4.043   5.835  18.328  0.00  0.00    +0.000 C 
ATOM      3  N   UNL     1       4.576   5.717  19.519  0.00  0.00    +0.000 NA
ATOM      4  H   UNL     1       2.319   6.270  17.285  0.00  0.00    +0.000 HD
ENDROOT
BRANCH   1   8
ATOM      5  C   UNL     1       0.878   9.387  20.531  0.00  0.00    +0.000 A 
ATOM      6  C   UNL     1       1.180   8.149  21.086  0.00  0.00    +0.000 A 
ATOM      7  C   UNL     1       1.827   7.169  20.326  0.00  0.00    +0.000 A 
ATOM      8  C   UNL     1       2.170   7.385  18.988  0.00  0.00    +0.000 A 
ATOM      9  C   UNL     1       1.837   8.633  18.437  0.00  0.00    +0.000 A 
ATOM     10  C   UNL     1       1.206   9.631  19.200  0.00  0.00    +0.000 A 
BRANCH   5  12
ATOM     11  C   UNL     1      -0.121   9.732  22.646  0.00  0.00    +0.000 C 
ATOM     12  O   UNL     1       0.234  10.250  21.371  0.00  0.00    +0.000 OA
ENDBRANCH   5  12
ENDBRANCH   1   8
BRANCH   2  13
ATOM     13  C   UNL     1       4.708   5.346  17.058  0.00  0.00    +0.000 A 
ATOM     14  C   UNL     1       4.891   3.971  16.859  0.00  0.00    +0.000 A 
ATOM     15  C   UNL     1       5.534   3.504  15.711  0.00  0.00    +0.000 A 
ATOM     16  C   UNL     1       5.972   4.394  14.728  0.00  0.00    +0.000 A 
ATOM     17  C   UNL     1       5.794   5.763  14.917  0.00  0.00    +0.000 A 
ATOM     18  C   UNL     1       5.186   6.236  16.086  0.00  0.00    +0.000 A 
BRANCH  16  19
ATOM     19  O   UNL     1       6.589   3.817  13.652  0.00  0.00    +0.000 OA
ATOM     20  C   UNL     1       5.734   3.437  12.578  0.00  0.00    +0.000 C 
ENDBRANCH  16  19
ENDBRANCH   2  13
BRANCH   3  21
ATOM     21  O   UNL     1       5.889   5.252  19.547  0.00  0.00    +0.000 OA
ATOM     22  H   UNL     1       6.023   4.977  18.619  0.00  0.00    +0.000 HD
ENDBRANCH   3  21
TORSDOF 5
ENDMDL
MODEL 4
REMARK VINA RESULT:      -6.8      0.224      1.092
REMARK  Name = 
REMARK  7 active torsions:
REMARK  status: ('A' for Active; 'I' for Inactive)
REMARK    1  A    between atoms: C_1  and  O_2
REMARK    2  A    between atoms: O_2  and  C_3
REMARK    3  A    between atoms: C_6  and  N_7
REMARK    4  A    between atoms: C_8  and  C_11
REMARK    5  A    between atoms: N_9  and  O_10
REMARK    6  A    between atoms: C_14  and  O_15
REMARK    7  A    between atoms: O_15  and  C_16
REMARK                            x       y       z     vdW  Elec       q    Type
REMARK                         _______ _______ _______ _____ _____    ______ ____
ROOT
ATOM      1  N   UNL     1       2.258   6.951  18.623  0.00  0.00    +0.000 N 
ATOM      2  C   UNL     1       1.962   8.307  18.496  0.00  0.00    +0.000 C 
ATOM      3  N   UNL     1       2.161   8.926  17.359  0.00  0.00    +0.000 NA
ATOM      4  H   UNL     1       1.875   6.468  19.424  0.00  0.00    +0.000 HD
ENDROOT
BRANCH   1   8
ATOM      5  C   UNL     1       5.269   4.789  16.546  0.00  0.00    +0.000 A 
ATOM      6  C   UNL     1       4.137   4.130  17.011  0.00  0.00    +0.000 A 
ATOM      7  C   UNL     1       3.129   4.834  17.677  0.00  0.00    +0.000 A 
ATOM      8  C   UNL     1       3.229   6.207  17.919  0.00  0.00    +0.000 A 
ATOM      9  C   UNL     1       4.390   6.853  17.463  0.00  0.00    +0.000 A 
ATOM     10  C   UNL     1       5.398   6.157  16.774  0.00  0.00    +0.000 A 
BRANCH   5  12
ATOM     11  C   UNL     1       6.884   4.568  14.834  0.00  0.00    +0.000 C 
ATOM     12  O   UNL     1       6.184   3.988  15.925  0.00  0.00    +0.000 OA
ENDBRANCH   5  12
ENDBRANCH   1   8
BRANCH   2  13
ATOM     13  C   UNL     1       1.387   8.974  19.728  0.00  0.00    +0.000 A 
ATOM     14  C   UNL     1       1.471   8.327  20.968  0.00  0.00    +0.000 A 
ATOM     15  C   UNL     1       0.914   8.911  22.108  0.00  0.00    +0.000 A 
ATOM     16  C   UNL     1       0.298  10.162  22.037  0.00  0.00    +0.000 A 
ATOM     17  C   UNL     1       0.210  10.813  20.810  0.00  0.00    +0.000 A 
ATOM     18  C   UNL     1       0.731  10.211  19.658  0.00  0.00    +0.000 A 
BRANCH  16  19
ATOM     19  O   UNL     1      -0.211  10.628  23.219  0.00  0.00    +0.000 OA
ATOM     20  C   UNL     1      -1.547  11.117  23.168  0.00  0.00    +0.000 C 
ENDBRANCH  16  19
ENDBRANCH   2  13
BRANCH   3  21
ATOM     21  O   UNL     1       1.960  10.305  17.383  0.00  0.00    +0.000 OA
ATOM     22  H   UNL     1       1.341  10.429  16.638  0.00  0.00    +0.000 HD
ENDBRANCH   3  21
TORSDOF 5
ENDMDL
MODEL 5
REMARK VINA RESULT:      -6.8      2.446      7.966
REMARK  Name = 
REMARK  7 active torsions:
REMARK  status: ('A' for Active; 'I' for Inactive)
REMARK    1  A    between atoms: C_1  and  O_2
REMARK    2  A    between atoms: O_2  and  C_3
REMARK    3  A    between atoms: C_6  and  N_7
REMARK    4  A    between atoms: C_8  and  C_11
REMARK    5  A    between atoms: N_9  and  O_10
REMARK    6  A    between atoms: C_14  and  O_15
REMARK    7  A    between atoms: O_15  and  C_16
REMARK                            x       y       z     vdW  Elec       q    Type
REMARK                         _______ _______ _______ _____ _____    ______ ____
ROOT
ATOM      1  N   UNL     1       1.700   8.190  21.353  0.00  0.00    +0.000 N 
ATOM      2  C   UNL     1       1.924   7.668  20.081  0.00  0.00    +0.000 C 
ATOM      3  N   UNL     1       1.813   8.431  19.021  0.00  0.00    +0.000 NA
ATOM      4  H   UNL     1       2.023   7.643  22.140  0.00  0.00    +0.000 HD
ENDROOT
BRANCH   1   8
ATOM      5  C   UNL     1      -0.825  11.389  22.555  0.00  0.00    +0.000 A 
ATOM      6  C   UNL     1       0.061  11.564  21.498  0.00  0.00    +0.000 A 
ATOM      7  C   UNL     1       0.882  10.512  21.079  0.00  0.00    +0.000 A 
ATOM      8  C   UNL     1       0.861   9.266  21.713  0.00  0.00    +0.000 A 
ATOM      9  C   UNL     1      -0.023   9.115  22.794  0.00  0.00    +0.000 A 
ATOM     10  C   UNL     1      -0.867  10.160  23.208  0.00  0.00    +0.000 A 
BRANCH   5  12
ATOM     11  C   UNL     1      -2.895  12.257  23.298  0.00  0.00    +0.000 C 
ATOM     12  O   UNL     1      -1.560  12.495  22.876  0.00  0.00    +0.000 OA
ENDBRANCH   5  12
ENDBRANCH   1   8
BRANCH   2  13
ATOM     13  C   UNL     1       2.317   6.207  20.027  0.00  0.00    +0.000 A 
ATOM     14  C   UNL     1       3.567   5.847  19.506  0.00  0.00    +0.000 A 
ATOM     15  C   UNL     1       3.933   4.502  19.415  0.00  0.00    +0.000 A 
ATOM     16  C   UNL     1       3.076   3.499  19.873  0.00  0.00    +0.000 A 
ATOM     17  C   UNL     1       1.831   3.847  20.393  0.00  0.00    +0.000 A 
ATOM     18  C   UNL     1       1.446   5.193  20.447  0.00  0.00    +0.000 A 
BRANCH  16  19
ATOM     19  O   UNL     1       3.544   2.222  19.729  0.00  0.00    +0.000 OA
ATOM     20  C   UNL     1       3.359   1.636  18.443  0.00  0.00    +0.000 C 
ENDBRANCH  16  19
ENDBRANCH   2  13
BRANCH   3  21
ATOM     21  O   UNL     1       1.922   7.778  17.796  0.00  0.00    +0.000 OA
ATOM     22  H   UNL     1       1.219   8.211  17.275  0.00  0.00    +0.000 HD
ENDBRANCH   3  21
TORSDOF 5
ENDMDL
MODEL 6
REMARK VINA RESULT:      -6.8      0.211      1.079
REMARK  Name = 
REMARK  7 active torsions:
REMARK  status: ('A' for Active; 'I' for Inactive)
REMARK    1  A    between atoms: C_1  and  O_2
REMARK    2  A    between atoms: O_2  and  C_3
REMARK    3  A    between atoms: C_6  and  N_7
REMARK    4  A    between atoms: C_8  and  C_11
REMARK    5  A    between atoms: N_9  and  O_10
REMARK    6  A    between atoms: C_14  and  O_15
REMARK    7  A    between atoms: O_15  and  C_16
REMARK                            x       y       z     vdW  Elec       q    Type
REMARK                         _______ _______ _______ _____ _____    ______ ____
ROOT
ATOM      1  N   UNL     1       2.280   6.885  18.667  0.00  0.00    +0.000 N 
ATOM      2  C   UNL     1       1.984   8.242  18.554  0.00  0.00    +0.000 C 
ATOM      3  N   UNL     1       2.203   8.877  17.428  0.00  0.00    +0.000 NA
ATOM      4  H   UNL     1       1.883   6.390  19.455  0.00  0.00    +0.000 HD
ENDROOT
BRANCH   1   8
ATOM      5  C   UNL     1       5.152   4.602  16.524  0.00  0.00    +0.000 A 
ATOM      6  C   UNL     1       5.381   5.951  16.769  0.00  0.00    +0.000 A 
ATOM      7  C   UNL     1       4.453   6.709  17.492  0.00  0.00    +0.000 A 
ATOM      8  C   UNL     1       3.264   6.151  17.971  0.00  0.00    +0.000 A 
ATOM      9  C   UNL     1       3.039   4.793  17.694  0.00  0.00    +0.000 A 
ATOM     10  C   UNL     1       3.976   4.019  16.986  0.00  0.00    +0.000 A 
BRANCH   5  12
ATOM     11  C   UNL     1       6.525   4.632  14.600  0.00  0.00    +0.000 C 
ATOM     12  O   UNL     1       6.126   3.979  15.796  0.00  0.00    +0.000 OA
ENDBRANCH   5  12
ENDBRANCH   1   8
BRANCH   2  13
ATOM     13  C   UNL     1       1.386   8.892  19.784  0.00  0.00    +0.000 A 
ATOM     14  C   UNL     1       0.771  10.146  19.672  0.00  0.00    +0.000 A 
ATOM     15  C   UNL     1       0.245  10.777  20.802  0.00  0.00    +0.000 A 
ATOM     16  C   UNL     1       0.294  10.155  22.051  0.00  0.00    +0.000 A 
ATOM     17  C   UNL     1       0.904   8.909  22.172  0.00  0.00    +0.000 A 
ATOM     18  C   UNL     1       1.467   8.292  21.047  0.00  0.00    +0.000 A 
BRANCH  16  19
ATOM     19  O   UNL     1      -0.251  10.873  23.081  0.00  0.00    +0.000 OA
ATOM     20  C   UNL     1      -1.491  11.515  22.801  0.00  0.00    +0.000 C 
ENDBRANCH  16  19
ENDBRANCH   2  13
BRANCH   3  21
ATOM     21  O   UNL     1       2.001  10.255  17.467  0.00  0.00    +0.000 OA
ATOM     22  H   UNL     1       1.127  10.340  17.040  0.00  0.00    +0.000 HD
ENDBRANCH   3  21
TORSDOF 5
ENDMDL
MODEL 7
REMARK VINA RESULT:      -6.8      2.505      8.011
REMARK  Name = 
REMARK  7 active torsions:
REMARK  status: ('A' for Active; 'I' for Inactive)
REMARK    1  A    between atoms: C_1  and  O_2
REMARK    2  A    between atoms: O_2  and  C_3
REMARK    3  A    between atoms: C_6  and  N_7
REMARK    4  A    between atoms: C_8  and  C_11
REMARK    5  A    between atoms: N_9  and  O_10
REMARK    6  A    between atoms: C_14  and  O_15
REMARK    7  A    between atoms: O_15  and  C_16
REMARK                            x       y       z     vdW  Elec       q    Type
REMARK                         _______ _______ _______ _____ _____    ______ ____
ROOT
ATOM      1  N   UNL     1       1.661   8.174  21.439  0.00  0.00    +0.000 N 
ATOM      2  C   UNL     1       1.888   7.669  20.160  0.00  0.00    +0.000 C 
ATOM      3  N   UNL     1       1.818   8.455  19.114  0.00  0.00    +0.000 NA
ATOM      4  H   UNL     1       1.954   7.602  22.220  0.00  0.00    +0.000 HD
ENDROOT
BRANCH   1   8
ATOM      5  C   UNL     1      -0.771  11.514  22.429  0.00  0.00    +0.000 A 
ATOM      6  C   UNL     1      -0.921  10.318  23.120  0.00  0.00    +0.000 A 
ATOM      7  C   UNL     1      -0.112   9.217  22.819  0.00  0.00    +0.000 A 
ATOM      8  C   UNL     1       0.851   9.270  21.807  0.00  0.00    +0.000 A 
ATOM      9  C   UNL     1       0.973  10.479  21.103  0.00  0.00    +0.000 A 
ATOM     10  C   UNL     1       0.178  11.596  21.414  0.00  0.00    +0.000 A 
BRANCH   5  12
ATOM     11  C   UNL     1      -2.844  12.084  23.414  0.00  0.00    +0.000 C 
ATOM     12  O   UNL     1      -1.630  12.506  22.808  0.00  0.00    +0.000 OA
ENDBRANCH   5  12
ENDBRANCH   1   8
BRANCH   2  13
ATOM     13  C   UNL     1       2.235   6.197  20.084  0.00  0.00    +0.000 A 
ATOM     14  C   UNL     1       3.484   5.807  19.582  0.00  0.00    +0.000 A 
ATOM     15  C   UNL     1       3.808   4.453  19.471  0.00  0.00    +0.000 A 
ATOM     16  C   UNL     1       2.909   3.470  19.889  0.00  0.00    +0.000 A 
ATOM     17  C   UNL     1       1.665   3.848  20.389  0.00  0.00    +0.000 A 
ATOM     18  C   UNL     1       1.323   5.204  20.464  0.00  0.00    +0.000 A 
BRANCH  16  19
ATOM     19  O   UNL     1       3.338   2.181  19.728  0.00  0.00    +0.000 OA
ATOM     20  C   UNL     1       3.415   1.718  18.383  0.00  0.00    +0.000 C 
ENDBRANCH  16  19
ENDBRANCH   2  13
BRANCH   3  21
ATOM     21  O   UNL     1       1.926   7.822  17.878  0.00  0.00    +0.000 OA
ATOM     22  H   UNL     1       1.728   6.895  18.111  0.00  0.00    +0.000 HD
ENDBRANCH   3  21
TORSDOF 5
ENDMDL
MODEL 8
REMARK VINA RESULT:      -6.8      1.800      8.193
REMARK  Name = 
REMARK  7 active torsions:
REMARK  status: ('A' for Active; 'I' for Inactive)
REMARK    1  A    between atoms: C_1  and  O_2
REMARK    2  A    between atoms: O_2  and  C_3
REMARK    3  A    between atoms: C_6  and  N_7
REMARK    4  A    between atoms: C_8  and  C_11
REMARK    5  A    between atoms: N_9  and  O_10
REMARK    6  A    between atoms: C_14  and  O_15
REMARK    7  A    between atoms: O_15  and  C_16
REMARK                            x       y       z     vdW  Elec       q    Type
REMARK                         _______ _______ _______ _____ _____    ______ ____
ROOT
ATOM      1  N   UNL     1       2.931   6.269  17.975  0.00  0.00    +0.000 N 
ATOM      2  C   UNL     1       4.176   5.674  18.171  0.00  0.00    +0.000 C 
ATOM      3  N   UNL     1       4.668   5.545  19.379  0.00  0.00    +0.000 NA
ATOM      4  H   UNL     1       2.492   6.135  17.075  0.00  0.00    +0.000 HD
ENDROOT
BRANCH   1   8
ATOM      5  C   UNL     1       1.096   9.162  20.489  0.00  0.00    +0.000 A 
ATOM      6  C   UNL     1       1.397   9.480  19.169  0.00  0.00    +0.000 A 
ATOM      7  C   UNL     1       1.982   8.530  18.325  0.00  0.00    +0.000 A 
ATOM      8  C   UNL     1       2.303   7.247  18.777  0.00  0.00    +0.000 A 
ATOM      9  C   UNL     1       2.013   6.950  20.118  0.00  0.00    +0.000 A 
ATOM     10  C   UNL     1       1.406   7.892  20.967  0.00  0.00    +0.000 A 
BRANCH   5  12
ATOM     11  C   UNL     1       0.146  11.327  20.472  0.00  0.00    +0.000 C 
ATOM     12  O   UNL     1       0.541  10.180  21.211  0.00  0.00    +0.000 OA
ENDBRANCH   5  12
ENDBRANCH   1   8
BRANCH   2  13
ATOM     13  C   UNL     1       4.875   5.180  16.922  0.00  0.00    +0.000 A 
ATOM     14  C   UNL     1       5.395   6.108  16.010  0.00  0.00    +0.000 A 
ATOM     15  C   UNL     1       6.012   5.672  14.835  0.00  0.00    +0.000 A 
ATOM     16  C   UNL     1       6.151   4.309  14.567  0.00  0.00    +0.000 A 
ATOM     17  C   UNL     1       5.636   3.379  15.468  0.00  0.00    +0.000 A 
ATOM     18  C   UNL     1       4.982   3.815  16.627  0.00  0.00    +0.000 A 
BRANCH  16  19
ATOM     19  O   UNL     1       6.769   4.007  13.385  0.00  0.00    +0.000 OA
ATOM     20  C   UNL     1       5.958   3.358  12.410  0.00  0.00    +0.000 C 
ENDBRANCH  16  19
ENDBRANCH   2  13
BRANCH   3  21
ATOM     21  O   UNL     1       5.972   5.062  19.448  0.00  0.00    +0.000 OA
ATOM     22  H   UNL     1       6.437   5.653  18.825  0.00  0.00    +0.000 HD
ENDBRANCH   3  21
TORSDOF 5
ENDMDL
MODEL 9
REMARK VINA RESULT:      -6.8      2.322      7.945
REMARK  Name = 
REMARK  7 active torsions:
REMARK  status: ('A' for Active; 'I' for Inactive)
REMARK    1  A    between atoms: C_1  and  O_2
REMARK    2  A    between atoms: O_2  and  C_3
REMARK    3  A    between atoms: C_6  and  N_7
REMARK    4  A    between atoms: C_8  and  C_11
REMARK    5  A    between atoms: N_9  and  O_10
REMARK    6  A    between atoms: C_14  and  O_15
REMARK    7  A    between atoms: O_15  and  C_16
REMARK                            x       y       z     vdW  Elec       q    Type
REMARK                         _______ _______ _______ _____ _____    ______ ____
ROOT
ATOM      1  N   UNL     1       1.945   8.315  17.639  0.00  0.00    +0.000 N 
ATOM      2  C   UNL     1       2.512   7.328  18.442  0.00  0.00    +0.000 C 
ATOM      3  N   UNL     1       2.155   7.206  19.697  0.00  0.00    +0.000 NA
ATOM      4  H   UNL     1       2.066   8.224  16.640  0.00  0.00    +0.000 HD
ENDROOT
BRANCH   1   8
ATOM      5  C   UNL     1       0.489  12.141  18.779  0.00  0.00    +0.000 A 
ATOM      6  C   UNL     1      -0.394  11.078  18.631  0.00  0.00    +0.000 A 
ATOM      7  C   UNL     1       0.074   9.809  18.277  0.00  0.00    +0.000 A 
ATOM      8  C   UNL     1       1.431   9.567  18.039  0.00  0.00    +0.000 A 
ATOM      9  C   UNL     1       2.306  10.658  18.170  0.00  0.00    +0.000 A 
ATOM     10  C   UNL     1       1.846  11.932  18.546  0.00  0.00    +0.000 A 
BRANCH   5  12
ATOM     11  C   UNL     1      -1.225  13.251  19.970  0.00  0.00    +0.000 C 
ATOM     12  O   UNL     1      -0.095  13.330  19.112  0.00  0.00    +0.000 OA
ENDBRANCH   5  12
ENDBRANCH   1   8
BRANCH   2  13
ATOM     13  C   UNL     1       3.518   6.423  17.763  0.00  0.00    +0.000 A 
ATOM     14  C   UNL     1       4.715   6.963  17.275  0.00  0.00    +0.000 A 
ATOM     15  C   UNL     1       5.639   6.150  16.614  0.00  0.00    +0.000 A 
ATOM     16  C   UNL     1       5.401   4.783  16.461  0.00  0.00    +0.000 A 
ATOM     17  C   UNL     1       4.214   4.236  16.942  0.00  0.00    +0.000 A 
ATOM     18  C   UNL     1       3.268   5.058  17.570  0.00  0.00    +0.000 A 
BRANCH  16  19
ATOM     19  O   UNL     1       6.377   4.093  15.794  0.00  0.00    +0.000 OA
ATOM     20  C   UNL     1       6.175   3.932  14.394  0.00  0.00    +0.000 C 
ENDBRANCH  16  19
ENDBRANCH   2  13
BRANCH   3  21
ATOM     21  O   UNL     1       2.882   6.280  20.441  0.00  0.00    +0.000 OA
ATOM     22  H   UNL     1       2.170   5.750  20.850  0.00  0.00    +0.000 HD
ENDBRANCH   3  21
TORSDOF 5
ENDMDL
