MODEL 1
REMARK VINA RESULT:      -6.4      0.000      0.000
REMARK  Name = 
REMARK  7 active torsions:
REMARK  status: ('A' for Active; 'I' for Inactive)
REMARK    1  A    between atoms: C_1  and  C_2
REMARK    2  A    between atoms: C_2  and  N_3
REMARK    3  A    between atoms: N_3  and  C_4
REMARK    4  A    between atoms: N_3  and  C_6
REMARK    5  A    between atoms: C_4  and  C_5
REMARK    6  A    between atoms: C_9  and  N_10
REMARK    7  A    between atoms: C_14  and  C_15
REMARK                            x       y       z     vdW  Elec       q    Type
REMARK                         _______ _______ _______ _____ _____    ______ ____
ROOT
ATOM      1  N   UNL     1       0.362  10.966  19.083  0.00  0.00    +0.000 N 
ATOM      2  C   UNL     1       0.889  12.124  19.649  0.00  0.00    +0.000 C 
ATOM      3  O   UNL     1       1.898  12.230  20.338  0.00  0.00    +0.000 OA
ATOM      4  C   UNL     1       0.038  13.288  19.298  0.00  0.00    +0.000 C 
ATOM      5  C   UNL     1       0.363  14.534  19.665  0.00  0.00    +0.000 C 
ATOM      6  S   UNL     1      -1.338  12.783  18.404  0.00  0.00    +0.000 S 
ATOM      7  C   UNL     1      -0.830  11.095  18.393  0.00  0.00    +0.000 C 
ATOM      8  S   UNL     1      -1.798   9.913  17.706  0.00  0.00    +0.000 S 
ENDROOT
BRANCH   1  12
ATOM      9  C   UNL     1       2.289   7.185  19.605  0.00  0.00    +0.000 A 
ATOM     10  C   UNL     1       2.407   7.929  18.419  0.00  0.00    +0.000 A 
ATOM     11  C   UNL     1       1.766   9.163  18.239  0.00  0.00    +0.000 A 
ATOM     12  C   UNL     1       1.031   9.734  19.275  0.00  0.00    +0.000 A 
ATOM     13  C   UNL     1       0.941   9.054  20.485  0.00  0.00    +0.000 A 
ATOM     14  C   UNL     1       1.555   7.803  20.635  0.00  0.00    +0.000 A 
BRANCH   9  15
ATOM     15  N   UNL     1       2.838   5.901  19.747  0.00  0.00    +0.000 N 
BRANCH  15  17
ATOM     16  C   UNL     1       3.886   4.308  18.161  0.00  0.00    +0.000 C 
ATOM     17  C   UNL     1       4.075   5.537  19.044  0.00  0.00    +0.000 C 
ENDBRANCH  15  17
BRANCH  15  18
ATOM     18  C   UNL     1       2.214   4.994  20.729  0.00  0.00    +0.000 C 
ATOM     19  C   UNL     1       1.017   4.180  20.272  0.00  0.00    +0.000 C 
ENDBRANCH  15  18
ENDBRANCH   9  15
ENDBRANCH   1  12
BRANCH   5  20
ATOM     20  C   UNL     1      -0.470  15.704  19.410  0.00  0.00    +0.000 A 
ATOM     21  C   UNL     1      -0.190  16.543  18.340  0.00  0.00    +0.000 A 
ATOM     22  C   UNL     1      -0.978  17.674  18.163  0.00  0.00    +0.000 A 
ATOM     23  C   UNL     1      -2.015  17.929  19.056  0.00  0.00    +0.000 A 
ATOM     24  C   UNL     1      -2.225  17.027  20.087  0.00  0.00    +0.000 A 
ATOM     25  N   UNL     1      -1.480  15.917  20.285  0.00  0.00    +0.000 NA
ENDBRANCH   5  20
TORSDOF 5
ENDMDL
MODEL 2
REMARK VINA RESULT:      -6.4      2.083      9.303
REMARK  Name = 
REMARK  7 active torsions:
REMARK  status: ('A' for Active; 'I' for Inactive)
REMARK    1  A    between atoms: C_1  and  C_2
REMARK    2  A    between atoms: C_2  and  N_3
REMARK    3  A    between atoms: N_3  and  C_4
REMARK    4  A    between atoms: N_3  and  C_6
REMARK    5  A    between atoms: C_4  and  C_5
REMARK    6  A    between atoms: C_9  and  N_10
REMARK    7  A    between atoms: C_14  and  C_15
REMARK                            x       y       z     vdW  Elec       q    Type
REMARK                         _______ _______ _______ _____ _____    ______ ____
ROOT
ATOM      1  N   UNL     1       1.136   9.761  19.642  0.00  0.00    +0.000 N 
ATOM      2  C   UNL     1       1.753   9.191  18.532  0.00  0.00    +0.000 C 
ATOM      3  O   UNL     1       1.934   9.700  17.431  0.00  0.00    +0.000 OA
ATOM      4  C   UNL     1       2.195   7.812  18.854  0.00  0.00    +0.000 C 
ATOM      5  C   UNL     1       2.876   7.067  17.975  0.00  0.00    +0.000 C 
ATOM      6  S   UNL     1       1.709   7.377  20.442  0.00  0.00    +0.000 S 
ATOM      7  C   UNL     1       0.995   8.958  20.760  0.00  0.00    +0.000 C 
ATOM      8  S   UNL     1       0.204   9.267  22.202  0.00  0.00    +0.000 S 
ENDROOT
BRANCH   1  12
ATOM      9  C   UNL     1      -0.335  13.775  19.524  0.00  0.00    +0.000 A 
ATOM     10  C   UNL     1       1.015  13.478  19.779  0.00  0.00    +0.000 A 
ATOM     11  C   UNL     1       1.499  12.163  19.832  0.00  0.00    +0.000 A 
ATOM     12  C   UNL     1       0.653  11.090  19.561  0.00  0.00    +0.000 A 
ATOM     13  C   UNL     1      -0.676  11.348  19.246  0.00  0.00    +0.000 A 
ATOM     14  C   UNL     1      -1.153  12.665  19.237  0.00  0.00    +0.000 A 
BRANCH   9  15
ATOM     15  N   UNL     1      -0.843  15.082  19.579  0.00  0.00    +0.000 N 
BRANCH  15  17
ATOM     16  C   UNL     1      -1.244  15.445  22.000  0.00  0.00    +0.000 C 
ATOM     17  C   UNL     1      -1.837  15.452  20.595  0.00  0.00    +0.000 C 
ENDBRANCH  15  17
BRANCH  15  18
ATOM     18  C   UNL     1      -0.242  16.089  18.685  0.00  0.00    +0.000 C 
ATOM     19  C   UNL     1      -0.997  17.390  18.484  0.00  0.00    +0.000 C 
ENDBRANCH  15  18
ENDBRANCH   9  15
ENDBRANCH   1  12
BRANCH   5  20
ATOM     20  C   UNL     1       3.273   5.683  18.210  0.00  0.00    +0.000 A 
ATOM     21  C   UNL     1       2.449   4.641  17.809  0.00  0.00    +0.000 A 
ATOM     22  C   UNL     1       2.841   3.339  18.097  0.00  0.00    +0.000 A 
ATOM     23  C   UNL     1       4.038   3.122  18.774  0.00  0.00    +0.000 A 
ATOM     24  C   UNL     1       4.800   4.226  19.124  0.00  0.00    +0.000 A 
ATOM     25  N   UNL     1       4.449   5.503  18.856  0.00  0.00    +0.000 NA
ENDBRANCH   5  20
TORSDOF 5
ENDMDL
MODEL 3
REMARK VINA RESULT:      -6.4      0.288      1.305
REMARK  Name = 
REMARK  7 active torsions:
REMARK  status: ('A' for Active; 'I' for Inactive)
REMARK    1  A    between atoms: C_1  and  C_2
REMARK    2  A    between atoms: C_2  and  N_3
REMARK    3  A    between atoms: N_3  and  C_4
REMARK    4  A    between atoms: N_3  and  C_6
REMARK    5  A    between atoms: C_4  and  C_5
REMARK    6  A    between atoms: C_9  and  N_10
REMARK    7  A    between atoms: C_14  and  C_15
REMARK                            x       y       z     vdW  Elec       q    Type
REMARK                         _______ _______ _______ _____ _____    ______ ____
ROOT
ATOM      1  N   UNL     1       0.324  10.947  19.116  0.00  0.00    +0.000 N 
ATOM      2  C   UNL     1       0.822  12.093  19.731  0.00  0.00    +0.000 C 
ATOM      3  O   UNL     1       1.799  12.184  20.468  0.00  0.00    +0.000 OA
ATOM      4  C   UNL     1      -0.014  13.263  19.367  0.00  0.00    +0.000 C 
ATOM      5  C   UNL     1       0.291  14.501  19.776  0.00  0.00    +0.000 C 
ATOM      6  S   UNL     1      -1.346  12.776  18.400  0.00  0.00    +0.000 S 
ATOM      7  C   UNL     1      -0.835  11.089  18.376  0.00  0.00    +0.000 C 
ATOM      8  S   UNL     1      -1.768   9.922  17.619  0.00  0.00    +0.000 S 
ENDROOT
BRANCH   1  12
ATOM      9  C   UNL     1       2.233   7.157  19.645  0.00  0.00    +0.000 A 
ATOM     10  C   UNL     1       2.377   7.911  18.468  0.00  0.00    +0.000 A 
ATOM     11  C   UNL     1       1.742   9.148  18.286  0.00  0.00    +0.000 A 
ATOM     12  C   UNL     1       0.987   9.711  19.312  0.00  0.00    +0.000 A 
ATOM     13  C   UNL     1       0.871   9.021  20.513  0.00  0.00    +0.000 A 
ATOM     14  C   UNL     1       1.478   7.767  20.666  0.00  0.00    +0.000 A 
BRANCH   9  15
ATOM     15  N   UNL     1       2.776   5.870  19.788  0.00  0.00    +0.000 N 
BRANCH  15  17
ATOM     16  C   UNL     1       1.123   4.095  20.308  0.00  0.00    +0.000 C 
ATOM     17  C   UNL     1       2.270   4.958  20.822  0.00  0.00    +0.000 C 
ENDBRANCH  15  17
BRANCH  15  18
ATOM     18  C   UNL     1       3.757   5.426  18.781  0.00  0.00    +0.000 C 
ATOM     19  C   UNL     1       4.980   4.675  19.275  0.00  0.00    +0.000 C 
ENDBRANCH  15  18
ENDBRANCH   9  15
ENDBRANCH   1  12
BRANCH   5  20
ATOM     20  C   UNL     1      -0.532  15.676  19.510  0.00  0.00    +0.000 A 
ATOM     21  C   UNL     1      -0.285  16.465  18.395  0.00  0.00    +0.000 A 
ATOM     22  C   UNL     1      -1.060  17.602  18.205  0.00  0.00    +0.000 A 
ATOM     23  C   UNL     1      -2.052  17.913  19.130  0.00  0.00    +0.000 A 
ATOM     24  C   UNL     1      -2.232  17.059  20.207  0.00  0.00    +0.000 A 
ATOM     25  N   UNL     1      -1.498  15.943  20.418  0.00  0.00    +0.000 NA
ENDBRANCH   5  20
TORSDOF 5
ENDMDL
MODEL 4
REMARK VINA RESULT:      -6.3      2.050      9.240
REMARK  Name = 
REMARK  7 active torsions:
REMARK  status: ('A' for Active; 'I' for Inactive)
REMARK    1  A    between atoms: C_1  and  C_2
REMARK    2  A    between atoms: C_2  and  N_3
REMARK    3  A    between atoms: N_3  and  C_4
REMARK    4  A    between atoms: N_3  and  C_6
REMARK    5  A    between atoms: C_4  and  C_5
REMARK    6  A    between atoms: C_9  and  N_10
REMARK    7  A    between atoms: C_14  and  C_15
REMARK                            x       y       z     vdW  Elec       q    Type
REMARK                         _______ _______ _______ _____ _____    ______ ____
ROOT
ATOM      1  N   UNL     1       1.109   9.847  19.674  0.00  0.00    +0.000 N 
ATOM      2  C   UNL     1       1.728   9.269  18.569  0.00  0.00    +0.000 C 
ATOM      3  O   UNL     1       1.934   9.778  17.472  0.00  0.00    +0.000 OA
ATOM      4  C   UNL     1       2.137   7.879  18.892  0.00  0.00    +0.000 C 
ATOM      5  C   UNL     1       2.814   7.124  18.018  0.00  0.00    +0.000 C 
ATOM      6  S   UNL     1       1.621   7.449  20.472  0.00  0.00    +0.000 S 
ATOM      7  C   UNL     1       0.936   9.043  20.786  0.00  0.00    +0.000 C 
ATOM      8  S   UNL     1       0.132   9.363  22.219  0.00  0.00    +0.000 S 
ENDROOT
BRANCH   1  12
ATOM      9  C   UNL     1      -0.279  13.891  19.552  0.00  0.00    +0.000 A 
ATOM     10  C   UNL     1       1.057  13.565  19.843  0.00  0.00    +0.000 A 
ATOM     11  C   UNL     1       1.513  12.240  19.897  0.00  0.00    +0.000 A 
ATOM     12  C   UNL     1       0.655  11.186  19.592  0.00  0.00    +0.000 A 
ATOM     13  C   UNL     1      -0.659  11.473  19.241  0.00  0.00    +0.000 A 
ATOM     14  C   UNL     1      -1.110  12.800  19.231  0.00  0.00    +0.000 A 
BRANCH   9  15
ATOM     15  N   UNL     1      -0.763  15.207  19.606  0.00  0.00    +0.000 N 
BRANCH  15  17
ATOM     16  C   UNL     1      -1.195  17.446  18.628  0.00  0.00    +0.000 C 
ATOM     17  C   UNL     1      -0.299  16.211  18.640  0.00  0.00    +0.000 C 
ENDBRANCH  15  17
BRANCH  15  18
ATOM     18  C   UNL     1      -1.846  15.500  20.563  0.00  0.00    +0.000 C 
ATOM     19  C   UNL     1      -1.472  15.636  22.027  0.00  0.00    +0.000 C 
ENDBRANCH  15  18
ENDBRANCH   9  15
ENDBRANCH   1  12
BRANCH   5  20
ATOM     20  C   UNL     1       3.179   5.731  18.254  0.00  0.00    +0.000 A 
ATOM     21  C   UNL     1       2.339   4.708  17.839  0.00  0.00    +0.000 A 
ATOM     22  C   UNL     1       2.700   3.397  18.127  0.00  0.00    +0.000 A 
ATOM     23  C   UNL     1       3.883   3.153  18.817  0.00  0.00    +0.000 A 
ATOM     24  C   UNL     1       4.664   4.239  19.180  0.00  0.00    +0.000 A 
ATOM     25  N   UNL     1       4.343   5.524  18.912  0.00  0.00    +0.000 NA
ENDBRANCH   5  20
TORSDOF 5
ENDMDL
MODEL 5
REMARK VINA RESULT:      -6.3      2.078      9.281
REMARK  Name = 
REMARK  7 active torsions:
REMARK  status: ('A' for Active; 'I' for Inactive)
REMARK    1  A    between atoms: C_1  and  C_2
REMARK    2  A    between atoms: C_2  and  N_3
REMARK    3  A    between atoms: N_3  and  C_4
REMARK    4  A    between atoms: N_3  and  C_6
REMARK    5  A    between atoms: C_4  and  C_5
REMARK    6  A    between atoms: C_9  and  N_10
REMARK    7  A    between atoms: C_14  and  C_15
REMARK                            x       y       z     vdW  Elec       q    Type
REMARK                         _______ _______ _______ _____ _____    ______ ____
ROOT
ATOM      1  N   UNL     1       1.041   9.940  19.878  0.00  0.00    +0.000 N 
ATOM      2  C   UNL     1       1.623   9.411  18.730  0.00  0.00    +0.000 C 
ATOM      3  O   UNL     1       1.776   9.962  17.645  0.00  0.00    +0.000 OA
ATOM      4  C   UNL     1       2.067   8.018  18.986  0.00  0.00    +0.000 C 
ATOM      5  C   UNL     1       2.719   7.305  18.060  0.00  0.00    +0.000 C 
ATOM      6  S   UNL     1       1.622   7.524  20.569  0.00  0.00    +0.000 S 
ATOM      7  C   UNL     1       0.926   9.094  20.967  0.00  0.00    +0.000 C 
ATOM      8  S   UNL     1       0.176   9.350  22.442  0.00  0.00    +0.000 S 
ENDROOT
BRANCH   1  12
ATOM      9  C   UNL     1      -0.386  13.968  19.706  0.00  0.00    +0.000 A 
ATOM     10  C   UNL     1      -1.219  12.866  19.448  0.00  0.00    +0.000 A 
ATOM     11  C   UNL     1      -0.752  11.544  19.491  0.00  0.00    +0.000 A 
ATOM     12  C   UNL     1       0.563  11.273  19.863  0.00  0.00    +0.000 A 
ATOM     13  C   UNL     1       1.400  12.335  20.183  0.00  0.00    +0.000 A 
ATOM     14  C   UNL     1       0.930  13.652  20.097  0.00  0.00    +0.000 A 
BRANCH   9  15
ATOM     15  N   UNL     1      -0.821  15.294  19.557  0.00  0.00    +0.000 N 
BRANCH  15  17
ATOM     16  C   UNL     1      -1.194  16.068  21.884  0.00  0.00    +0.000 C 
ATOM     17  C   UNL     1      -1.793  15.869  20.496  0.00  0.00    +0.000 C 
ENDBRANCH  15  17
BRANCH  15  18
ATOM     18  C   UNL     1      -0.165  16.118  18.525  0.00  0.00    +0.000 C 
ATOM     19  C   UNL     1      -0.737  17.498  18.259  0.00  0.00    +0.000 C 
ENDBRANCH  15  18
ENDBRANCH   9  15
ENDBRANCH   1  12
BRANCH   5  20
ATOM     20  C   UNL     1       3.115   5.911  18.231  0.00  0.00    +0.000 A 
ATOM     21  C   UNL     1       2.255   4.889  17.855  0.00  0.00    +0.000 A 
ATOM     22  C   UNL     1       2.650   3.576  18.081  0.00  0.00    +0.000 A 
ATOM     23  C   UNL     1       3.886   3.328  18.671  0.00  0.00    +0.000 A 
ATOM     24  C   UNL     1       4.681   4.414  19.001  0.00  0.00    +0.000 A 
ATOM     25  N   UNL     1       4.328   5.702  18.792  0.00  0.00    +0.000 NA
ENDBRANCH   5  20
TORSDOF 5
ENDMDL
MODEL 6
REMARK VINA RESULT:      -6.2      2.695      3.229
REMARK  Name = 
REMARK  7 active torsions:
REMARK  status: ('A' for Active; 'I' for Inactive)
REMARK    1  A    between atoms: C_1  and  C_2
REMARK    2  A    between atoms: C_2  and  N_3
REMARK    3  A    between atoms: N_3  and  C_4
REMARK    4  A    between atoms: N_3  and  C_6
REMARK    5  A    between atoms: C_4  and  C_5
REMARK    6  A    between atoms: C_9  and  N_10
REMARK    7  A    between atoms: C_14  and  C_15
REMARK                            x       y       z     vdW  Elec       q    Type
REMARK                         _______ _______ _______ _____ _____    ______ ____
ROOT
ATOM      1  N   UNL     1       0.101  10.273  19.964  0.00  0.00    +0.000 N 
ATOM      2  C   UNL     1       0.277  10.785  21.246  0.00  0.00    +0.000 C 
ATOM      3  O   UNL     1       1.162  10.508  22.050  0.00  0.00    +0.000 OA
ATOM      4  C   UNL     1      -0.793  11.769  21.547  0.00  0.00    +0.000 C 
ATOM      5  C   UNL     1      -0.814  12.458  22.695  0.00  0.00    +0.000 C 
ATOM      6  S   UNL     1      -1.916  11.855  20.251  0.00  0.00    +0.000 S 
ATOM      7  C   UNL     1      -1.017  10.699  19.269  0.00  0.00    +0.000 C 
ATOM      8  S   UNL     1      -1.602  10.201  17.781  0.00  0.00    +0.000 S 
ENDROOT
BRANCH   1  12
ATOM      9  C   UNL     1       2.804   7.362  18.380  0.00  0.00    +0.000 A 
ATOM     10  C   UNL     1       2.471   8.535  17.681  0.00  0.00    +0.000 A 
ATOM     11  C   UNL     1       1.575   9.485  18.191  0.00  0.00    +0.000 A 
ATOM     12  C   UNL     1       1.027   9.327  19.462  0.00  0.00    +0.000 A 
ATOM     13  C   UNL     1       1.379   8.208  20.208  0.00  0.00    +0.000 A 
ATOM     14  C   UNL     1       2.245   7.247  19.668  0.00  0.00    +0.000 A 
BRANCH   9  15
ATOM     15  N   UNL     1       3.614   6.358  17.827  0.00  0.00    +0.000 N 
BRANCH  15  17
ATOM     16  C   UNL     1       5.194   5.570  16.085  0.00  0.00    +0.000 C 
ATOM     17  C   UNL     1       4.784   6.709  17.012  0.00  0.00    +0.000 C 
ENDBRANCH  15  17
BRANCH  15  18
ATOM     18  C   UNL     1       3.330   4.962  18.209  0.00  0.00    +0.000 C 
ATOM     19  C   UNL     1       2.060   4.330  17.671  0.00  0.00    +0.000 C 
ENDBRANCH  15  18
ENDBRANCH   9  15
ENDBRANCH   1  12
BRANCH   5  20
ATOM     20  C   UNL     1      -1.877  13.382  23.074  0.00  0.00    +0.000 A 
ATOM     21  C   UNL     1      -3.023  12.912  23.699  0.00  0.00    +0.000 A 
ATOM     22  C   UNL     1      -4.033  13.819  23.998  0.00  0.00    +0.000 A 
ATOM     23  C   UNL     1      -3.865  15.159  23.664  0.00  0.00    +0.000 A 
ATOM     24  C   UNL     1      -2.681  15.537  23.051  0.00  0.00    +0.000 A 
ATOM     25  N   UNL     1      -1.678  14.681  22.750  0.00  0.00    +0.000 NA
ENDBRANCH   5  20
TORSDOF 5
ENDMDL
MODEL 7
REMARK VINA RESULT:      -6.2      0.654      1.014
REMARK  Name = 
REMARK  7 active torsions:
REMARK  status: ('A' for Active; 'I' for Inactive)
REMARK    1  A    between atoms: C_1  and  C_2
REMARK    2  A    between atoms: C_2  and  N_3
REMARK    3  A    between atoms: N_3  and  C_4
REMARK    4  A    between atoms: N_3  and  C_6
REMARK    5  A    between atoms: C_4  and  C_5
REMARK    6  A    between atoms: C_9  and  N_10
REMARK    7  A    between atoms: C_14  and  C_15
REMARK                            x       y       z     vdW  Elec       q    Type
REMARK                         _______ _______ _______ _____ _____    ______ ____
ROOT
ATOM      1  N   UNL     1       0.411  10.987  19.022  0.00  0.00    +0.000 N 
ATOM      2  C   UNL     1       0.994  12.135  19.552  0.00  0.00    +0.000 C 
ATOM      3  O   UNL     1       2.047  12.222  20.174  0.00  0.00    +0.000 OA
ATOM      4  C   UNL     1       0.143  13.314  19.256  0.00  0.00    +0.000 C 
ATOM      5  C   UNL     1       0.513  14.554  19.600  0.00  0.00    +0.000 C 
ATOM      6  S   UNL     1      -1.296  12.835  18.452  0.00  0.00    +0.000 S 
ATOM      7  C   UNL     1      -0.821  11.138  18.410  0.00  0.00    +0.000 C 
ATOM      8  S   UNL     1      -1.852   9.974  17.787  0.00  0.00    +0.000 S 
ENDROOT
BRANCH   1  12
ATOM      9  C   UNL     1       2.301   7.171  19.417  0.00  0.00    +0.000 A 
ATOM     10  C   UNL     1       2.378   7.928  18.235  0.00  0.00    +0.000 A 
ATOM     11  C   UNL     1       1.749   9.174  18.097  0.00  0.00    +0.000 A 
ATOM     12  C   UNL     1       1.069   9.742  19.171  0.00  0.00    +0.000 A 
ATOM     13  C   UNL     1       1.021   9.050  20.375  0.00  0.00    +0.000 A 
ATOM     14  C   UNL     1       1.621   7.788  20.485  0.00  0.00    +0.000 A 
BRANCH   9  15
ATOM     15  N   UNL     1       2.835   5.878  19.521  0.00  0.00    +0.000 N 
BRANCH  15  17
ATOM     16  C   UNL     1       4.752   4.317  19.312  0.00  0.00    +0.000 C 
ATOM     17  C   UNL     1       3.977   5.475  18.691  0.00  0.00    +0.000 C 
ENDBRANCH  15  17
BRANCH  15  18
ATOM     18  C   UNL     1       2.306   5.002  20.583  0.00  0.00    +0.000 C 
ATOM     19  C   UNL     1       1.192   4.041  20.211  0.00  0.00    +0.000 C 
ENDBRANCH  15  18
ENDBRANCH   9  15
ENDBRANCH   1  12
BRANCH   5  20
ATOM     20  C   UNL     1      -0.313  15.739  19.400  0.00  0.00    +0.000 A 
ATOM     21  C   UNL     1      -1.277  16.086  20.336  0.00  0.00    +0.000 A 
ATOM     22  C   UNL     1      -2.077  17.194  20.082  0.00  0.00    +0.000 A 
ATOM     23  C   UNL     1      -1.888  17.916  18.907  0.00  0.00    +0.000 A 
ATOM     24  C   UNL     1      -0.892  17.499  18.038  0.00  0.00    +0.000 A 
ATOM     25  N   UNL     1      -0.095  16.429  18.256  0.00  0.00    +0.000 NA
ENDBRANCH   5  20
TORSDOF 5
ENDMDL
MODEL 8
REMARK VINA RESULT:      -6.2      3.208      3.624
REMARK  Name = 
REMARK  7 active torsions:
REMARK  status: ('A' for Active; 'I' for Inactive)
REMARK    1  A    between atoms: C_1  and  C_2
REMARK    2  A    between atoms: C_2  and  N_3
REMARK    3  A    between atoms: N_3  and  C_4
REMARK    4  A    between atoms: N_3  and  C_6
REMARK    5  A    between atoms: C_4  and  C_5
REMARK    6  A    between atoms: C_9  and  N_10
REMARK    7  A    between atoms: C_14  and  C_15
REMARK                            x       y       z     vdW  Elec       q    Type
REMARK                         _______ _______ _______ _____ _____    ______ ____
ROOT
ATOM      1  N   UNL     1       0.258   9.880  19.968  0.00  0.00    +0.000 N 
ATOM      2  C   UNL     1       0.324  10.202  21.321  0.00  0.00    +0.000 C 
ATOM      3  O   UNL     1       1.126   9.789  22.152  0.00  0.00    +0.000 OA
ATOM      4  C   UNL     1      -0.753  11.164  21.662  0.00  0.00    +0.000 C 
ATOM      5  C   UNL     1      -0.869  11.685  22.890  0.00  0.00    +0.000 C 
ATOM      6  S   UNL     1      -1.751  11.463  20.297  0.00  0.00    +0.000 S 
ATOM      7  C   UNL     1      -0.784  10.431  19.245  0.00  0.00    +0.000 C 
ATOM      8  S   UNL     1      -1.238  10.164  17.655  0.00  0.00    +0.000 S 
ENDROOT
BRANCH   1  12
ATOM      9  C   UNL     1       3.047   7.137  18.240  0.00  0.00    +0.000 A 
ATOM     10  C   UNL     1       2.727   8.364  17.633  0.00  0.00    +0.000 A 
ATOM     11  C   UNL     1       1.804   9.260  18.190  0.00  0.00    +0.000 A 
ATOM     12  C   UNL     1       1.211   8.987  19.420  0.00  0.00    +0.000 A 
ATOM     13  C   UNL     1       1.548   7.810  20.079  0.00  0.00    +0.000 A 
ATOM     14  C   UNL     1       2.442   6.906  19.491  0.00  0.00    +0.000 A 
BRANCH   9  15
ATOM     15  N   UNL     1       3.886   6.190  17.631  0.00  0.00    +0.000 N 
BRANCH  15  17
ATOM     16  C   UNL     1       6.221   6.954  17.289  0.00  0.00    +0.000 C 
ATOM     17  C   UNL     1       4.885   6.608  16.640  0.00  0.00    +0.000 C 
ENDBRANCH  15  17
BRANCH  15  18
ATOM     18  C   UNL     1       3.824   4.802  18.126  0.00  0.00    +0.000 C 
ATOM     19  C   UNL     1       2.768   3.890  17.529  0.00  0.00    +0.000 C 
ENDBRANCH  15  18
ENDBRANCH   9  15
ENDBRANCH   1  12
BRANCH   5  20
ATOM     20  C   UNL     1      -1.948  12.577  23.301  0.00  0.00    +0.000 A 
ATOM     21  C   UNL     1      -1.714  13.937  23.445  0.00  0.00    +0.000 A 
ATOM     22  C   UNL     1      -2.755  14.745  23.886  0.00  0.00    +0.000 A 
ATOM     23  C   UNL     1      -3.991  14.169  24.167  0.00  0.00    +0.000 A 
ATOM     24  C   UNL     1      -4.132  12.803  23.983  0.00  0.00    +0.000 A 
ATOM     25  N   UNL     1      -3.141  11.991  23.552  0.00  0.00    +0.000 NA
ENDBRANCH   5  20
TORSDOF 5
ENDMDL
MODEL 9
REMARK VINA RESULT:      -6.2      0.254      1.594
REMARK  Name = 
REMARK  7 active torsions:
REMARK  status: ('A' for Active; 'I' for Inactive)
REMARK    1  A    between atoms: C_1  and  C_2
REMARK    2  A    between atoms: C_2  and  N_3
REMARK    3  A    between atoms: N_3  and  C_4
REMARK    4  A    between atoms: N_3  and  C_6
REMARK    5  A    between atoms: C_4  and  C_5
REMARK    6  A    between atoms: C_9  and  N_10
REMARK    7  A    between atoms: C_14  and  C_15
REMARK                            x       y       z     vdW  Elec       q    Type
REMARK                         _______ _______ _______ _____ _____    ______ ____
ROOT
ATOM      1  N   UNL     1       0.346  10.830  19.008  0.00  0.00    +0.000 N 
ATOM      2  C   UNL     1       0.891  11.949  19.632  0.00  0.00    +0.000 C 
ATOM      3  O   UNL     1       1.885  11.997  20.350  0.00  0.00    +0.000 OA
ATOM      4  C   UNL     1       0.084  13.151  19.307  0.00  0.00    +0.000 C 
ATOM      5  C   UNL     1       0.435  14.371  19.731  0.00  0.00    +0.000 C 
ATOM      6  S   UNL     1      -1.283  12.722  18.360  0.00  0.00    +0.000 S 
ATOM      7  C   UNL     1      -0.824  11.021  18.295  0.00  0.00    +0.000 C 
ATOM      8  S   UNL     1      -1.807   9.896  17.538  0.00  0.00    +0.000 S 
ENDROOT
BRANCH   1  12
ATOM      9  C   UNL     1       2.343   7.087  19.545  0.00  0.00    +0.000 A 
ATOM     10  C   UNL     1       1.580   7.682  20.564  0.00  0.00    +0.000 A 
ATOM     11  C   UNL     1       0.934   8.916  20.396  0.00  0.00    +0.000 A 
ATOM     12  C   UNL     1       0.975   9.571  19.168  0.00  0.00    +0.000 A 
ATOM     13  C   UNL     1       1.671   8.983  18.118  0.00  0.00    +0.000 A 
ATOM     14  C   UNL     1       2.344   7.770  18.313  0.00  0.00    +0.000 A 
BRANCH   9  15
ATOM     15  N   UNL     1       3.079   5.908  19.745  0.00  0.00    +0.000 N 
BRANCH  15  17
ATOM     16  C   UNL     1       1.353   4.148  20.013  0.00  0.00    +0.000 C 
ATOM     17  C   UNL     1       2.565   4.848  20.620  0.00  0.00    +0.000 C 
ENDBRANCH  15  17
BRANCH  15  18
ATOM     18  C   UNL     1       4.301   5.720  18.940  0.00  0.00    +0.000 C 
ATOM     19  C   UNL     1       4.252   4.702  17.816  0.00  0.00    +0.000 C 
ENDBRANCH  15  18
ENDBRANCH   9  15
ENDBRANCH   1  12
BRANCH   5  20
ATOM     20  C   UNL     1      -0.358  15.574  19.503  0.00  0.00    +0.000 A 
ATOM     21  C   UNL     1      -0.073  16.406  18.429  0.00  0.00    +0.000 A 
ATOM     22  C   UNL     1      -0.819  17.568  18.276  0.00  0.00    +0.000 A 
ATOM     23  C   UNL     1      -1.821  17.860  19.197  0.00  0.00    +0.000 A 
ATOM     24  C   UNL     1      -2.040  16.963  20.231  0.00  0.00    +0.000 A 
ATOM     25  N   UNL     1      -1.334  15.823  20.405  0.00  0.00    +0.000 NA
ENDBRANCH   5  20
TORSDOF 5
ENDMDL
