MODEL 1
REMARK VINA RESULT:      -7.2      0.000      0.000
REMARK  Name = 
REMARK  2 active torsions:
REMARK  status: ('A' for Active; 'I' for Inactive)
REMARK    1  A    between atoms: C_2  and  C_3
REMARK    2  A    between atoms: C_6  and  C_7
REMARK                            x       y       z     vdW  Elec       q    Type
REMARK                         _______ _______ _______ _____ _____    ______ ____
ROOT
ATOM      1  C   UNL     1       2.593   3.175  20.348  0.00  0.00    +0.000 A 
ATOM      2  C   UNL     1       2.092   4.041  19.370  0.00  0.00    +0.000 A 
ATOM      3  C   UNL     1       2.895   4.421  18.285  0.00  0.00    +0.000 A 
ATOM      4  C   UNL     1       4.206   3.937  18.166  0.00  0.00    +0.000 A 
ATOM      5  C   UNL     1       4.703   3.073  19.150  0.00  0.00    +0.000 A 
ATOM      6  C   UNL     1       3.897   2.701  20.227  0.00  0.00    +0.000 A 
ATOM      7  F   UNL     1       4.408   1.877  21.153  0.00  0.00    +0.000 F 
ENDROOT
BRANCH   4   8
ATOM      8  C   UNL     1       5.062   4.329  17.034  0.00  0.00    +0.000 A 
ATOM      9  C   UNL     1       4.891   3.744  15.827  0.00  0.00    +0.000 A 
ATOM     10  C   UNL     1       5.712   4.165  14.700  0.00  0.00    +0.000 A 
ATOM     11  C   UNL     1       6.650   5.120  14.831  0.00  0.00    +0.000 A 
ATOM     12  C   UNL     1       6.851   5.740  16.092  0.00  0.00    +0.000 A 
ATOM     13  N   UNL     1       7.681   6.682  16.478  0.00  0.00    +0.000 NA
ATOM     14  C   UNL     1       7.372   6.833  17.795  0.00  0.00    +0.000 A 
ATOM     15  N   UNL     1       6.402   6.049  18.264  0.00  0.00    +0.000 NA
ATOM     16  N   UNL     1       6.049   5.327  17.165  0.00  0.00    +0.000 N 
ENDBRANCH   4   8
BRANCH   1  18
ATOM     17  N   UNL     1       1.126   2.499  22.375  0.00  0.00    +0.000 NA
ATOM     18  C   UNL     1       1.779   2.784  21.459  0.00  0.00    +0.000 C 
ENDBRANCH   1  18
TORSDOF 2
ENDMDL
MODEL 2
REMARK VINA RESULT:      -7.2      1.095      1.578
REMARK  Name = 
REMARK  2 active torsions:
REMARK  status: ('A' for Active; 'I' for Inactive)
REMARK    1  A    between atoms: C_2  and  C_3
REMARK    2  A    between atoms: C_6  and  C_7
REMARK                            x       y       z     vdW  Elec       q    Type
REMARK                         _______ _______ _______ _____ _____    ______ ____
ROOT
ATOM      1  C   UNL     1       2.644   3.077  20.424  0.00  0.00    +0.000 A 
ATOM      2  C   UNL     1       3.941   2.573  20.280  0.00  0.00    +0.000 A 
ATOM      3  C   UNL     1       4.736   2.971  19.196  0.00  0.00    +0.000 A 
ATOM      4  C   UNL     1       4.244   3.879  18.247  0.00  0.00    +0.000 A 
ATOM      5  C   UNL     1       2.943   4.378  18.396  0.00  0.00    +0.000 A 
ATOM      6  C   UNL     1       2.158   3.975  19.476  0.00  0.00    +0.000 A 
ATOM      7  F   UNL     1       0.916   4.469  19.583  0.00  0.00    +0.000 F 
ENDROOT
BRANCH   4   8
ATOM      8  C   UNL     1       5.067   4.304  17.102  0.00  0.00    +0.000 A 
ATOM      9  C   UNL     1       4.860   3.755  15.884  0.00  0.00    +0.000 A 
ATOM     10  C   UNL     1       5.648   4.209  14.747  0.00  0.00    +0.000 A 
ATOM     11  C   UNL     1       6.589   5.161  14.877  0.00  0.00    +0.000 A 
ATOM     12  C   UNL     1       6.828   5.743  16.150  0.00  0.00    +0.000 A 
ATOM     13  N   UNL     1       7.670   6.673  16.539  0.00  0.00    +0.000 NA
ATOM     14  C   UNL     1       7.401   6.785  17.868  0.00  0.00    +0.000 A 
ATOM     15  N   UNL     1       6.444   5.988  18.342  0.00  0.00    +0.000 NA
ATOM     16  N   UNL     1       6.058   5.298  17.234  0.00  0.00    +0.000 N 
ENDBRANCH   4   8
BRANCH   1  18
ATOM     17  N   UNL     1       1.133   2.347  22.400  0.00  0.00    +0.000 NA
ATOM     18  C   UNL     1       1.825   2.674  21.528  0.00  0.00    +0.000 C 
ENDBRANCH   1  18
TORSDOF 2
ENDMDL
MODEL 3
REMARK VINA RESULT:      -7.1      2.533      6.227
REMARK  Name = 
REMARK  2 active torsions:
REMARK  status: ('A' for Active; 'I' for Inactive)
REMARK    1  A    between atoms: C_2  and  C_3
REMARK    2  A    between atoms: C_6  and  C_7
REMARK                            x       y       z     vdW  Elec       q    Type
REMARK                         _______ _______ _______ _____ _____    ______ ____
ROOT
ATOM      1  C   UNL     1       6.339   5.135  15.514  0.00  0.00    +0.000 A 
ATOM      2  C   UNL     1       5.265   4.242  15.427  0.00  0.00    +0.000 A 
ATOM      3  C   UNL     1       4.388   4.085  16.509  0.00  0.00    +0.000 A 
ATOM      4  C   UNL     1       4.573   4.821  17.688  0.00  0.00    +0.000 A 
ATOM      5  C   UNL     1       5.651   5.711  17.771  0.00  0.00    +0.000 A 
ATOM      6  C   UNL     1       6.521   5.860  16.690  0.00  0.00    +0.000 A 
ATOM      7  F   UNL     1       7.545   6.717  16.806  0.00  0.00    +0.000 F 
ENDROOT
BRANCH   4   8
ATOM      8  C   UNL     1       3.661   4.665  18.834  0.00  0.00    +0.000 A 
ATOM      9  C   UNL     1       2.652   5.546  19.016  0.00  0.00    +0.000 A 
ATOM     10  C   UNL     1       1.729   5.364  20.127  0.00  0.00    +0.000 A 
ATOM     11  C   UNL     1       1.858   4.340  20.989  0.00  0.00    +0.000 A 
ATOM     12  C   UNL     1       2.916   3.409  20.821  0.00  0.00    +0.000 A 
ATOM     13  N   UNL     1       3.255   2.341  21.506  0.00  0.00    +0.000 NA
ATOM     14  C   UNL     1       4.347   1.885  20.832  0.00  0.00    +0.000 A 
ATOM     15  N   UNL     1       4.717   2.595  19.767  0.00  0.00    +0.000 NA
ATOM     16  N   UNL     1       3.794   3.596  19.744  0.00  0.00    +0.000 N 
ENDBRANCH   4   8
BRANCH   1  18
ATOM     17  N   UNL     1       7.997   5.437  13.545  0.00  0.00    +0.000 NA
ATOM     18  C   UNL     1       7.240   5.300  14.414  0.00  0.00    +0.000 C 
ENDBRANCH   1  18
TORSDOF 2
ENDMDL
MODEL 4
REMARK VINA RESULT:      -7.0      2.580      6.052
REMARK  Name = 
REMARK  2 active torsions:
REMARK  status: ('A' for Active; 'I' for Inactive)
REMARK    1  A    between atoms: C_2  and  C_3
REMARK    2  A    between atoms: C_6  and  C_7
REMARK                            x       y       z     vdW  Elec       q    Type
REMARK                         _______ _______ _______ _____ _____    ______ ____
ROOT
ATOM      1  C   UNL     1       6.334   4.904  15.816  0.00  0.00    +0.000 A 
ATOM      2  C   UNL     1       5.157   4.170  15.639  0.00  0.00    +0.000 A 
ATOM      3  C   UNL     1       4.297   3.941  16.723  0.00  0.00    +0.000 A 
ATOM      4  C   UNL     1       4.605   4.447  17.994  0.00  0.00    +0.000 A 
ATOM      5  C   UNL     1       5.787   5.179  18.166  0.00  0.00    +0.000 A 
ATOM      6  C   UNL     1       6.637   5.400  17.082  0.00  0.00    +0.000 A 
ATOM      7  F   UNL     1       7.763   6.101  17.284  0.00  0.00    +0.000 F 
ENDROOT
BRANCH   4   8
ATOM      8  C   UNL     1       3.714   4.213  19.142  0.00  0.00    +0.000 A 
ATOM      9  C   UNL     1       3.677   2.995  19.729  0.00  0.00    +0.000 A 
ATOM     10  C   UNL     1       2.825   2.780  20.890  0.00  0.00    +0.000 A 
ATOM     11  C   UNL     1       2.061   3.765  21.394  0.00  0.00    +0.000 A 
ATOM     12  C   UNL     1       2.077   5.048  20.787  0.00  0.00    +0.000 A 
ATOM     13  N   UNL     1       1.441   6.159  21.079  0.00  0.00    +0.000 NA
ATOM     14  C   UNL     1       1.894   7.024  20.130  0.00  0.00    +0.000 A 
ATOM     15  N   UNL     1       2.774   6.531  19.260  0.00  0.00    +0.000 NA
ATOM     16  N   UNL     1       2.906   5.240  19.673  0.00  0.00    +0.000 N 
ENDBRANCH   4   8
BRANCH   1  18
ATOM     17  N   UNL     1       7.904   5.343  13.801  0.00  0.00    +0.000 NA
ATOM     18  C   UNL     1       7.217   5.141  14.714  0.00  0.00    +0.000 C 
ENDBRANCH   1  18
TORSDOF 2
ENDMDL
MODEL 5
REMARK VINA RESULT:      -6.9      2.609      6.143
REMARK  Name = 
REMARK  2 active torsions:
REMARK  status: ('A' for Active; 'I' for Inactive)
REMARK    1  A    between atoms: C_2  and  C_3
REMARK    2  A    between atoms: C_6  and  C_7
REMARK                            x       y       z     vdW  Elec       q    Type
REMARK                         _______ _______ _______ _____ _____    ______ ____
ROOT
ATOM      1  C   UNL     1       6.611   4.973  15.573  0.00  0.00    +0.000 A 
ATOM      2  C   UNL     1       7.029   5.273  16.874  0.00  0.00    +0.000 A 
ATOM      3  C   UNL     1       6.198   4.985  17.967  0.00  0.00    +0.000 A 
ATOM      4  C   UNL     1       4.942   4.394  17.769  0.00  0.00    +0.000 A 
ATOM      5  C   UNL     1       4.528   4.099  16.464  0.00  0.00    +0.000 A 
ATOM      6  C   UNL     1       5.360   4.389  15.383  0.00  0.00    +0.000 A 
ATOM      7  F   UNL     1       4.929   4.099  14.147  0.00  0.00    +0.000 F 
ENDROOT
BRANCH   4   8
ATOM      8  C   UNL     1       4.058   4.089  18.906  0.00  0.00    +0.000 A 
ATOM      9  C   UNL     1       4.077   2.857  19.462  0.00  0.00    +0.000 A 
ATOM     10  C   UNL     1       3.230   2.572  20.612  0.00  0.00    +0.000 A 
ATOM     11  C   UNL     1       2.416   3.507  21.136  0.00  0.00    +0.000 A 
ATOM     12  C   UNL     1       2.375   4.804  20.560  0.00  0.00    +0.000 A 
ATOM     13  N   UNL     1       1.684   5.876  20.875  0.00  0.00    +0.000 NA
ATOM     14  C   UNL     1       2.100   6.784  19.951  0.00  0.00    +0.000 A 
ATOM     15  N   UNL     1       3.007   6.356  19.074  0.00  0.00    +0.000 NA
ATOM     16  N   UNL     1       3.199   5.063  19.456  0.00  0.00    +0.000 N 
ENDBRANCH   4   8
BRANCH   1  18
ATOM     17  N   UNL     1       8.161   5.478  13.558  0.00  0.00    +0.000 NA
ATOM     18  C   UNL     1       7.454   5.265  14.453  0.00  0.00    +0.000 C 
ENDBRANCH   1  18
TORSDOF 2
ENDMDL
MODEL 6
REMARK VINA RESULT:      -6.9      4.381      5.436
REMARK  Name = 
REMARK  2 active torsions:
REMARK  status: ('A' for Active; 'I' for Inactive)
REMARK    1  A    between atoms: C_2  and  C_3
REMARK    2  A    between atoms: C_6  and  C_7
REMARK                            x       y       z     vdW  Elec       q    Type
REMARK                         _______ _______ _______ _____ _____    ______ ____
ROOT
ATOM      1  C   UNL     1       1.104   9.360  19.738  0.00  0.00    +0.000 A 
ATOM      2  C   UNL     1       1.372   9.393  18.365  0.00  0.00    +0.000 A 
ATOM      3  C   UNL     1       2.060   8.333  17.755  0.00  0.00    +0.000 A 
ATOM      4  C   UNL     1       2.483   7.230  18.510  0.00  0.00    +0.000 A 
ATOM      5  C   UNL     1       2.214   7.205  19.885  0.00  0.00    +0.000 A 
ATOM      6  C   UNL     1       1.531   8.264  20.484  0.00  0.00    +0.000 A 
ATOM      7  F   UNL     1       1.295   8.208  21.803  0.00  0.00    +0.000 F 
ENDROOT
BRANCH   4   8
ATOM      8  C   UNL     1       3.208   6.112  17.884  0.00  0.00    +0.000 A 
ATOM      9  C   UNL     1       4.395   6.336  17.277  0.00  0.00    +0.000 A 
ATOM     10  C   UNL     1       5.129   5.220  16.696  0.00  0.00    +0.000 A 
ATOM     11  C   UNL     1       4.649   3.964  16.738  0.00  0.00    +0.000 A 
ATOM     12  C   UNL     1       3.399   3.710  17.362  0.00  0.00    +0.000 A 
ATOM     13  N   UNL     1       2.723   2.598  17.538  0.00  0.00    +0.000 NA
ATOM     14  C   UNL     1       1.616   3.022  18.209  0.00  0.00    +0.000 A 
ATOM     15  N   UNL     1       1.552   4.327  18.468  0.00  0.00    +0.000 NA
ATOM     16  N   UNL     1       2.708   4.794  17.921  0.00  0.00    +0.000 N 
ENDBRANCH   4   8
BRANCH   1  18
ATOM     17  N   UNL     1      -0.159  11.296  20.910  0.00  0.00    +0.000 NA
ATOM     18  C   UNL     1       0.403  10.438  20.368  0.00  0.00    +0.000 C 
ENDBRANCH   1  18
TORSDOF 2
ENDMDL
MODEL 7
REMARK VINA RESULT:      -6.8      2.529      6.269
REMARK  Name = 
REMARK  2 active torsions:
REMARK  status: ('A' for Active; 'I' for Inactive)
REMARK    1  A    between atoms: C_2  and  C_3
REMARK    2  A    between atoms: C_6  and  C_7
REMARK                            x       y       z     vdW  Elec       q    Type
REMARK                         _______ _______ _______ _____ _____    ______ ____
ROOT
ATOM      1  C   UNL     1       6.532   5.252  15.471  0.00  0.00    +0.000 A 
ATOM      2  C   UNL     1       6.825   5.850  16.701  0.00  0.00    +0.000 A 
ATOM      3  C   UNL     1       5.943   5.710  17.782  0.00  0.00    +0.000 A 
ATOM      4  C   UNL     1       4.761   4.968  17.645  0.00  0.00    +0.000 A 
ATOM      5  C   UNL     1       4.472   4.374  16.410  0.00  0.00    +0.000 A 
ATOM      6  C   UNL     1       5.354   4.519  15.339  0.00  0.00    +0.000 A 
ATOM      7  F   UNL     1       5.043   3.942  14.170  0.00  0.00    +0.000 F 
ENDROOT
BRANCH   4   8
ATOM      8  C   UNL     1       3.824   4.814  18.770  0.00  0.00    +0.000 A 
ATOM      9  C   UNL     1       2.839   5.722  18.954  0.00  0.00    +0.000 A 
ATOM     10  C   UNL     1       1.889   5.544  20.044  0.00  0.00    +0.000 A 
ATOM     11  C   UNL     1       1.971   4.496  20.884  0.00  0.00    +0.000 A 
ATOM     12  C   UNL     1       3.003   3.537  20.713  0.00  0.00    +0.000 A 
ATOM     13  N   UNL     1       3.297   2.444  21.380  0.00  0.00    +0.000 NA
ATOM     14  C   UNL     1       4.387   1.971  20.716  0.00  0.00    +0.000 A 
ATOM     15  N   UNL     1       4.798   2.693  19.674  0.00  0.00    +0.000 NA
ATOM     16  N   UNL     1       3.907   3.721  19.657  0.00  0.00    +0.000 N 
ENDBRANCH   4   8
BRANCH   1  18
ATOM     17  N   UNL     1       8.180   5.510  13.487  0.00  0.00    +0.000 NA
ATOM     18  C   UNL     1       7.428   5.391  14.363  0.00  0.00    +0.000 C 
ENDBRANCH   1  18
TORSDOF 2
ENDMDL
MODEL 8
REMARK VINA RESULT:      -6.8      2.651      6.377
REMARK  Name = 
REMARK  2 active torsions:
REMARK  status: ('A' for Active; 'I' for Inactive)
REMARK    1  A    between atoms: C_2  and  C_3
REMARK    2  A    between atoms: C_6  and  C_7
REMARK                            x       y       z     vdW  Elec       q    Type
REMARK                         _______ _______ _______ _____ _____    ______ ____
ROOT
ATOM      1  C   UNL     1       6.058   5.268  15.488  0.00  0.00    +0.000 A 
ATOM      2  C   UNL     1       5.526   6.441  16.034  0.00  0.00    +0.000 A 
ATOM      3  C   UNL     1       4.567   6.372  17.055  0.00  0.00    +0.000 A 
ATOM      4  C   UNL     1       4.133   5.131  17.542  0.00  0.00    +0.000 A 
ATOM      5  C   UNL     1       4.668   3.960  16.989  0.00  0.00    +0.000 A 
ATOM      6  C   UNL     1       5.620   4.037  15.973  0.00  0.00    +0.000 A 
ATOM      7  F   UNL     1       6.107   2.896  15.464  0.00  0.00    +0.000 F 
ENDROOT
BRANCH   4   8
ATOM      8  C   UNL     1       3.125   5.044  18.612  0.00  0.00    +0.000 A 
ATOM      9  C   UNL     1       2.985   6.062  19.489  0.00  0.00    +0.000 A 
ATOM     10  C   UNL     1       1.959   5.989  20.520  0.00  0.00    +0.000 A 
ATOM     11  C   UNL     1       1.145   4.923  20.629  0.00  0.00    +0.000 A 
ATOM     12  C   UNL     1       1.283   3.839  19.723  0.00  0.00    +0.000 A 
ATOM     13  N   UNL     1       0.627   2.706  19.613  0.00  0.00    +0.000 NA
ATOM     14  C   UNL     1       1.231   2.111  18.548  0.00  0.00    +0.000 A 
ATOM     15  N   UNL     1       2.223   2.795  17.979  0.00  0.00    +0.000 NA
ATOM     16  N   UNL     1       2.272   3.927  18.734  0.00  0.00    +0.000 N 
ENDBRANCH   4   8
BRANCH   1  18
ATOM     17  N   UNL     1       7.811   5.405  13.584  0.00  0.00    +0.000 NA
ATOM     18  C   UNL     1       7.037   5.329  14.445  0.00  0.00    +0.000 C 
ENDBRANCH   1  18
TORSDOF 2
ENDMDL
MODEL 9
REMARK VINA RESULT:      -6.7      2.572      5.844
REMARK  Name = 
REMARK  2 active torsions:
REMARK  status: ('A' for Active; 'I' for Inactive)
REMARK    1  A    between atoms: C_2  and  C_3
REMARK    2  A    between atoms: C_6  and  C_7
REMARK                            x       y       z     vdW  Elec       q    Type
REMARK                         _______ _______ _______ _____ _____    ______ ____
ROOT
ATOM      1  C   UNL     1       6.686   7.013  17.727  0.00  0.00    +0.000 A 
ATOM      2  C   UNL     1       5.463   7.045  17.048  0.00  0.00    +0.000 A 
ATOM      3  C   UNL     1       4.511   6.038  17.262  0.00  0.00    +0.000 A 
ATOM      4  C   UNL     1       4.770   4.990  18.157  0.00  0.00    +0.000 A 
ATOM      5  C   UNL     1       5.998   4.962  18.831  0.00  0.00    +0.000 A 
ATOM      6  C   UNL     1       6.941   5.967  18.612  0.00  0.00    +0.000 A 
ATOM      7  F   UNL     1       8.107   5.905  19.270  0.00  0.00    +0.000 F 
ENDROOT
BRANCH   4   8
ATOM      8  C   UNL     1       3.782   3.924  18.389  0.00  0.00    +0.000 A 
ATOM      9  C   UNL     1       3.758   2.840  17.581  0.00  0.00    +0.000 A 
ATOM     10  C   UNL     1       2.806   1.770  17.840  0.00  0.00    +0.000 A 
ATOM     11  C   UNL     1       1.936   1.834  18.864  0.00  0.00    +0.000 A 
ATOM     12  C   UNL     1       1.938   2.968  19.718  0.00  0.00    +0.000 A 
ATOM     13  N   UNL     1       1.209   3.270  20.768  0.00  0.00    +0.000 NA
ATOM     14  C   UNL     1       1.704   4.482  21.139  0.00  0.00    +0.000 A 
ATOM     15  N   UNL     1       2.698   4.963  20.393  0.00  0.00    +0.000 NA
ATOM     16  N   UNL     1       2.864   3.988  19.458  0.00  0.00    +0.000 N 
ENDBRANCH   4   8
BRANCH   1  18
ATOM     17  N   UNL     1       8.463   8.866  17.375  0.00  0.00    +0.000 NA
ATOM     18  C   UNL     1       7.663   8.037  17.513  0.00  0.00    +0.000 C 
ENDBRANCH   1  18
TORSDOF 2
ENDMDL
