MODEL 1
REMARK VINA RESULT:      -7.3      0.000      0.000
REMARK  Name = 
REMARK  8 active torsions:
REMARK  status: ('A' for Active; 'I' for Inactive)
REMARK    1  A    between atoms: C_2  and  O_3
REMARK    2  A    between atoms: C_2  and  C_4
REMARK    3  A    between atoms: C_7  and  N_8
REMARK    4  A    between atoms: N_8  and  C_9
REMARK    5  A    between atoms: C_9  and  C_10
REMARK    6  A    between atoms: C_10  and  C_11
REMARK    7  A    between atoms: C_11  and  C_12
REMARK    8  A    between atoms: C_15  and  N_16
REMARK                            x       y       z     vdW  Elec       q    Type
REMARK                         _______ _______ _______ _____ _____    ______ ____
ROOT
ATOM      1  N   UNL     1       2.385   5.441  20.886  0.00  0.00    +0.000 N 
ATOM      2  H   UNL     1       2.640   5.608  21.858  0.00  0.00    +0.000 HD
ENDROOT
BRANCH   1   6
ATOM      3  C   UNL     1       1.553   9.103  18.957  0.00  0.00    +0.000 A 
ATOM      4  C   UNL     1       1.078   8.858  20.248  0.00  0.00    +0.000 A 
ATOM      5  C   UNL     1       1.358   7.629  20.864  0.00  0.00    +0.000 A 
ATOM      6  C   UNL     1       2.085   6.627  20.204  0.00  0.00    +0.000 A 
ATOM      7  C   UNL     1       2.574   6.908  18.923  0.00  0.00    +0.000 A 
ATOM      8  C   UNL     1       2.319   8.136  18.307  0.00  0.00    +0.000 A 
BRANCH   3  10
ATOM      9  O   UNL     1       0.297  11.087  18.537  0.00  0.00    +0.000 OA
ATOM     10  C   UNL     1       1.265  10.402  18.291  0.00  0.00    +0.000 C 
BRANCH  10  11
ATOM     11  O   UNL     1       2.196  10.725  17.364  0.00  0.00    +0.000 OA
ATOM     12  H   UNL     1       3.053  11.018  17.720  0.00  0.00    +0.000 HD
ENDBRANCH  10  11
ENDBRANCH   3  10
ENDBRANCH   1   6
BRANCH   1  13
ATOM     13  C   UNL     1       1.503   4.289  20.711  0.00  0.00    +0.000 C 
BRANCH  13  14
ATOM     14  C   UNL     1       1.659   3.721  19.301  0.00  0.00    +0.000 C 
BRANCH  14  15
ATOM     15  C   UNL     1       2.929   2.873  19.194  0.00  0.00    +0.000 C 
BRANCH  15  16
ATOM     16  C   UNL     1       3.996   3.579  18.395  0.00  0.00    +0.000 A 
ATOM     17  C   UNL     1       3.889   3.669  16.999  0.00  0.00    +0.000 A 
ATOM     18  C   UNL     1       4.893   4.286  16.251  0.00  0.00    +0.000 A 
ATOM     19  C   UNL     1       6.010   4.820  16.903  0.00  0.00    +0.000 A 
ATOM     20  C   UNL     1       6.131   4.735  18.295  0.00  0.00    +0.000 A 
ATOM     21  C   UNL     1       5.124   4.111  19.036  0.00  0.00    +0.000 A 
BRANCH  19  22
ATOM     22  N   UNL     1       7.060   5.482  16.121  0.00  0.00    +0.000 N 
ATOM     23  O   UNL     1       7.468   4.908  15.100  0.00  0.00    +0.000 OA
ATOM     24  O   UNL     1       7.476   6.578  16.523  0.00  0.00    +0.000 OA
ENDBRANCH  19  22
ENDBRANCH  15  16
ENDBRANCH  14  15
ENDBRANCH  13  14
ENDBRANCH   1  13
TORSDOF 8
ENDMDL
MODEL 2
REMARK VINA RESULT:      -7.2      0.670      1.658
REMARK  Name = 
REMARK  8 active torsions:
REMARK  status: ('A' for Active; 'I' for Inactive)
REMARK    1  A    between atoms: C_2  and  O_3
REMARK    2  A    between atoms: C_2  and  C_4
REMARK    3  A    between atoms: C_7  and  N_8
REMARK    4  A    between atoms: N_8  and  C_9
REMARK    5  A    between atoms: C_9  and  C_10
REMARK    6  A    between atoms: C_10  and  C_11
REMARK    7  A    between atoms: C_11  and  C_12
REMARK    8  A    between atoms: C_15  and  N_16
REMARK                            x       y       z     vdW  Elec       q    Type
REMARK                         _______ _______ _______ _____ _____    ______ ____
ROOT
ATOM      1  N   UNL     1       2.216   5.404  20.799  0.00  0.00    +0.000 N 
ATOM      2  H   UNL     1       2.505   5.452  21.774  0.00  0.00    +0.000 HD
ENDROOT
BRANCH   1   6
ATOM      3  C   UNL     1       1.536   9.154  18.982  0.00  0.00    +0.000 A 
ATOM      4  C   UNL     1       2.169   8.128  18.276  0.00  0.00    +0.000 A 
ATOM      5  C   UNL     1       2.394   6.894  18.904  0.00  0.00    +0.000 A 
ATOM      6  C   UNL     1       2.020   6.672  20.239  0.00  0.00    +0.000 A 
ATOM      7  C   UNL     1       1.361   7.706  20.915  0.00  0.00    +0.000 A 
ATOM      8  C   UNL     1       1.114   8.932  20.293  0.00  0.00    +0.000 A 
BRANCH   3  10
ATOM      9  O   UNL     1       0.377  11.208  18.622  0.00  0.00    +0.000 OA
ATOM     10  C   UNL     1       1.290  10.467  18.329  0.00  0.00    +0.000 C 
BRANCH  10  11
ATOM     11  O   UNL     1       2.191  10.737  17.355  0.00  0.00    +0.000 OA
ATOM     12  H   UNL     1       1.877  11.329  16.650  0.00  0.00    +0.000 HD
ENDBRANCH  10  11
ENDBRANCH   3  10
ENDBRANCH   1   6
BRANCH   1  13
ATOM     13  C   UNL     1       1.224   4.363  20.543  0.00  0.00    +0.000 C 
BRANCH  13  14
ATOM     14  C   UNL     1       1.919   3.019  20.328  0.00  0.00    +0.000 C 
BRANCH  14  15
ATOM     15  C   UNL     1       2.096   2.732  18.835  0.00  0.00    +0.000 C 
BRANCH  15  16
ATOM     16  C   UNL     1       3.374   3.334  18.307  0.00  0.00    +0.000 A 
ATOM     17  C   UNL     1       4.464   3.543  19.165  0.00  0.00    +0.000 A 
ATOM     18  C   UNL     1       5.635   4.136  18.690  0.00  0.00    +0.000 A 
ATOM     19  C   UNL     1       5.718   4.521  17.347  0.00  0.00    +0.000 A 
ATOM     20  C   UNL     1       4.636   4.322  16.480  0.00  0.00    +0.000 A 
ATOM     21  C   UNL     1       3.467   3.732  16.965  0.00  0.00    +0.000 A 
BRANCH  19  22
ATOM     22  N   UNL     1       6.953   5.131  16.841  0.00  0.00    +0.000 N 
ATOM     23  O   UNL     1       6.881   6.281  16.382  0.00  0.00    +0.000 OA
ATOM     24  O   UNL     1       7.995   4.464  16.905  0.00  0.00    +0.000 OA
ENDBRANCH  19  22
ENDBRANCH  15  16
ENDBRANCH  14  15
ENDBRANCH  13  14
ENDBRANCH   1  13
TORSDOF 8
ENDMDL
MODEL 3
REMARK VINA RESULT:      -7.1      1.454      2.389
REMARK  Name = 
REMARK  8 active torsions:
REMARK  status: ('A' for Active; 'I' for Inactive)
REMARK    1  A    between atoms: C_2  and  O_3
REMARK    2  A    between atoms: C_2  and  C_4
REMARK    3  A    between atoms: C_7  and  N_8
REMARK    4  A    between atoms: N_8  and  C_9
REMARK    5  A    between atoms: C_9  and  C_10
REMARK    6  A    between atoms: C_10  and  C_11
REMARK    7  A    between atoms: C_11  and  C_12
REMARK    8  A    between atoms: C_15  and  N_16
REMARK                            x       y       z     vdW  Elec       q    Type
REMARK                         _______ _______ _______ _____ _____    ______ ____
ROOT
ATOM      1  N   UNL     1       0.952   3.631  20.736  0.00  0.00    +0.000 N 
ATOM      2  H   UNL     1      -0.050   3.509  20.607  0.00  0.00    +0.000 HD
ENDROOT
BRANCH   1   6
ATOM      3  C   UNL     1       2.300   6.980  18.546  0.00  0.00    +0.000 A 
ATOM      4  C   UNL     1       1.967   5.792  17.891  0.00  0.00    +0.000 A 
ATOM      5  C   UNL     1       1.532   4.689  18.641  0.00  0.00    +0.000 A 
ATOM      6  C   UNL     1       1.446   4.742  20.041  0.00  0.00    +0.000 A 
ATOM      7  C   UNL     1       1.757   5.953  20.671  0.00  0.00    +0.000 A 
ATOM      8  C   UNL     1       2.172   7.064  19.933  0.00  0.00    +0.000 A 
BRANCH   3  10
ATOM      9  O   UNL     1       2.046   9.083  17.450  0.00  0.00    +0.000 OA
ATOM     10  C   UNL     1       2.762   8.158  17.765  0.00  0.00    +0.000 C 
BRANCH  10  11
ATOM     11  O   UNL     1       4.070   8.074  17.427  0.00  0.00    +0.000 OA
ATOM     12  H   UNL     1       4.693   8.432  18.083  0.00  0.00    +0.000 HD
ENDBRANCH  10  11
ENDBRANCH   3  10
ENDBRANCH   1   6
BRANCH   1  13
ATOM     13  C   UNL     1       1.698   2.376  20.674  0.00  0.00    +0.000 C 
BRANCH  13  14
ATOM     14  C   UNL     1       3.190   2.645  20.862  0.00  0.00    +0.000 C 
BRANCH  14  15
ATOM     15  C   UNL     1       4.005   1.995  19.741  0.00  0.00    +0.000 C 
BRANCH  15  16
ATOM     16  C   UNL     1       4.579   3.030  18.807  0.00  0.00    +0.000 A 
ATOM     17  C   UNL     1       5.267   4.140  19.319  0.00  0.00    +0.000 A 
ATOM     18  C   UNL     1       5.766   5.122  18.461  0.00  0.00    +0.000 A 
ATOM     19  C   UNL     1       5.580   4.991  17.080  0.00  0.00    +0.000 A 
ATOM     20  C   UNL     1       4.892   3.890  16.555  0.00  0.00    +0.000 A 
ATOM     21  C   UNL     1       4.391   2.915  17.422  0.00  0.00    +0.000 A 
BRANCH  19  22
ATOM     22  N   UNL     1       6.115   6.013  16.175  0.00  0.00    +0.000 N 
ATOM     23  O   UNL     1       7.329   6.261  16.237  0.00  0.00    +0.000 OA
ATOM     24  O   UNL     1       5.325   6.567  15.397  0.00  0.00    +0.000 OA
ENDBRANCH  19  22
ENDBRANCH  15  16
ENDBRANCH  14  15
ENDBRANCH  13  14
ENDBRANCH   1  13
TORSDOF 8
ENDMDL
MODEL 4
REMARK VINA RESULT:      -7.0      3.778      7.411
REMARK  Name = 
REMARK  8 active torsions:
REMARK  status: ('A' for Active; 'I' for Inactive)
REMARK    1  A    between atoms: C_2  and  O_3
REMARK    2  A    between atoms: C_2  and  C_4
REMARK    3  A    between atoms: C_7  and  N_8
REMARK    4  A    between atoms: N_8  and  C_9
REMARK    5  A    between atoms: C_9  and  C_10
REMARK    6  A    between atoms: C_10  and  C_11
REMARK    7  A    between atoms: C_11  and  C_12
REMARK    8  A    between atoms: C_15  and  N_16
REMARK                            x       y       z     vdW  Elec       q    Type
REMARK                         _______ _______ _______ _____ _____    ______ ____
ROOT
ATOM      1  N   UNL     1       7.585   5.900  15.605  0.00  0.00    +0.000 N 
ATOM      2  H   UNL     1       7.950   6.767  15.218  0.00  0.00    +0.000 HD
ENDROOT
BRANCH   1   6
ATOM      3  C   UNL     1       5.835   3.451  12.643  0.00  0.00    +0.000 A 
ATOM      4  C   UNL     1       5.252   3.559  13.909  0.00  0.00    +0.000 A 
ATOM      5  C   UNL     1       5.858   4.371  14.880  0.00  0.00    +0.000 A 
ATOM      6  C   UNL     1       7.053   5.059  14.619  0.00  0.00    +0.000 A 
ATOM      7  C   UNL     1       7.600   4.957  13.334  0.00  0.00    +0.000 A 
ATOM      8  C   UNL     1       6.995   4.168  12.353  0.00  0.00    +0.000 A 
BRANCH   3  10
ATOM      9  O   UNL     1       4.149   2.853  11.065  0.00  0.00    +0.000 OA
ATOM     10  C   UNL     1       5.203   2.595  11.603  0.00  0.00    +0.000 C 
BRANCH  10  11
ATOM     11  O   UNL     1       5.930   1.485  11.337  0.00  0.00    +0.000 OA
ATOM     12  H   UNL     1       5.458   0.785  10.853  0.00  0.00    +0.000 HD
ENDBRANCH  10  11
ENDBRANCH   3  10
ENDBRANCH   1   6
BRANCH   1  13
ATOM     13  C   UNL     1       6.831   6.093  16.842  0.00  0.00    +0.000 C 
BRANCH  13  14
ATOM     14  C   UNL     1       7.479   5.302  17.978  0.00  0.00    +0.000 C 
BRANCH  14  15
ATOM     15  C   UNL     1       6.739   5.541  19.296  0.00  0.00    +0.000 C 
BRANCH  15  16
ATOM     16  C   UNL     1       5.328   5.012  19.238  0.00  0.00    +0.000 A 
ATOM     17  C   UNL     1       5.094   3.647  19.014  0.00  0.00    +0.000 A 
ATOM     18  C   UNL     1       3.789   3.158  18.920  0.00  0.00    +0.000 A 
ATOM     19  C   UNL     1       2.711   4.040  19.054  0.00  0.00    +0.000 A 
ATOM     20  C   UNL     1       2.930   5.405  19.274  0.00  0.00    +0.000 A 
ATOM     21  C   UNL     1       4.238   5.886  19.362  0.00  0.00    +0.000 A 
BRANCH  19  22
ATOM     22  N   UNL     1       1.338   3.528  18.970  0.00  0.00    +0.000 N 
ATOM     23  O   UNL     1       0.958   3.074  17.881  0.00  0.00    +0.000 OA
ATOM     24  O   UNL     1       0.640   3.575  19.993  0.00  0.00    +0.000 OA
ENDBRANCH  19  22
ENDBRANCH  15  16
ENDBRANCH  14  15
ENDBRANCH  13  14
ENDBRANCH   1  13
TORSDOF 8
ENDMDL
MODEL 5
REMARK VINA RESULT:      -7.0      1.592      5.831
REMARK  Name = 
REMARK  8 active torsions:
REMARK  status: ('A' for Active; 'I' for Inactive)
REMARK    1  A    between atoms: C_2  and  O_3
REMARK    2  A    between atoms: C_2  and  C_4
REMARK    3  A    between atoms: C_7  and  N_8
REMARK    4  A    between atoms: N_8  and  C_9
REMARK    5  A    between atoms: C_9  and  C_10
REMARK    6  A    between atoms: C_10  and  C_11
REMARK    7  A    between atoms: C_11  and  C_12
REMARK    8  A    between atoms: C_15  and  N_16
REMARK                            x       y       z     vdW  Elec       q    Type
REMARK                         _______ _______ _______ _____ _____    ______ ____
ROOT
ATOM      1  N   UNL     1       2.956   2.559  18.547  0.00  0.00    +0.000 N 
ATOM      2  H   UNL     1       3.195   1.601  18.299  0.00  0.00    +0.000 HD
ENDROOT
BRANCH   1   6
ATOM      3  C   UNL     1       6.057   5.195  17.424  0.00  0.00    +0.000 A 
ATOM      4  C   UNL     1       5.997   4.684  18.723  0.00  0.00    +0.000 A 
ATOM      5  C   UNL     1       4.950   3.818  19.076  0.00  0.00    +0.000 A 
ATOM      6  C   UNL     1       3.945   3.472  18.160  0.00  0.00    +0.000 A 
ATOM      7  C   UNL     1       4.045   3.974  16.857  0.00  0.00    +0.000 A 
ATOM      8  C   UNL     1       5.093   4.821  16.489  0.00  0.00    +0.000 A 
BRANCH   3  10
ATOM      9  O   UNL     1       7.583   6.223  15.905  0.00  0.00    +0.000 OA
ATOM     10  C   UNL     1       7.161   6.113  17.036  0.00  0.00    +0.000 C 
BRANCH  10  11
ATOM     11  O   UNL     1       7.656   6.802  18.091  0.00  0.00    +0.000 OA
ATOM     12  H   UNL     1       7.431   7.748  18.112  0.00  0.00    +0.000 HD
ENDBRANCH  10  11
ENDBRANCH   3  10
ENDBRANCH   1   6
BRANCH   1  13
ATOM     13  C   UNL     1       2.372   2.682  19.881  0.00  0.00    +0.000 C 
BRANCH  13  14
ATOM     14  C   UNL     1       1.441   3.892  19.936  0.00  0.00    +0.000 C 
BRANCH  14  15
ATOM     15  C   UNL     1       2.010   4.973  20.859  0.00  0.00    +0.000 C 
BRANCH  15  16
ATOM     16  C   UNL     1       1.931   6.338  20.222  0.00  0.00    +0.000 A 
ATOM     17  C   UNL     1       1.324   7.402  20.906  0.00  0.00    +0.000 A 
ATOM     18  C   UNL     1       1.213   8.657  20.306  0.00  0.00    +0.000 A 
ATOM     19  C   UNL     1       1.716   8.852  19.014  0.00  0.00    +0.000 A 
ATOM     20  C   UNL     1       2.321   7.798  18.319  0.00  0.00    +0.000 A 
ATOM     21  C   UNL     1       2.423   6.544  18.925  0.00  0.00    +0.000 A 
BRANCH  19  22
ATOM     22  N   UNL     1       1.614  10.174  18.386  0.00  0.00    +0.000 N 
ATOM     23  O   UNL     1       0.719  10.934  18.784  0.00  0.00    +0.000 OA
ATOM     24  O   UNL     1       2.431  10.456  17.497  0.00  0.00    +0.000 OA
ENDBRANCH  19  22
ENDBRANCH  15  16
ENDBRANCH  14  15
ENDBRANCH  13  14
ENDBRANCH   1  13
TORSDOF 8
ENDMDL
MODEL 6
REMARK VINA RESULT:      -7.0      1.659      5.994
REMARK  Name = 
REMARK  8 active torsions:
REMARK  status: ('A' for Active; 'I' for Inactive)
REMARK    1  A    between atoms: C_2  and  O_3
REMARK    2  A    between atoms: C_2  and  C_4
REMARK    3  A    between atoms: C_7  and  N_8
REMARK    4  A    between atoms: N_8  and  C_9
REMARK    5  A    between atoms: C_9  and  C_10
REMARK    6  A    between atoms: C_10  and  C_11
REMARK    7  A    between atoms: C_11  and  C_12
REMARK    8  A    between atoms: C_15  and  N_16
REMARK                            x       y       z     vdW  Elec       q    Type
REMARK                         _______ _______ _______ _____ _____    ______ ____
ROOT
ATOM      1  N   UNL     1       2.630   2.650  19.445  0.00  0.00    +0.000 N 
ATOM      2  H   UNL     1       2.895   2.534  20.421  0.00  0.00    +0.000 HD
ENDROOT
BRANCH   1   6
ATOM      3  C   UNL     1       5.641   4.408  17.063  0.00  0.00    +0.000 A 
ATOM      4  C   UNL     1       4.446   3.968  16.486  0.00  0.00    +0.000 A 
ATOM      5  C   UNL     1       3.465   3.377  17.297  0.00  0.00    +0.000 A 
ATOM      6  C   UNL     1       3.665   3.193  18.674  0.00  0.00    +0.000 A 
ATOM      7  C   UNL     1       4.857   3.669  19.232  0.00  0.00    +0.000 A 
ATOM      8  C   UNL     1       5.833   4.277  18.438  0.00  0.00    +0.000 A 
BRANCH   3  10
ATOM      9  O   UNL     1       7.836   4.648  16.161  0.00  0.00    +0.000 OA
ATOM     10  C   UNL     1       6.690   5.037  16.217  0.00  0.00    +0.000 C 
BRANCH  10  11
ATOM     11  O   UNL     1       6.226   6.106  15.529  0.00  0.00    +0.000 OA
ATOM     12  H   UNL     1       5.982   5.931  14.603  0.00  0.00    +0.000 HD
ENDBRANCH  10  11
ENDBRANCH   3  10
ENDBRANCH   1   6
BRANCH   1  13
ATOM     13  C   UNL     1       1.277   3.175  19.274  0.00  0.00    +0.000 C 
BRANCH  13  14
ATOM     14  C   UNL     1       0.919   4.090  20.445  0.00  0.00    +0.000 C 
BRANCH  14  15
ATOM     15  C   UNL     1       2.108   4.975  20.825  0.00  0.00    +0.000 C 
BRANCH  15  16
ATOM     16  C   UNL     1       1.992   6.347  20.209  0.00  0.00    +0.000 A 
ATOM     17  C   UNL     1       1.347   7.381  20.904  0.00  0.00    +0.000 A 
ATOM     18  C   UNL     1       1.201   8.642  20.323  0.00  0.00    +0.000 A 
ATOM     19  C   UNL     1       1.708   8.872  19.038  0.00  0.00    +0.000 A 
ATOM     20  C   UNL     1       2.351   7.848  18.332  0.00  0.00    +0.000 A 
ATOM     21  C   UNL     1       2.488   6.588  18.919  0.00  0.00    +0.000 A 
BRANCH  19  22
ATOM     22  N   UNL     1       1.570  10.200  18.430  0.00  0.00    +0.000 N 
ATOM     23  O   UNL     1       0.702  10.957  18.888  0.00  0.00    +0.000 OA
ATOM     24  O   UNL     1       2.332  10.489  17.496  0.00  0.00    +0.000 OA
ENDBRANCH  19  22
ENDBRANCH  15  16
ENDBRANCH  14  15
ENDBRANCH  13  14
ENDBRANCH   1  13
TORSDOF 8
ENDMDL
MODEL 7
REMARK VINA RESULT:      -6.9      1.656      6.083
REMARK  Name = 
REMARK  8 active torsions:
REMARK  status: ('A' for Active; 'I' for Inactive)
REMARK    1  A    between atoms: C_2  and  O_3
REMARK    2  A    between atoms: C_2  and  C_4
REMARK    3  A    between atoms: C_7  and  N_8
REMARK    4  A    between atoms: N_8  and  C_9
REMARK    5  A    between atoms: C_9  and  C_10
REMARK    6  A    between atoms: C_10  and  C_11
REMARK    7  A    between atoms: C_11  and  C_12
REMARK    8  A    between atoms: C_15  and  N_16
REMARK                            x       y       z     vdW  Elec       q    Type
REMARK                         _______ _______ _______ _____ _____    ______ ____
ROOT
ATOM      1  N   UNL     1       2.274   2.714  18.879  0.00  0.00    +0.000 N 
ATOM      2  H   UNL     1       2.396   2.134  19.707  0.00  0.00    +0.000 HD
ENDROOT
BRANCH   1   6
ATOM      3  C   UNL     1       5.859   4.327  17.339  0.00  0.00    +0.000 A 
ATOM      4  C   UNL     1       4.771   4.087  16.497  0.00  0.00    +0.000 A 
ATOM      5  C   UNL     1       3.594   3.540  17.030  0.00  0.00    +0.000 A 
ATOM      6  C   UNL     1       3.491   3.204  18.389  0.00  0.00    +0.000 A 
ATOM      7  C   UNL     1       4.585   3.482  19.217  0.00  0.00    +0.000 A 
ATOM      8  C   UNL     1       5.755   4.046  18.701  0.00  0.00    +0.000 A 
BRANCH   3  10
ATOM      9  O   UNL     1       7.153   5.910  16.110  0.00  0.00    +0.000 OA
ATOM     10  C   UNL     1       7.114   4.908  16.789  0.00  0.00    +0.000 C 
BRANCH  10  11
ATOM     11  O   UNL     1       8.207   4.180  17.117  0.00  0.00    +0.000 OA
ATOM     12  H   UNL     1       8.763   4.558  17.820  0.00  0.00    +0.000 HD
ENDBRANCH  10  11
ENDBRANCH   3  10
ENDBRANCH   1   6
BRANCH   1  13
ATOM     13  C   UNL     1       1.139   3.628  18.978  0.00  0.00    +0.000 C 
BRANCH  13  14
ATOM     14  C   UNL     1       0.981   4.113  20.419  0.00  0.00    +0.000 C 
BRANCH  14  15
ATOM     15  C   UNL     1       2.148   5.019  20.817  0.00  0.00    +0.000 C 
BRANCH  15  16
ATOM     16  C   UNL     1       2.013   6.391  20.205  0.00  0.00    +0.000 A 
ATOM     17  C   UNL     1       1.297   7.395  20.873  0.00  0.00    +0.000 A 
ATOM     18  C   UNL     1       1.135   8.654  20.293  0.00  0.00    +0.000 A 
ATOM     19  C   UNL     1       1.698   8.914  19.038  0.00  0.00    +0.000 A 
ATOM     20  C   UNL     1       2.413   7.920  18.359  0.00  0.00    +0.000 A 
ATOM     21  C   UNL     1       2.565   6.661  18.944  0.00  0.00    +0.000 A 
BRANCH  19  22
ATOM     22  N   UNL     1       1.542  10.241  18.433  0.00  0.00    +0.000 N 
ATOM     23  O   UNL     1       2.338  10.564  17.539  0.00  0.00    +0.000 OA
ATOM     24  O   UNL     1       0.622  10.961  18.847  0.00  0.00    +0.000 OA
ENDBRANCH  19  22
ENDBRANCH  15  16
ENDBRANCH  14  15
ENDBRANCH  13  14
ENDBRANCH   1  13
TORSDOF 8
ENDMDL
MODEL 8
REMARK VINA RESULT:      -6.9      4.035      7.400
REMARK  Name = 
REMARK  8 active torsions:
REMARK  status: ('A' for Active; 'I' for Inactive)
REMARK    1  A    between atoms: C_2  and  O_3
REMARK    2  A    between atoms: C_2  and  C_4
REMARK    3  A    between atoms: C_7  and  N_8
REMARK    4  A    between atoms: N_8  and  C_9
REMARK    5  A    between atoms: C_9  and  C_10
REMARK    6  A    between atoms: C_10  and  C_11
REMARK    7  A    between atoms: C_11  and  C_12
REMARK    8  A    between atoms: C_15  and  N_16
REMARK                            x       y       z     vdW  Elec       q    Type
REMARK                         _______ _______ _______ _____ _____    ______ ____
ROOT
ATOM      1  N   UNL     1       7.368   5.652  16.133  0.00  0.00    +0.000 N 
ATOM      2  H   UNL     1       6.922   6.564  16.212  0.00  0.00    +0.000 HD
ENDROOT
BRANCH   1   6
ATOM      3  C   UNL     1       5.785   3.525  12.847  0.00  0.00    +0.000 A 
ATOM      4  C   UNL     1       5.155   3.476  14.094  0.00  0.00    +0.000 A 
ATOM      5  C   UNL     1       5.706   4.182  15.173  0.00  0.00    +0.000 A 
ATOM      6  C   UNL     1       6.893   4.920  15.038  0.00  0.00    +0.000 A 
ATOM      7  C   UNL     1       7.487   4.977  13.772  0.00  0.00    +0.000 A 
ATOM      8  C   UNL     1       6.937   4.294  12.685  0.00  0.00    +0.000 A 
BRANCH   3  10
ATOM      9  O   UNL     1       5.645   1.725  11.288  0.00  0.00    +0.000 OA
ATOM     10  C   UNL     1       5.212   2.782  11.693  0.00  0.00    +0.000 C 
BRANCH  10  11
ATOM     11  O   UNL     1       4.162   3.427  11.133  0.00  0.00    +0.000 OA
ATOM     12  H   UNL     1       3.289   3.184  11.485  0.00  0.00    +0.000 HD
ENDBRANCH  10  11
ENDBRANCH   3  10
ENDBRANCH   1   6
BRANCH   1  13
ATOM     13  C   UNL     1       7.522   4.973  17.417  0.00  0.00    +0.000 C 
BRANCH  13  14
ATOM     14  C   UNL     1       6.797   5.754  18.512  0.00  0.00    +0.000 C 
BRANCH  14  15
ATOM     15  C   UNL     1       5.476   6.321  17.990  0.00  0.00    +0.000 C 
BRANCH  15  16
ATOM     16  C   UNL     1       4.308   5.452  18.386  0.00  0.00    +0.000 A 
ATOM     17  C   UNL     1       4.436   4.536  19.441  0.00  0.00    +0.000 A 
ATOM     18  C   UNL     1       3.372   3.701  19.786  0.00  0.00    +0.000 A 
ATOM     19  C   UNL     1       2.169   3.786  19.075  0.00  0.00    +0.000 A 
ATOM     20  C   UNL     1       2.029   4.693  18.018  0.00  0.00    +0.000 A 
ATOM     21  C   UNL     1       3.101   5.521  17.676  0.00  0.00    +0.000 A 
BRANCH  19  22
ATOM     22  N   UNL     1       1.044   2.920  19.445  0.00  0.00    +0.000 N 
ATOM     23  O   UNL     1       0.421   2.362  18.530  0.00  0.00    +0.000 OA
ATOM     24  O   UNL     1       0.784   2.794  20.650  0.00  0.00    +0.000 OA
ENDBRANCH  19  22
ENDBRANCH  15  16
ENDBRANCH  14  15
ENDBRANCH  13  14
ENDBRANCH   1  13
TORSDOF 8
ENDMDL
MODEL 9
REMARK VINA RESULT:      -6.9      3.907      7.514
REMARK  Name = 
REMARK  8 active torsions:
REMARK  status: ('A' for Active; 'I' for Inactive)
REMARK    1  A    between atoms: C_2  and  O_3
REMARK    2  A    between atoms: C_2  and  C_4
REMARK    3  A    between atoms: C_7  and  N_8
REMARK    4  A    between atoms: N_8  and  C_9
REMARK    5  A    between atoms: C_9  and  C_10
REMARK    6  A    between atoms: C_10  and  C_11
REMARK    7  A    between atoms: C_11  and  C_12
REMARK    8  A    between atoms: C_15  and  N_16
REMARK                            x       y       z     vdW  Elec       q    Type
REMARK                         _______ _______ _______ _____ _____    ______ ____
ROOT
ATOM      1  N   UNL     1       7.481   5.894  15.636  0.00  0.00    +0.000 N 
ATOM      2  H   UNL     1       7.309   6.875  15.428  0.00  0.00    +0.000 HD
ENDROOT
BRANCH   1   6
ATOM      3  C   UNL     1       5.888   3.414  12.613  0.00  0.00    +0.000 A 
ATOM      4  C   UNL     1       5.276   3.486  13.867  0.00  0.00    +0.000 A 
ATOM      5  C   UNL     1       5.830   4.308  14.859  0.00  0.00    +0.000 A 
ATOM      6  C   UNL     1       7.003   5.045  14.630  0.00  0.00    +0.000 A 
ATOM      7  C   UNL     1       7.579   4.979  13.356  0.00  0.00    +0.000 A 
ATOM      8  C   UNL     1       7.024   4.179  12.354  0.00  0.00    +0.000 A 
BRANCH   3  10
ATOM      9  O   UNL     1       4.275   2.787  10.971  0.00  0.00    +0.000 OA
ATOM     10  C   UNL     1       5.311   2.547  11.551  0.00  0.00    +0.000 C 
BRANCH  10  11
ATOM     11  O   UNL     1       6.064   1.447  11.317  0.00  0.00    +0.000 OA
ATOM     12  H   UNL     1       6.582   1.128  12.076  0.00  0.00    +0.000 HD
ENDBRANCH  10  11
ENDBRANCH   3  10
ENDBRANCH   1   6
BRANCH   1  13
ATOM     13  C   UNL     1       7.220   5.546  17.030  0.00  0.00    +0.000 C 
BRANCH  13  14
ATOM     14  C   UNL     1       6.436   6.667  17.711  0.00  0.00    +0.000 C 
BRANCH  14  15
ATOM     15  C   UNL     1       4.989   6.696  17.215  0.00  0.00    +0.000 C 
BRANCH  15  16
ATOM     16  C   UNL     1       4.127   5.718  17.974  0.00  0.00    +0.000 A 
ATOM     17  C   UNL     1       3.617   4.580  17.332  0.00  0.00    +0.000 A 
ATOM     18  C   UNL     1       2.786   3.692  18.018  0.00  0.00    +0.000 A 
ATOM     19  C   UNL     1       2.466   3.942  19.357  0.00  0.00    +0.000 A 
ATOM     20  C   UNL     1       2.965   5.076  20.010  0.00  0.00    +0.000 A 
ATOM     21  C   UNL     1       3.791   5.961  19.314  0.00  0.00    +0.000 A 
BRANCH  19  22
ATOM     22  N   UNL     1       1.605   3.004  20.086  0.00  0.00    +0.000 N 
ATOM     23  O   UNL     1       0.477   2.777  19.624  0.00  0.00    +0.000 OA
ATOM     24  O   UNL     1       2.057   2.489  21.119  0.00  0.00    +0.000 OA
ENDBRANCH  19  22
ENDBRANCH  15  16
ENDBRANCH  14  15
ENDBRANCH  13  14
ENDBRANCH   1  13
TORSDOF 8
ENDMDL
