MODEL 1
REMARK VINA RESULT:      -9.2      0.000      0.000
REMARK  Name = 
REMARK  5 active torsions:
REMARK  status: ('A' for Active; 'I' for Inactive)
REMARK    1  A    between atoms: C_1  and  O_2
REMARK    2  A    between atoms: O_2  and  C_3
REMARK    3  A    between atoms: C_6  and  C_7
REMARK    4  A    between atoms: C_12  and  C_13
REMARK    5  A    between atoms: C_15  and  C_16
REMARK                            x       y       z     vdW  Elec       q    Type
REMARK                         _______ _______ _______ _____ _____    ______ ____
ROOT
ATOM      1  C   UNL     1       3.005   4.325  19.759  0.00  0.00    +0.000 A 
ATOM      2  C   UNL     1       1.902   4.501  20.606  0.00  0.00    +0.000 A 
ATOM      3  C   UNL     1       1.346   5.759  20.818  0.00  0.00    +0.000 A 
ATOM      4  C   UNL     1       1.930   6.913  20.303  0.00  0.00    +0.000 A 
ATOM      5  C   UNL     1       3.105   6.715  19.540  0.00  0.00    +0.000 A 
ATOM      6  C   UNL     1       3.664   5.439  19.223  0.00  0.00    +0.000 A 
ENDROOT
BRANCH   6   7
ATOM      7  C   UNL     1       4.873   5.403  18.250  0.00  0.00    +0.000 C 
ATOM      8  C   UNL     1       6.215   5.437  19.051  0.00  0.00    +0.000 C 
ATOM      9  C   UNL     1       7.434   5.567  18.120  0.00  0.00    +0.000 C 
ATOM     10  C   UNL     1       7.492   4.348  17.193  0.00  0.00    +0.000 C 
ATOM     11  C   UNL     1       6.209   4.274  16.359  0.00  0.00    +0.000 C 
ATOM     12  C   UNL     1       6.097   5.544  15.503  0.00  0.00    +0.000 C 
ATOM     13  C   UNL     1       6.027   6.776  16.415  0.00  0.00    +0.000 C 
ATOM     14  C   UNL     1       7.294   6.847  17.282  0.00  0.00    +0.000 C 
ATOM     15  C   UNL     1       4.795   6.663  17.329  0.00  0.00    +0.000 C 
ATOM     16  C   UNL     1       4.980   4.175  17.291  0.00  0.00    +0.000 C 
ENDBRANCH   6   7
BRANCH   4  17
ATOM     17  C   UNL     1       1.314   8.266  20.476  0.00  0.00    +0.000 A 
ATOM     18  C   UNL     1       0.886   8.649  21.774  0.00  0.00    +0.000 A 
ATOM     19  C   UNL     1       0.319   9.898  22.045  0.00  0.00    +0.000 A 
ATOM     20  C   UNL     1       0.179  10.826  21.027  0.00  0.00    +0.000 A 
ATOM     21  C   UNL     1       0.595  10.496  19.742  0.00  0.00    +0.000 A 
ATOM     22  C   UNL     1       1.142   9.227  19.444  0.00  0.00    +0.000 A 
ATOM     23  C   UNL     1       1.540   9.010  18.006  0.00  0.00    +0.000 C 
ENDBRANCH   4  17
BRANCH   1  25
ATOM     24  C   UNL     1       2.388   2.162  19.036  0.00  0.00    +0.000 C 
ATOM     25  O   UNL     1       3.428   3.055  19.454  0.00  0.00    +0.000 OA
ENDBRANCH   1  25
TORSDOF 3
ENDMDL
MODEL 2
REMARK VINA RESULT:      -9.0      1.795      4.218
REMARK  Name = 
REMARK  5 active torsions:
REMARK  status: ('A' for Active; 'I' for Inactive)
REMARK    1  A    between atoms: C_1  and  O_2
REMARK    2  A    between atoms: O_2  and  C_3
REMARK    3  A    between atoms: C_6  and  C_7
REMARK    4  A    between atoms: C_12  and  C_13
REMARK    5  A    between atoms: C_15  and  C_16
REMARK                            x       y       z     vdW  Elec       q    Type
REMARK                         _______ _______ _______ _____ _____    ______ ____
ROOT
ATOM      1  C   UNL     1       3.112   7.014  17.879  0.00  0.00    +0.000 A 
ATOM      2  C   UNL     1       2.937   8.398  17.744  0.00  0.00    +0.000 A 
ATOM      3  C   UNL     1       2.173   9.122  18.654  0.00  0.00    +0.000 A 
ATOM      4  C   UNL     1       1.448   8.496  19.664  0.00  0.00    +0.000 A 
ATOM      5  C   UNL     1       1.558   7.086  19.710  0.00  0.00    +0.000 A 
ATOM      6  C   UNL     1       2.396   6.307  18.855  0.00  0.00    +0.000 A 
ENDROOT
BRANCH   6   7
ATOM      7  C   UNL     1       2.507   4.786  19.144  0.00  0.00    +0.000 C 
ATOM      8  C   UNL     1       2.074   3.962  17.888  0.00  0.00    +0.000 C 
ATOM      9  C   UNL     1       2.014   2.453  18.186  0.00  0.00    +0.000 C 
ATOM     10  C   UNL     1       3.409   1.963  18.589  0.00  0.00    +0.000 C 
ATOM     11  C   UNL     1       3.880   2.719  19.836  0.00  0.00    +0.000 C 
ATOM     12  C   UNL     1       2.903   2.439  20.987  0.00  0.00    +0.000 C 
ATOM     13  C   UNL     1       1.501   2.932  20.605  0.00  0.00    +0.000 C 
ATOM     14  C   UNL     1       1.027   2.205  19.337  0.00  0.00    +0.000 C 
ATOM     15  C   UNL     1       1.551   4.445  20.333  0.00  0.00    +0.000 C 
ATOM     16  C   UNL     1       3.912   4.237  19.550  0.00  0.00    +0.000 C 
ENDBRANCH   6   7
BRANCH   4  17
ATOM     17  C   UNL     1       0.667   9.266  20.683  0.00  0.00    +0.000 A 
ATOM     18  C   UNL     1       0.829   8.926  22.051  0.00  0.00    +0.000 A 
ATOM     19  C   UNL     1       0.163   9.597  23.081  0.00  0.00    +0.000 A 
ATOM     20  C   UNL     1      -0.678  10.656  22.781  0.00  0.00    +0.000 A 
ATOM     21  C   UNL     1      -0.856  11.029  21.454  0.00  0.00    +0.000 A 
ATOM     22  C   UNL     1      -0.214  10.342  20.398  0.00  0.00    +0.000 A 
ATOM     23  C   UNL     1      -0.511  10.855  19.011  0.00  0.00    +0.000 C 
ENDBRANCH   4  17
BRANCH   1  25
ATOM     24  C   UNL     1       5.354   6.796  17.167  0.00  0.00    +0.000 C 
ATOM     25  O   UNL     1       3.994   6.360  17.055  0.00  0.00    +0.000 OA
ENDBRANCH   1  25
TORSDOF 3
ENDMDL
MODEL 3
REMARK VINA RESULT:      -8.9      0.483      1.371
REMARK  Name = 
REMARK  5 active torsions:
REMARK  status: ('A' for Active; 'I' for Inactive)
REMARK    1  A    between atoms: C_1  and  O_2
REMARK    2  A    between atoms: O_2  and  C_3
REMARK    3  A    between atoms: C_6  and  C_7
REMARK    4  A    between atoms: C_12  and  C_13
REMARK    5  A    between atoms: C_15  and  C_16
REMARK                            x       y       z     vdW  Elec       q    Type
REMARK                         _______ _______ _______ _____ _____    ______ ____
ROOT
ATOM      1  C   UNL     1       2.854   4.293  19.668  0.00  0.00    +0.000 A 
ATOM      2  C   UNL     1       1.819   4.499  20.591  0.00  0.00    +0.000 A 
ATOM      3  C   UNL     1       1.311   5.771  20.836  0.00  0.00    +0.000 A 
ATOM      4  C   UNL     1       1.884   6.909  20.275  0.00  0.00    +0.000 A 
ATOM      5  C   UNL     1       2.996   6.680  19.431  0.00  0.00    +0.000 A 
ATOM      6  C   UNL     1       3.500   5.389  19.081  0.00  0.00    +0.000 A 
ENDROOT
BRANCH   6   7
ATOM      7  C   UNL     1       4.635   5.321  18.024  0.00  0.00    +0.000 C 
ATOM      8  C   UNL     1       4.931   6.746  17.453  0.00  0.00    +0.000 C 
ATOM      9  C   UNL     1       5.935   6.698  16.287  0.00  0.00    +0.000 C 
ATOM     10  C   UNL     1       7.266   6.127  16.791  0.00  0.00    +0.000 C 
ATOM     11  C   UNL     1       7.044   4.715  17.343  0.00  0.00    +0.000 C 
ATOM     12  C   UNL     1       6.514   3.817  16.216  0.00  0.00    +0.000 C 
ATOM     13  C   UNL     1       5.176   4.367  15.705  0.00  0.00    +0.000 C 
ATOM     14  C   UNL     1       5.375   5.797  15.176  0.00  0.00    +0.000 C 
ATOM     15  C   UNL     1       4.162   4.392  16.860  0.00  0.00    +0.000 C 
ATOM     16  C   UNL     1       6.013   4.755  18.493  0.00  0.00    +0.000 C 
ENDBRANCH   6   7
BRANCH   4  17
ATOM     17  C   UNL     1       1.315   8.277  20.485  0.00  0.00    +0.000 A 
ATOM     18  C   UNL     1       0.930   8.650  21.799  0.00  0.00    +0.000 A 
ATOM     19  C   UNL     1       0.409   9.912  22.104  0.00  0.00    +0.000 A 
ATOM     20  C   UNL     1       0.274  10.861  21.105  0.00  0.00    +0.000 A 
ATOM     21  C   UNL     1       0.650  10.540  19.806  0.00  0.00    +0.000 A 
ATOM     22  C   UNL     1       1.150   9.261  19.474  0.00  0.00    +0.000 A 
ATOM     23  C   UNL     1       1.508   9.056  18.023  0.00  0.00    +0.000 C 
ENDBRANCH   4  17
BRANCH   1  25
ATOM     24  C   UNL     1       2.131   2.118  19.099  0.00  0.00    +0.000 C 
ATOM     25  O   UNL     1       3.224   3.012  19.341  0.00  0.00    +0.000 OA
ENDBRANCH   1  25
TORSDOF 3
ENDMDL
MODEL 4
REMARK VINA RESULT:      -8.9      1.806      4.119
REMARK  Name = 
REMARK  5 active torsions:
REMARK  status: ('A' for Active; 'I' for Inactive)
REMARK    1  A    between atoms: C_1  and  O_2
REMARK    2  A    between atoms: O_2  and  C_3
REMARK    3  A    between atoms: C_6  and  C_7
REMARK    4  A    between atoms: C_12  and  C_13
REMARK    5  A    between atoms: C_15  and  C_16
REMARK                            x       y       z     vdW  Elec       q    Type
REMARK                         _______ _______ _______ _____ _____    ______ ____
ROOT
ATOM      1  C   UNL     1       3.079   6.953  17.874  0.00  0.00    +0.000 A 
ATOM      2  C   UNL     1       2.961   8.346  17.780  0.00  0.00    +0.000 A 
ATOM      3  C   UNL     1       2.209   9.072  18.700  0.00  0.00    +0.000 A 
ATOM      4  C   UNL     1       1.441   8.443  19.676  0.00  0.00    +0.000 A 
ATOM      5  C   UNL     1       1.496   7.029  19.679  0.00  0.00    +0.000 A 
ATOM      6  C   UNL     1       2.318   6.245  18.813  0.00  0.00    +0.000 A 
ENDROOT
BRANCH   6   7
ATOM      7  C   UNL     1       2.364   4.712  19.055  0.00  0.00    +0.000 C 
ATOM      8  C   UNL     1       1.312   4.302  20.137  0.00  0.00    +0.000 C 
ATOM      9  C   UNL     1       1.437   2.818  20.523  0.00  0.00    +0.000 C 
ATOM     10  C   UNL     1       1.173   1.951  19.287  0.00  0.00    +0.000 C 
ATOM     11  C   UNL     1       2.193   2.290  18.194  0.00  0.00    +0.000 C 
ATOM     12  C   UNL     1       3.605   1.990  18.720  0.00  0.00    +0.000 C 
ATOM     13  C   UNL     1       3.890   2.857  19.953  0.00  0.00    +0.000 C 
ATOM     14  C   UNL     1       2.856   2.551  21.048  0.00  0.00    +0.000 C 
ATOM     15  C   UNL     1       3.793   4.341  19.566  0.00  0.00    +0.000 C 
ATOM     16  C   UNL     1       2.092   3.787  17.826  0.00  0.00    +0.000 C 
ENDBRANCH   6   7
BRANCH   4  17
ATOM     17  C   UNL     1       0.672   9.211  20.705  0.00  0.00    +0.000 A 
ATOM     18  C   UNL     1       0.858   8.875  22.071  0.00  0.00    +0.000 A 
ATOM     19  C   UNL     1       0.204   9.545  23.110  0.00  0.00    +0.000 A 
ATOM     20  C   UNL     1      -0.647  10.598  22.821  0.00  0.00    +0.000 A 
ATOM     21  C   UNL     1      -0.849  10.967  21.496  0.00  0.00    +0.000 A 
ATOM     22  C   UNL     1      -0.220  10.281  20.432  0.00  0.00    +0.000 A 
ATOM     23  C   UNL     1      -0.542  10.789  19.049  0.00  0.00    +0.000 C 
ENDBRANCH   4  17
BRANCH   1  25
ATOM     24  C   UNL     1       5.304   6.753  17.107  0.00  0.00    +0.000 C 
ATOM     25  O   UNL     1       3.950   6.291  17.044  0.00  0.00    +0.000 OA
ENDBRANCH   1  25
TORSDOF 3
ENDMDL
MODEL 5
REMARK VINA RESULT:      -8.9      1.816      4.400
REMARK  Name = 
REMARK  5 active torsions:
REMARK  status: ('A' for Active; 'I' for Inactive)
REMARK    1  A    between atoms: C_1  and  O_2
REMARK    2  A    between atoms: O_2  and  C_3
REMARK    3  A    between atoms: C_6  and  C_7
REMARK    4  A    between atoms: C_12  and  C_13
REMARK    5  A    between atoms: C_15  and  C_16
REMARK                            x       y       z     vdW  Elec       q    Type
REMARK                         _______ _______ _______ _____ _____    ______ ____
ROOT
ATOM      1  C   UNL     1       3.886   6.613  17.609  0.00  0.00    +0.000 A 
ATOM      2  C   UNL     1       3.906   7.971  17.263  0.00  0.00    +0.000 A 
ATOM      3  C   UNL     1       2.949   8.856  17.751  0.00  0.00    +0.000 A 
ATOM      4  C   UNL     1       1.861   8.418  18.500  0.00  0.00    +0.000 A 
ATOM      5  C   UNL     1       1.809   7.025  18.744  0.00  0.00    +0.000 A 
ATOM      6  C   UNL     1       2.810   6.090  18.339  0.00  0.00    +0.000 A 
ENDROOT
BRANCH   6   7
ATOM      7  C   UNL     1       2.663   4.622  18.821  0.00  0.00    +0.000 C 
ATOM      8  C   UNL     1       2.331   3.685  17.613  0.00  0.00    +0.000 C 
ATOM      9  C   UNL     1       2.017   2.250  18.072  0.00  0.00    +0.000 C 
ATOM     10  C   UNL     1       3.248   1.664  18.772  0.00  0.00    +0.000 C 
ATOM     11  C   UNL     1       3.610   2.528  19.985  0.00  0.00    +0.000 C 
ATOM     12  C   UNL     1       2.430   2.525  20.969  0.00  0.00    +0.000 C 
ATOM     13  C   UNL     1       1.190   3.118  20.287  0.00  0.00    +0.000 C 
ATOM     14  C   UNL     1       0.832   2.281  19.049  0.00  0.00    +0.000 C 
ATOM     15  C   UNL     1       1.491   4.562  19.852  0.00  0.00    +0.000 C 
ATOM     16  C   UNL     1       3.896   3.978  19.532  0.00  0.00    +0.000 C 
ENDBRANCH   6   7
BRANCH   4  17
ATOM     17  C   UNL     1       0.856   9.364  19.078  0.00  0.00    +0.000 A 
ATOM     18  C   UNL     1       0.075  10.142  18.185  0.00  0.00    +0.000 A 
ATOM     19  C   UNL     1      -0.906  11.038  18.622  0.00  0.00    +0.000 A 
ATOM     20  C   UNL     1      -1.161  11.172  19.977  0.00  0.00    +0.000 A 
ATOM     21  C   UNL     1      -0.425  10.420  20.886  0.00  0.00    +0.000 A 
ATOM     22  C   UNL     1       0.590   9.533  20.463  0.00  0.00    +0.000 A 
ATOM     23  C   UNL     1       1.308   8.792  21.563  0.00  0.00    +0.000 C 
ENDBRANCH   4  17
BRANCH   1  25
ATOM     24  C   UNL     1       5.230   5.824  15.833  0.00  0.00    +0.000 C 
ATOM     25  O   UNL     1       4.930   5.804  17.234  0.00  0.00    +0.000 OA
ENDBRANCH   1  25
TORSDOF 3
ENDMDL
MODEL 6
REMARK VINA RESULT:      -8.6      1.829      4.305
REMARK  Name = 
REMARK  5 active torsions:
REMARK  status: ('A' for Active; 'I' for Inactive)
REMARK    1  A    between atoms: C_1  and  O_2
REMARK    2  A    between atoms: O_2  and  C_3
REMARK    3  A    between atoms: C_6  and  C_7
REMARK    4  A    between atoms: C_12  and  C_13
REMARK    5  A    between atoms: C_15  and  C_16
REMARK                            x       y       z     vdW  Elec       q    Type
REMARK                         _______ _______ _______ _____ _____    ______ ____
ROOT
ATOM      1  C   UNL     1       3.891   6.505  17.492  0.00  0.00    +0.000 A 
ATOM      2  C   UNL     1       3.954   7.873  17.195  0.00  0.00    +0.000 A 
ATOM      3  C   UNL     1       3.039   8.773  17.732  0.00  0.00    +0.000 A 
ATOM      4  C   UNL     1       1.948   8.347  18.484  0.00  0.00    +0.000 A 
ATOM      5  C   UNL     1       1.850   6.949  18.678  0.00  0.00    +0.000 A 
ATOM      6  C   UNL     1       2.810   5.994  18.222  0.00  0.00    +0.000 A 
ENDROOT
BRANCH   6   7
ATOM      7  C   UNL     1       2.618   4.515  18.653  0.00  0.00    +0.000 C 
ATOM      8  C   UNL     1       1.384   4.383  19.605  0.00  0.00    +0.000 C 
ATOM      9  C   UNL     1       1.257   2.963  20.184  0.00  0.00    +0.000 C 
ATOM     10  C   UNL     1       1.050   1.968  19.037  0.00  0.00    +0.000 C 
ATOM     11  C   UNL     1       2.244   2.032  18.078  0.00  0.00    +0.000 C 
ATOM     12  C   UNL     1       3.519   1.649  18.844  0.00  0.00    +0.000 C 
ATOM     13  C   UNL     1       3.749   2.642  19.991  0.00  0.00    +0.000 C 
ATOM     14  C   UNL     1       2.544   2.612  20.946  0.00  0.00    +0.000 C 
ATOM     15  C   UNL     1       3.903   4.058  19.415  0.00  0.00    +0.000 C 
ATOM     16  C   UNL     1       2.393   3.465  17.519  0.00  0.00    +0.000 C 
ENDBRANCH   6   7
BRANCH   4  17
ATOM     17  C   UNL     1       0.987   9.306  19.114  0.00  0.00    +0.000 A 
ATOM     18  C   UNL     1       0.269  10.190  18.268  0.00  0.00    +0.000 A 
ATOM     19  C   UNL     1      -0.668  11.108  18.755  0.00  0.00    +0.000 A 
ATOM     20  C   UNL     1      -0.940  11.160  20.111  0.00  0.00    +0.000 A 
ATOM     21  C   UNL     1      -0.266  10.303  20.975  0.00  0.00    +0.000 A 
ATOM     22  C   UNL     1       0.705   9.391  20.504  0.00  0.00    +0.000 A 
ATOM     23  C   UNL     1       1.359   8.532  21.558  0.00  0.00    +0.000 C 
ENDBRANCH   4  17
BRANCH   1  25
ATOM     24  C   UNL     1       5.372   5.934  15.742  0.00  0.00    +0.000 C 
ATOM     25  O   UNL     1       4.899   5.674  17.069  0.00  0.00    +0.000 OA
ENDBRANCH   1  25
TORSDOF 3
ENDMDL
MODEL 7
REMARK VINA RESULT:      -8.6      0.595      1.672
REMARK  Name = 
REMARK  5 active torsions:
REMARK  status: ('A' for Active; 'I' for Inactive)
REMARK    1  A    between atoms: C_1  and  O_2
REMARK    2  A    between atoms: O_2  and  C_3
REMARK    3  A    between atoms: C_6  and  C_7
REMARK    4  A    between atoms: C_12  and  C_13
REMARK    5  A    between atoms: C_15  and  C_16
REMARK                            x       y       z     vdW  Elec       q    Type
REMARK                         _______ _______ _______ _____ _____    ______ ____
ROOT
ATOM      1  C   UNL     1       2.845   4.436  19.600  0.00  0.00    +0.000 A 
ATOM      2  C   UNL     1       1.825   4.575  20.551  0.00  0.00    +0.000 A 
ATOM      3  C   UNL     1       1.289   5.822  20.860  0.00  0.00    +0.000 A 
ATOM      4  C   UNL     1       1.820   6.997  20.337  0.00  0.00    +0.000 A 
ATOM      5  C   UNL     1       2.920   6.833  19.462  0.00  0.00    +0.000 A 
ATOM      6  C   UNL     1       3.449   5.573  19.047  0.00  0.00    +0.000 A 
ENDROOT
BRANCH   6   7
ATOM      7  C   UNL     1       4.563   5.579  17.965  0.00  0.00    +0.000 C 
ATOM      8  C   UNL     1       4.327   4.425  16.937  0.00  0.00    +0.000 C 
ATOM      9  C   UNL     1       5.496   4.296  15.944  0.00  0.00    +0.000 C 
ATOM     10  C   UNL     1       5.622   5.596  15.142  0.00  0.00    +0.000 C 
ATOM     11  C   UNL     1       5.882   6.766  16.097  0.00  0.00    +0.000 C 
ATOM     12  C   UNL     1       7.197   6.515  16.849  0.00  0.00    +0.000 C 
ATOM     13  C   UNL     1       7.085   5.222  17.666  0.00  0.00    +0.000 C 
ATOM     14  C   UNL     1       6.794   4.041  16.725  0.00  0.00    +0.000 C 
ATOM     15  C   UNL     1       5.936   5.357  18.677  0.00  0.00    +0.000 C 
ATOM     16  C   UNL     1       4.724   6.880  17.115  0.00  0.00    +0.000 C 
ENDBRANCH   6   7
BRANCH   4  17
ATOM     17  C   UNL     1       1.220   8.339  20.617  0.00  0.00    +0.000 A 
ATOM     18  C   UNL     1       0.855   8.646  21.953  0.00  0.00    +0.000 A 
ATOM     19  C   UNL     1       0.308   9.879  22.323  0.00  0.00    +0.000 A 
ATOM     20  C   UNL     1       0.127  10.866  21.368  0.00  0.00    +0.000 A 
ATOM     21  C   UNL     1       0.482  10.610  20.048  0.00  0.00    +0.000 A 
ATOM     22  C   UNL     1       1.007   9.359  19.652  0.00  0.00    +0.000 A 
ATOM     23  C   UNL     1       1.338   9.226  18.186  0.00  0.00    +0.000 C 
ENDBRANCH   4  17
BRANCH   1  25
ATOM     24  C   UNL     1       4.068   2.493  20.157  0.00  0.00    +0.000 C 
ATOM     25  O   UNL     1       3.241   3.180  19.210  0.00  0.00    +0.000 OA
ENDBRANCH   1  25
TORSDOF 3
ENDMDL
MODEL 8
REMARK VINA RESULT:      -8.6      1.828      4.034
REMARK  Name = 
REMARK  5 active torsions:
REMARK  status: ('A' for Active; 'I' for Inactive)
REMARK    1  A    between atoms: C_1  and  O_2
REMARK    2  A    between atoms: O_2  and  C_3
REMARK    3  A    between atoms: C_6  and  C_7
REMARK    4  A    between atoms: C_12  and  C_13
REMARK    5  A    between atoms: C_15  and  C_16
REMARK                            x       y       z     vdW  Elec       q    Type
REMARK                         _______ _______ _______ _____ _____    ______ ____
ROOT
ATOM      1  C   UNL     1       3.040   7.028  17.935  0.00  0.00    +0.000 A 
ATOM      2  C   UNL     1       2.881   8.414  17.798  0.00  0.00    +0.000 A 
ATOM      3  C   UNL     1       2.124   9.149  18.705  0.00  0.00    +0.000 A 
ATOM      4  C   UNL     1       1.389   8.532  19.713  0.00  0.00    +0.000 A 
ATOM      5  C   UNL     1       1.482   7.121  19.762  0.00  0.00    +0.000 A 
ATOM      6  C   UNL     1       2.313   6.331  18.909  0.00  0.00    +0.000 A 
ENDROOT
BRANCH   6   7
ATOM      7  C   UNL     1       2.404   4.809  19.201  0.00  0.00    +0.000 C 
ATOM      8  C   UNL     1       3.876   4.411  19.550  0.00  0.00    +0.000 C 
ATOM      9  C   UNL     1       4.040   2.887  19.686  0.00  0.00    +0.000 C 
ATOM     10  C   UNL     1       3.153   2.385  20.830  0.00  0.00    +0.000 C 
ATOM     11  C   UNL     1       1.688   2.724  20.533  0.00  0.00    +0.000 C 
ATOM     12  C   UNL     1       1.268   2.022  19.233  0.00  0.00    +0.000 C 
ATOM     13  C   UNL     1       2.139   2.520  18.073  0.00  0.00    +0.000 C 
ATOM     14  C   UNL     1       3.616   2.215  18.370  0.00  0.00    +0.000 C 
ATOM     15  C   UNL     1       1.958   4.039  17.917  0.00  0.00    +0.000 C 
ATOM     16  C   UNL     1       1.525   4.252  20.365  0.00  0.00    +0.000 C 
ENDBRANCH   6   7
BRANCH   4  17
ATOM     17  C   UNL     1       0.614   9.312  20.729  0.00  0.00    +0.000 A 
ATOM     18  C   UNL     1       0.763   8.968  22.098  0.00  0.00    +0.000 A 
ATOM     19  C   UNL     1       0.102   9.648  23.125  0.00  0.00    +0.000 A 
ATOM     20  C   UNL     1      -0.720  10.720  22.822  0.00  0.00    +0.000 A 
ATOM     21  C   UNL     1      -0.886  11.098  21.495  0.00  0.00    +0.000 A 
ATOM     22  C   UNL     1      -0.249  10.403  20.442  0.00  0.00    +0.000 A 
ATOM     23  C   UNL     1      -0.530  10.922  19.054  0.00  0.00    +0.000 C 
ENDBRANCH   4  17
BRANCH   1  25
ATOM     24  C   UNL     1       5.260   6.858  17.146  0.00  0.00    +0.000 C 
ATOM     25  O   UNL     1       3.916   6.363  17.113  0.00  0.00    +0.000 OA
ENDBRANCH   1  25
TORSDOF 3
ENDMDL
MODEL 9
REMARK VINA RESULT:      -8.6      1.819      4.310
REMARK  Name = 
REMARK  5 active torsions:
REMARK  status: ('A' for Active; 'I' for Inactive)
REMARK    1  A    between atoms: C_1  and  O_2
REMARK    2  A    between atoms: O_2  and  C_3
REMARK    3  A    between atoms: C_6  and  C_7
REMARK    4  A    between atoms: C_12  and  C_13
REMARK    5  A    between atoms: C_15  and  C_16
REMARK                            x       y       z     vdW  Elec       q    Type
REMARK                         _______ _______ _______ _____ _____    ______ ____
ROOT
ATOM      1  C   UNL     1       3.631   6.655  17.690  0.00  0.00    +0.000 A 
ATOM      2  C   UNL     1       3.685   8.010  17.336  0.00  0.00    +0.000 A 
ATOM      3  C   UNL     1       2.792   8.933  17.872  0.00  0.00    +0.000 A 
ATOM      4  C   UNL     1       1.731   8.540  18.683  0.00  0.00    +0.000 A 
ATOM      5  C   UNL     1       1.639   7.151  18.937  0.00  0.00    +0.000 A 
ATOM      6  C   UNL     1       2.578   6.176  18.481  0.00  0.00    +0.000 A 
ENDROOT
BRANCH   6   7
ATOM      7  C   UNL     1       2.401   4.716  18.978  0.00  0.00    +0.000 C 
ATOM      8  C   UNL     1       3.715   4.213  19.661  0.00  0.00    +0.000 C 
ATOM      9  C   UNL     1       3.636   2.719  20.022  0.00  0.00    +0.000 C 
ATOM     10  C   UNL     1       2.495   2.501  21.022  0.00  0.00    +0.000 C 
ATOM     11  C   UNL     1       1.170   2.954  20.398  0.00  0.00    +0.000 C 
ATOM     12  C   UNL     1       0.898   2.113  19.142  0.00  0.00    +0.000 C 
ATOM     13  C   UNL     1       2.026   2.326  18.124  0.00  0.00    +0.000 C 
ATOM     14  C   UNL     1       3.367   1.906  18.746  0.00  0.00    +0.000 C 
ATOM     15  C   UNL     1       2.091   3.814  17.741  0.00  0.00    +0.000 C 
ATOM     16  C   UNL     1       1.257   4.447  20.006  0.00  0.00    +0.000 C 
ENDBRANCH   6   7
BRANCH   4  17
ATOM     17  C   UNL     1       0.797   9.526  19.311  0.00  0.00    +0.000 A 
ATOM     18  C   UNL     1       0.024  10.357  18.459  0.00  0.00    +0.000 A 
ATOM     19  C   UNL     1      -0.893  11.294  18.945  0.00  0.00    +0.000 A 
ATOM     20  C   UNL     1      -1.090  11.420  20.310  0.00  0.00    +0.000 A 
ATOM     21  C   UNL     1      -0.361  10.617  21.181  0.00  0.00    +0.000 A 
ATOM     22  C   UNL     1       0.592   9.687  20.708  0.00  0.00    +0.000 A 
ATOM     23  C   UNL     1       1.311   8.893  21.769  0.00  0.00    +0.000 C 
ENDBRANCH   4  17
BRANCH   1  25
ATOM     24  C   UNL     1       5.194   6.145  15.994  0.00  0.00    +0.000 C 
ATOM     25  O   UNL     1       4.620   5.804  17.261  0.00  0.00    +0.000 OA
ENDBRANCH   1  25
TORSDOF 3
ENDMDL
