MODEL 1
REMARK VINA RESULT:      -7.0      0.000      0.000
REMARK  Name = 
REMARK  4 active torsions:
REMARK  status: ('A' for Active; 'I' for Inactive)
REMARK    1  A    between atoms: N_5  and  C_6
REMARK    2  A    between atoms: N_15  and  C_16
REMARK    3  A    between atoms: C_16  and  C_17
REMARK    4  A    between atoms: C_16  and  C_23
REMARK                            x       y       z     vdW  Elec       q    Type
REMARK                         _______ _______ _______ _____ _____    ______ ____
ROOT
ATOM      1  O   UNL     1      -1.089  16.957  21.469  0.00  0.00    +0.000 OA
ATOM      2  C   UNL     1      -0.136  17.041  20.716  0.00  0.00    +0.000 C 
ATOM      3  N   UNL     1       0.465  18.221  20.365  0.00  0.00    +0.000 N 
ATOM      4  C   UNL     1       1.505  18.083  19.414  0.00  0.00    +0.000 C 
ATOM      5  N   UNL     1       1.718  16.646  19.292  0.00  0.00    +0.000 N 
ATOM      6  C   UNL     1       0.586  15.904  19.958  0.00  0.00    +0.000 C 
ATOM      7  C   UNL     1       0.953  14.858  20.995  0.00  0.00    +0.000 C 
ATOM      8  C   UNL     1       1.283  13.503  20.394  0.00  0.00    +0.000 C 
ATOM      9  N   UNL     1       0.333  12.983  19.401  0.00  0.00    +0.000 NA
ATOM     10  C   UNL     1      -0.078  13.998  18.411  0.00  0.00    +0.000 C 
ATOM     11  C   UNL     1      -0.438  15.367  18.957  0.00  0.00    +0.000 C 
ATOM     12  H   UNL     1       0.120  19.102  20.716  0.00  0.00    +0.000 HD
ENDROOT
BRANCH   5  13
ATOM     13  C   UNL     1       2.990  16.148  19.071  0.00  0.00    +0.000 A 
ATOM     14  C   UNL     1       3.332  15.377  17.951  0.00  0.00    +0.000 A 
ATOM     15  C   UNL     1       4.647  14.932  17.717  0.00  0.00    +0.000 A 
ATOM     16  C   UNL     1       5.673  15.261  18.593  0.00  0.00    +0.000 A 
ATOM     17  C   UNL     1       5.364  15.979  19.734  0.00  0.00    +0.000 A 
ATOM     18  C   UNL     1       4.040  16.363  19.974  0.00  0.00    +0.000 A 
ENDBRANCH   5  13
BRANCH   9  19
ATOM     19  C   UNL     1      -0.824  12.243  19.976  0.00  0.00    +0.000 C 
BRANCH  19  20
ATOM     20  C   UNL     1      -1.629  11.578  18.848  0.00  0.00    +0.000 A 
ATOM     21  C   UNL     1      -3.021  11.761  18.753  0.00  0.00    +0.000 A 
ATOM     22  C   UNL     1      -3.784  10.975  17.892  0.00  0.00    +0.000 A 
ATOM     23  C   UNL     1      -3.163  10.004  17.109  0.00  0.00    +0.000 A 
ATOM     24  C   UNL     1      -1.780   9.838  17.165  0.00  0.00    +0.000 A 
ATOM     25  C   UNL     1      -1.011  10.626  18.021  0.00  0.00    +0.000 A 
ENDBRANCH  19  20
BRANCH  19  26
ATOM     26  C   UNL     1      -0.481  11.200  21.044  0.00  0.00    +0.000 A 
ATOM     27  C   UNL     1      -1.121  11.275  22.293  0.00  0.00    +0.000 A 
ATOM     28  C   UNL     1      -0.876  10.322  23.281  0.00  0.00    +0.000 A 
ATOM     29  C   UNL     1       0.017   9.282  23.041  0.00  0.00    +0.000 A 
ATOM     30  C   UNL     1       0.666   9.191  21.812  0.00  0.00    +0.000 A 
ATOM     31  C   UNL     1       0.410  10.135  20.815  0.00  0.00    +0.000 A 
ENDBRANCH  19  26
ENDBRANCH   9  19
TORSDOF 4
ENDMDL
MODEL 2
REMARK VINA RESULT:      -6.9      2.203      4.296
REMARK  Name = 
REMARK  4 active torsions:
REMARK  status: ('A' for Active; 'I' for Inactive)
REMARK    1  A    between atoms: N_5  and  C_6
REMARK    2  A    between atoms: N_15  and  C_16
REMARK    3  A    between atoms: C_16  and  C_17
REMARK    4  A    between atoms: C_16  and  C_23
REMARK                            x       y       z     vdW  Elec       q    Type
REMARK                         _______ _______ _______ _____ _____    ______ ____
ROOT
ATOM      1  O   UNL     1       3.166  13.560  21.295  0.00  0.00    +0.000 OA
ATOM      2  C   UNL     1       2.801  14.660  20.923  0.00  0.00    +0.000 C 
ATOM      3  N   UNL     1       3.566  15.792  21.008  0.00  0.00    +0.000 N 
ATOM      4  C   UNL     1       2.905  16.973  20.588  0.00  0.00    +0.000 C 
ATOM      5  N   UNL     1       1.656  16.515  19.990  0.00  0.00    +0.000 N 
ATOM      6  C   UNL     1       1.433  15.062  20.327  0.00  0.00    +0.000 C 
ATOM      7  C   UNL     1       1.168  14.112  19.173  0.00  0.00    +0.000 C 
ATOM      8  C   UNL     1      -0.289  14.078  18.742  0.00  0.00    +0.000 C 
ATOM      9  N   UNL     1      -1.281  13.928  19.815  0.00  0.00    +0.000 NA
ATOM     10  C   UNL     1      -1.014  14.807  20.971  0.00  0.00    +0.000 C 
ATOM     11  C   UNL     1       0.422  14.866  21.457  0.00  0.00    +0.000 C 
ATOM     12  H   UNL     1       4.490  15.765  21.413  0.00  0.00    +0.000 HD
ENDROOT
BRANCH   5  13
ATOM     13  C   UNL     1       1.118  17.185  18.905  0.00  0.00    +0.000 A 
ATOM     14  C   UNL     1       1.849  17.492  17.749  0.00  0.00    +0.000 A 
ATOM     15  C   UNL     1       1.264  18.121  16.635  0.00  0.00    +0.000 A 
ATOM     16  C   UNL     1      -0.085  18.450  16.634  0.00  0.00    +0.000 A 
ATOM     17  C   UNL     1      -0.827  18.207  17.775  0.00  0.00    +0.000 A 
ATOM     18  C   UNL     1      -0.210  17.631  18.892  0.00  0.00    +0.000 A 
ENDBRANCH   5  13
BRANCH   9  19
ATOM     19  C   UNL     1      -1.555  12.522  20.218  0.00  0.00    +0.000 C 
BRANCH  19  20
ATOM     20  C   UNL     1      -2.632  12.494  21.314  0.00  0.00    +0.000 A 
ATOM     21  C   UNL     1      -3.880  13.113  21.111  0.00  0.00    +0.000 A 
ATOM     22  C   UNL     1      -4.759  13.303  22.175  0.00  0.00    +0.000 A 
ATOM     23  C   UNL     1      -4.406  12.870  23.450  0.00  0.00    +0.000 A 
ATOM     24  C   UNL     1      -3.189  12.222  23.659  0.00  0.00    +0.000 A 
ATOM     25  C   UNL     1      -2.307  12.023  22.596  0.00  0.00    +0.000 A 
ENDBRANCH  19  20
BRANCH  19  26
ATOM     26  C   UNL     1      -1.955  11.572  19.082  0.00  0.00    +0.000 A 
ATOM     27  C   UNL     1      -3.230  11.706  18.508  0.00  0.00    +0.000 A 
ATOM     28  C   UNL     1      -3.623  10.897  17.442  0.00  0.00    +0.000 A 
ATOM     29  C   UNL     1      -2.751   9.936  16.937  0.00  0.00    +0.000 A 
ATOM     30  C   UNL     1      -1.484   9.784  17.495  0.00  0.00    +0.000 A 
ATOM     31  C   UNL     1      -1.083  10.604  18.552  0.00  0.00    +0.000 A 
ENDBRANCH  19  26
ENDBRANCH   9  19
TORSDOF 4
ENDMDL
MODEL 3
REMARK VINA RESULT:      -6.9      0.605      1.029
REMARK  Name = 
REMARK  4 active torsions:
REMARK  status: ('A' for Active; 'I' for Inactive)
REMARK    1  A    between atoms: N_5  and  C_6
REMARK    2  A    between atoms: N_15  and  C_16
REMARK    3  A    between atoms: C_16  and  C_17
REMARK    4  A    between atoms: C_16  and  C_23
REMARK                            x       y       z     vdW  Elec       q    Type
REMARK                         _______ _______ _______ _____ _____    ______ ____
ROOT
ATOM      1  O   UNL     1      -0.561  16.394  22.639  0.00  0.00    +0.000 OA
ATOM      2  C   UNL     1       0.261  16.633  21.773  0.00  0.00    +0.000 C 
ATOM      3  N   UNL     1       0.905  17.833  21.637  0.00  0.00    +0.000 N 
ATOM      4  C   UNL     1       1.761  17.908  20.510  0.00  0.00    +0.000 C 
ATOM      5  N   UNL     1       1.815  16.549  19.985  0.00  0.00    +0.000 N 
ATOM      6  C   UNL     1       0.740  15.710  20.630  0.00  0.00    +0.000 C 
ATOM      7  C   UNL     1       1.170  14.406  21.279  0.00  0.00    +0.000 C 
ATOM      8  C   UNL     1       1.270  13.250  20.299  0.00  0.00    +0.000 C 
ATOM      9  N   UNL     1       0.127  13.063  19.394  0.00  0.00    +0.000 NA
ATOM     10  C   UNL     1      -0.340  14.327  18.791  0.00  0.00    +0.000 C 
ATOM     11  C   UNL     1      -0.477  15.513  19.727  0.00  0.00    +0.000 C 
ATOM     12  H   UNL     1       0.707  18.602  22.259  0.00  0.00    +0.000 HD
ENDROOT
BRANCH   5  13
ATOM     13  C   UNL     1       2.982  16.069  19.417  0.00  0.00    +0.000 A 
ATOM     14  C   UNL     1       4.177  15.905  20.132  0.00  0.00    +0.000 A 
ATOM     15  C   UNL     1       5.335  15.359  19.547  0.00  0.00    +0.000 A 
ATOM     16  C   UNL     1       5.330  14.941  18.223  0.00  0.00    +0.000 A 
ATOM     17  C   UNL     1       4.184  15.132  17.472  0.00  0.00    +0.000 A 
ATOM     18  C   UNL     1       3.063  15.728  18.060  0.00  0.00    +0.000 A 
ENDBRANCH   5  13
BRANCH   9  19
ATOM     19  C   UNL     1      -0.987  12.252  19.957  0.00  0.00    +0.000 C 
BRANCH  19  20
ATOM     20  C   UNL     1      -1.771  11.582  18.818  0.00  0.00    +0.000 A 
ATOM     21  C   UNL     1      -3.170  11.708  18.737  0.00  0.00    +0.000 A 
ATOM     22  C   UNL     1      -3.905  10.912  17.861  0.00  0.00    +0.000 A 
ATOM     23  C   UNL     1      -3.250   9.988  17.050  0.00  0.00    +0.000 A 
ATOM     24  C   UNL     1      -1.860   9.879  17.093  0.00  0.00    +0.000 A 
ATOM     25  C   UNL     1      -1.119  10.678  17.964  0.00  0.00    +0.000 A 
ENDBRANCH  19  20
BRANCH  19  26
ATOM     26  C   UNL     1      -0.581  11.196  20.991  0.00  0.00    +0.000 A 
ATOM     27  C   UNL     1      -1.113  11.282  22.289  0.00  0.00    +0.000 A 
ATOM     28  C   UNL     1      -0.811  10.318  23.252  0.00  0.00    +0.000 A 
ATOM     29  C   UNL     1       0.034   9.257  22.936  0.00  0.00    +0.000 A 
ATOM     30  C   UNL     1       0.575   9.156  21.656  0.00  0.00    +0.000 A 
ATOM     31  C   UNL     1       0.261  10.110  20.687  0.00  0.00    +0.000 A 
ENDBRANCH  19  26
ENDBRANCH   9  19
TORSDOF 4
ENDMDL
MODEL 4
REMARK VINA RESULT:      -6.7      0.647      1.064
REMARK  Name = 
REMARK  4 active torsions:
REMARK  status: ('A' for Active; 'I' for Inactive)
REMARK    1  A    between atoms: N_5  and  C_6
REMARK    2  A    between atoms: N_15  and  C_16
REMARK    3  A    between atoms: C_16  and  C_17
REMARK    4  A    between atoms: C_16  and  C_23
REMARK                            x       y       z     vdW  Elec       q    Type
REMARK                         _______ _______ _______ _____ _____    ______ ____
ROOT
ATOM      1  O   UNL     1      -1.601  17.119  20.149  0.00  0.00    +0.000 OA
ATOM      2  C   UNL     1      -0.546  17.134  19.540  0.00  0.00    +0.000 C 
ATOM      3  N   UNL     1      -0.020  18.247  18.942  0.00  0.00    +0.000 N 
ATOM      4  C   UNL     1       1.177  18.010  18.223  0.00  0.00    +0.000 C 
ATOM      5  N   UNL     1       1.556  16.643  18.559  0.00  0.00    +0.000 N 
ATOM      6  C   UNL     1       0.408  15.953  19.254  0.00  0.00    +0.000 C 
ATOM      7  C   UNL     1       0.698  15.297  20.593  0.00  0.00    +0.000 C 
ATOM      8  C   UNL     1       1.265  13.894  20.467  0.00  0.00    +0.000 C 
ATOM      9  N   UNL     1       0.559  12.986  19.552  0.00  0.00    +0.000 NA
ATOM     10  C   UNL     1       0.222  13.619  18.262  0.00  0.00    +0.000 C 
ATOM     11  C   UNL     1      -0.366  15.016  18.328  0.00  0.00    +0.000 C 
ATOM     12  H   UNL     1      -0.509  19.130  18.968  0.00  0.00    +0.000 HD
ENDROOT
BRANCH   5  13
ATOM     13  C   UNL     1       2.891  16.298  18.668  0.00  0.00    +0.000 A 
ATOM     14  C   UNL     1       3.764  16.878  19.600  0.00  0.00    +0.000 A 
ATOM     15  C   UNL     1       5.103  16.468  19.732  0.00  0.00    +0.000 A 
ATOM     16  C   UNL     1       5.613  15.446  18.943  0.00  0.00    +0.000 A 
ATOM     17  C   UNL     1       4.797  14.884  17.979  0.00  0.00    +0.000 A 
ATOM     18  C   UNL     1       3.484  15.346  17.828  0.00  0.00    +0.000 A 
ENDBRANCH   5  13
BRANCH   9  19
ATOM     19  C   UNL     1      -0.597  12.269  20.157  0.00  0.00    +0.000 C 
BRANCH  19  20
ATOM     20  C   UNL     1      -1.446  11.625  19.050  0.00  0.00    +0.000 A 
ATOM     21  C   UNL     1      -2.810  11.945  18.913  0.00  0.00    +0.000 A 
ATOM     22  C   UNL     1      -3.635  11.193  18.080  0.00  0.00    +0.000 A 
ATOM     23  C   UNL     1      -3.106  10.118  17.369  0.00  0.00    +0.000 A 
ATOM     24  C   UNL     1      -1.749   9.813  17.467  0.00  0.00    +0.000 A 
ATOM     25  C   UNL     1      -0.917  10.567  18.295  0.00  0.00    +0.000 A 
ENDBRANCH  19  20
BRANCH  19  26
ATOM     26  C   UNL     1      -0.245  11.215  21.213  0.00  0.00    +0.000 A 
ATOM     27  C   UNL     1      -1.053  11.110  22.358  0.00  0.00    +0.000 A 
ATOM     28  C   UNL     1      -0.801  10.136  23.324  0.00  0.00    +0.000 A 
ATOM     29  C   UNL     1       0.265   9.255  23.166  0.00  0.00    +0.000 A 
ATOM     30  C   UNL     1       1.081   9.345  22.040  0.00  0.00    +0.000 A 
ATOM     31  C   UNL     1       0.821  10.309  21.064  0.00  0.00    +0.000 A 
ENDBRANCH  19  26
ENDBRANCH   9  19
TORSDOF 4
ENDMDL
MODEL 5
REMARK VINA RESULT:      -6.7      0.814      1.200
REMARK  Name = 
REMARK  4 active torsions:
REMARK  status: ('A' for Active; 'I' for Inactive)
REMARK    1  A    between atoms: N_5  and  C_6
REMARK    2  A    between atoms: N_15  and  C_16
REMARK    3  A    between atoms: C_16  and  C_17
REMARK    4  A    between atoms: C_16  and  C_23
REMARK                            x       y       z     vdW  Elec       q    Type
REMARK                         _______ _______ _______ _____ _____    ______ ____
ROOT
ATOM      1  O   UNL     1      -0.638  16.117  22.852  0.00  0.00    +0.000 OA
ATOM      2  C   UNL     1       0.158  16.385  21.970  0.00  0.00    +0.000 C 
ATOM      3  N   UNL     1       0.811  17.584  21.863  0.00  0.00    +0.000 N 
ATOM      4  C   UNL     1       1.630  17.699  20.712  0.00  0.00    +0.000 C 
ATOM      5  N   UNL     1       1.651  16.363  20.129  0.00  0.00    +0.000 N 
ATOM      6  C   UNL     1       0.589  15.508  20.773  0.00  0.00    +0.000 C 
ATOM      7  C   UNL     1       1.025  14.173  21.350  0.00  0.00    +0.000 C 
ATOM      8  C   UNL     1       1.079  13.059  20.319  0.00  0.00    +0.000 C 
ATOM      9  N   UNL     1      -0.095  12.923  19.446  0.00  0.00    +0.000 NA
ATOM     10  C   UNL     1      -0.568  14.216  18.913  0.00  0.00    +0.000 C 
ATOM     11  C   UNL     1      -0.660  15.362  19.904  0.00  0.00    +0.000 C 
ATOM     12  H   UNL     1       0.642  18.327  22.524  0.00  0.00    +0.000 HD
ENDROOT
BRANCH   5  13
ATOM     13  C   UNL     1       2.793  15.897  19.502  0.00  0.00    +0.000 A 
ATOM     14  C   UNL     1       2.845  15.567  18.140  0.00  0.00    +0.000 A 
ATOM     15  C   UNL     1       4.034  15.152  17.512  0.00  0.00    +0.000 A 
ATOM     16  C   UNL     1       5.222  15.069  18.226  0.00  0.00    +0.000 A 
ATOM     17  C   UNL     1       5.199  15.340  19.582  0.00  0.00    +0.000 A 
ATOM     18  C   UNL     1       3.994  15.697  20.196  0.00  0.00    +0.000 A 
ENDBRANCH   5  13
BRANCH   9  19
ATOM     19  C   UNL     1      -1.199  12.100  20.011  0.00  0.00    +0.000 C 
BRANCH  19  20
ATOM     20  C   UNL     1      -2.017  11.473  18.871  0.00  0.00    +0.000 A 
ATOM     21  C   UNL     1      -1.388  10.711  17.869  0.00  0.00    +0.000 A 
ATOM     22  C   UNL     1      -2.078  10.350  16.714  0.00  0.00    +0.000 A 
ATOM     23  C   UNL     1      -3.406  10.739  16.550  0.00  0.00    +0.000 A 
ATOM     24  C   UNL     1      -4.053  11.463  17.552  0.00  0.00    +0.000 A 
ATOM     25  C   UNL     1      -3.368  11.821  18.713  0.00  0.00    +0.000 A 
ENDBRANCH  19  20
BRANCH  19  26
ATOM     26  C   UNL     1      -0.773  11.006  20.997  0.00  0.00    +0.000 A 
ATOM     27  C   UNL     1      -1.030  11.193  22.366  0.00  0.00    +0.000 A 
ATOM     28  C   UNL     1      -0.703  10.207  23.297  0.00  0.00    +0.000 A 
ATOM     29  C   UNL     1      -0.107   9.021  22.877  0.00  0.00    +0.000 A 
ATOM     30  C   UNL     1       0.160   8.817  21.524  0.00  0.00    +0.000 A 
ATOM     31  C   UNL     1      -0.181   9.797  20.589  0.00  0.00    +0.000 A 
ENDBRANCH  19  26
ENDBRANCH   9  19
TORSDOF 4
ENDMDL
MODEL 6
REMARK VINA RESULT:      -6.6      1.700      4.573
REMARK  Name = 
REMARK  4 active torsions:
REMARK  status: ('A' for Active; 'I' for Inactive)
REMARK    1  A    between atoms: N_5  and  C_6
REMARK    2  A    between atoms: N_15  and  C_16
REMARK    3  A    between atoms: C_16  and  C_17
REMARK    4  A    between atoms: C_16  and  C_23
REMARK                            x       y       z     vdW  Elec       q    Type
REMARK                         _______ _______ _______ _____ _____    ______ ____
ROOT
ATOM      1  O   UNL     1       4.036  13.391  17.965  0.00  0.00    +0.000 OA
ATOM      2  C   UNL     1       3.618  14.369  18.558  0.00  0.00    +0.000 C 
ATOM      3  N   UNL     1       4.344  15.511  18.763  0.00  0.00    +0.000 N 
ATOM      4  C   UNL     1       3.681  16.487  19.547  0.00  0.00    +0.000 C 
ATOM      5  N   UNL     1       2.317  15.994  19.692  0.00  0.00    +0.000 N 
ATOM      6  C   UNL     1       2.244  14.557  19.240  0.00  0.00    +0.000 C 
ATOM      7  C   UNL     1       1.193  14.206  18.201  0.00  0.00    +0.000 C 
ATOM      8  C   UNL     1      -0.175  13.928  18.799  0.00  0.00    +0.000 C 
ATOM      9  N   UNL     1      -0.210  13.011  19.947  0.00  0.00    +0.000 NA
ATOM     10  C   UNL     1       0.836  13.303  20.946  0.00  0.00    +0.000 C 
ATOM     11  C   UNL     1       2.229  13.570  20.408  0.00  0.00    +0.000 C 
ATOM     12  H   UNL     1       5.295  15.587  18.435  0.00  0.00    +0.000 HD
ENDROOT
BRANCH   5  13
ATOM     13  C   UNL     1       1.258  16.883  19.734  0.00  0.00    +0.000 A 
ATOM     14  C   UNL     1       0.946  17.761  18.686  0.00  0.00    +0.000 A 
ATOM     15  C   UNL     1      -0.173  18.614  18.727  0.00  0.00    +0.000 A 
ATOM     16  C   UNL     1      -1.032  18.604  19.817  0.00  0.00    +0.000 A 
ATOM     17  C   UNL     1      -0.730  17.787  20.891  0.00  0.00    +0.000 A 
ATOM     18  C   UNL     1       0.419  16.988  20.852  0.00  0.00    +0.000 A 
ENDBRANCH   5  13
BRANCH   9  19
ATOM     19  C   UNL     1      -0.273  11.568  19.588  0.00  0.00    +0.000 C 
BRANCH  19  20
ATOM     20  C   UNL     1      -0.283  10.715  20.866  0.00  0.00    +0.000 A 
ATOM     21  C   UNL     1      -1.118  11.050  21.948  0.00  0.00    +0.000 A 
ATOM     22  C   UNL     1      -0.956  10.435  23.188  0.00  0.00    +0.000 A 
ATOM     23  C   UNL     1       0.035   9.471  23.357  0.00  0.00    +0.000 A 
ATOM     24  C   UNL     1       0.845   9.102  22.284  0.00  0.00    +0.000 A 
ATOM     25  C   UNL     1       0.683   9.711  21.039  0.00  0.00    +0.000 A 
ENDBRANCH  19  20
BRANCH  19  26
ATOM     26  C   UNL     1      -1.445  11.158  18.689  0.00  0.00    +0.000 A 
ATOM     27  C   UNL     1      -2.697  11.763  18.893  0.00  0.00    +0.000 A 
ATOM     28  C   UNL     1      -3.781  11.457  18.071  0.00  0.00    +0.000 A 
ATOM     29  C   UNL     1      -3.636  10.537  17.037  0.00  0.00    +0.000 A 
ATOM     30  C   UNL     1      -2.404   9.922  16.820  0.00  0.00    +0.000 A 
ATOM     31  C   UNL     1      -1.313  10.239  17.632  0.00  0.00    +0.000 A 
ENDBRANCH  19  26
ENDBRANCH   9  19
TORSDOF 4
ENDMDL
MODEL 7
REMARK VINA RESULT:      -6.6      1.672      2.353
REMARK  Name = 
REMARK  4 active torsions:
REMARK  status: ('A' for Active; 'I' for Inactive)
REMARK    1  A    between atoms: N_5  and  C_6
REMARK    2  A    between atoms: N_15  and  C_16
REMARK    3  A    between atoms: C_16  and  C_17
REMARK    4  A    between atoms: C_16  and  C_23
REMARK                            x       y       z     vdW  Elec       q    Type
REMARK                         _______ _______ _______ _____ _____    ______ ____
ROOT
ATOM      1  O   UNL     1      -0.467  14.197  23.280  0.00  0.00    +0.000 OA
ATOM      2  C   UNL     1       0.015  14.941  22.446  0.00  0.00    +0.000 C 
ATOM      3  N   UNL     1       0.216  16.282  22.637  0.00  0.00    +0.000 N 
ATOM      4  C   UNL     1       0.717  16.962  21.500  0.00  0.00    +0.000 C 
ATOM      5  N   UNL     1       1.053  15.910  20.548  0.00  0.00    +0.000 N 
ATOM      6  C   UNL     1       0.466  14.599  21.008  0.00  0.00    +0.000 C 
ATOM      7  C   UNL     1       1.410  13.415  21.121  0.00  0.00    +0.000 C 
ATOM      8  C   UNL     1       1.620  12.684  19.806  0.00  0.00    +0.000 C 
ATOM      9  N   UNL     1       0.407  12.349  19.047  0.00  0.00    +0.000 NA
ATOM     10  C   UNL     1      -0.549  13.471  18.968  0.00  0.00    +0.000 C 
ATOM     11  C   UNL     1      -0.812  14.227  20.257  0.00  0.00    +0.000 C 
ATOM     12  H   UNL     1      -0.053  16.728  23.501  0.00  0.00    +0.000 HD
ENDROOT
BRANCH   5  13
ATOM     13  C   UNL     1       2.141  16.057  19.706  0.00  0.00    +0.000 A 
ATOM     14  C   UNL     1       2.039  16.068  18.308  0.00  0.00    +0.000 A 
ATOM     15  C   UNL     1       3.152  16.279  17.473  0.00  0.00    +0.000 A 
ATOM     16  C   UNL     1       4.410  16.505  18.014  0.00  0.00    +0.000 A 
ATOM     17  C   UNL     1       4.560  16.453  19.388  0.00  0.00    +0.000 A 
ATOM     18  C   UNL     1       3.448  16.187  20.196  0.00  0.00    +0.000 A 
ENDBRANCH   5  13
BRANCH   9  19
ATOM     19  C   UNL     1      -0.243  11.071  19.446  0.00  0.00    +0.000 C 
BRANCH  19  20
ATOM     20  C   UNL     1      -1.472  10.814  18.559  0.00  0.00    +0.000 A 
ATOM     21  C   UNL     1      -1.348  10.116  17.343  0.00  0.00    +0.000 A 
ATOM     22  C   UNL     1      -2.398  10.093  16.427  0.00  0.00    +0.000 A 
ATOM     23  C   UNL     1      -3.586  10.758  16.720  0.00  0.00    +0.000 A 
ATOM     24  C   UNL     1      -3.736  11.422  17.937  0.00  0.00    +0.000 A 
ATOM     25  C   UNL     1      -2.690  11.444  18.860  0.00  0.00    +0.000 A 
ENDBRANCH  19  20
BRANCH  19  26
ATOM     26  C   UNL     1       0.663   9.835  19.437  0.00  0.00    +0.000 A 
ATOM     27  C   UNL     1       0.744   9.050  20.600  0.00  0.00    +0.000 A 
ATOM     28  C   UNL     1       1.519   7.890  20.626  0.00  0.00    +0.000 A 
ATOM     29  C   UNL     1       2.230   7.499  19.495  0.00  0.00    +0.000 A 
ATOM     30  C   UNL     1       2.166   8.266  18.333  0.00  0.00    +0.000 A 
ATOM     31  C   UNL     1       1.379   9.419  18.300  0.00  0.00    +0.000 A 
ENDBRANCH  19  26
ENDBRANCH   9  19
TORSDOF 4
ENDMDL
MODEL 8
REMARK VINA RESULT:      -6.5      1.498      2.266
REMARK  Name = 
REMARK  4 active torsions:
REMARK  status: ('A' for Active; 'I' for Inactive)
REMARK    1  A    between atoms: N_5  and  C_6
REMARK    2  A    between atoms: N_15  and  C_16
REMARK    3  A    between atoms: C_16  and  C_17
REMARK    4  A    between atoms: C_16  and  C_23
REMARK                            x       y       z     vdW  Elec       q    Type
REMARK                         _______ _______ _______ _____ _____    ______ ____
ROOT
ATOM      1  O   UNL     1      -1.132  14.776  22.687  0.00  0.00    +0.000 OA
ATOM      2  C   UNL     1      -0.444  15.405  21.904  0.00  0.00    +0.000 C 
ATOM      3  N   UNL     1      -0.246  16.758  21.970  0.00  0.00    +0.000 N 
ATOM      4  C   UNL     1       0.528  17.284  20.907  0.00  0.00    +0.000 C 
ATOM      5  N   UNL     1       1.039  16.118  20.197  0.00  0.00    +0.000 N 
ATOM      6  C   UNL     1       0.316  14.879  20.665  0.00  0.00    +0.000 C 
ATOM      7  C   UNL     1       1.166  13.714  21.141  0.00  0.00    +0.000 C 
ATOM      8  C   UNL     1       1.649  12.820  20.012  0.00  0.00    +0.000 C 
ATOM      9  N   UNL     1       0.634  12.397  19.037  0.00  0.00    +0.000 NA
ATOM     10  C   UNL     1      -0.237  13.505  18.599  0.00  0.00    +0.000 C 
ATOM     11  C   UNL     1      -0.765  14.421  19.687  0.00  0.00    +0.000 C 
ATOM     12  H   UNL     1      -0.692  17.313  22.685  0.00  0.00    +0.000 HD
ENDROOT
BRANCH   5  13
ATOM     13  C   UNL     1       2.298  16.150  19.622  0.00  0.00    +0.000 A 
ATOM     14  C   UNL     1       3.468  16.422  20.344  0.00  0.00    +0.000 A 
ATOM     15  C   UNL     1       4.743  16.390  19.749  0.00  0.00    +0.000 A 
ATOM     16  C   UNL     1       4.891  16.066  18.407  0.00  0.00    +0.000 A 
ATOM     17  C   UNL     1       3.755  15.839  17.652  0.00  0.00    +0.000 A 
ATOM     18  C   UNL     1       2.495  15.930  18.252  0.00  0.00    +0.000 A 
ENDBRANCH   5  13
BRANCH   9  19
ATOM     19  C   UNL     1      -0.136  11.184  19.427  0.00  0.00    +0.000 C 
BRANCH  19  20
ATOM     20  C   UNL     1      -1.355  11.023  18.505  0.00  0.00    +0.000 A 
ATOM     21  C   UNL     1      -2.609  11.545  18.873  0.00  0.00    +0.000 A 
ATOM     22  C   UNL     1      -3.758  11.195  18.168  0.00  0.00    +0.000 A 
ATOM     23  C   UNL     1      -3.667  10.327  17.082  0.00  0.00    +0.000 A 
ATOM     24  C   UNL     1      -2.426   9.832  16.683  0.00  0.00    +0.000 A 
ATOM     25  C   UNL     1      -1.271  10.184  17.382  0.00  0.00    +0.000 A 
ENDBRANCH  19  20
BRANCH  19  26
ATOM     26  C   UNL     1       0.660   9.875  19.457  0.00  0.00    +0.000 A 
ATOM     27  C   UNL     1       1.386   9.499  18.314  0.00  0.00    +0.000 A 
ATOM     28  C   UNL     1       2.163   8.340  18.309  0.00  0.00    +0.000 A 
ATOM     29  C   UNL     1       2.222   7.534  19.443  0.00  0.00    +0.000 A 
ATOM     30  C   UNL     1       1.506   7.887  20.585  0.00  0.00    +0.000 A 
ATOM     31  C   UNL     1       0.741   9.055  20.598  0.00  0.00    +0.000 A 
ENDBRANCH  19  26
ENDBRANCH   9  19
TORSDOF 4
ENDMDL
MODEL 9
REMARK VINA RESULT:      -6.5      1.817      4.588
REMARK  Name = 
REMARK  4 active torsions:
REMARK  status: ('A' for Active; 'I' for Inactive)
REMARK    1  A    between atoms: N_5  and  C_6
REMARK    2  A    between atoms: N_15  and  C_16
REMARK    3  A    between atoms: C_16  and  C_17
REMARK    4  A    between atoms: C_16  and  C_23
REMARK                            x       y       z     vdW  Elec       q    Type
REMARK                         _______ _______ _______ _____ _____    ______ ____
ROOT
ATOM      1  O   UNL     1       4.458  13.495  18.171  0.00  0.00    +0.000 OA
ATOM      2  C   UNL     1       3.927  14.529  18.534  0.00  0.00    +0.000 C 
ATOM      3  N   UNL     1       4.574  15.731  18.631  0.00  0.00    +0.000 N 
ATOM      4  C   UNL     1       3.777  16.780  19.151  0.00  0.00    +0.000 C 
ATOM      5  N   UNL     1       2.426  16.235  19.211  0.00  0.00    +0.000 N 
ATOM      6  C   UNL     1       2.470  14.741  19.003  0.00  0.00    +0.000 C 
ATOM      7  C   UNL     1       1.578  14.162  17.918  0.00  0.00    +0.000 C 
ATOM      8  C   UNL     1       0.156  13.902  18.383  0.00  0.00    +0.000 C 
ATOM      9  N   UNL     1       0.008  13.184  19.656  0.00  0.00    +0.000 NA
ATOM     10  C   UNL     1       0.903  13.697  20.712  0.00  0.00    +0.000 C 
ATOM     11  C   UNL     1       2.343  13.959  20.310  0.00  0.00    +0.000 C 
ATOM     12  H   UNL     1       5.556  15.811  18.413  0.00  0.00    +0.000 HD
ENDROOT
BRANCH   5  13
ATOM     13  C   UNL     1       1.335  17.052  18.972  0.00  0.00    +0.000 A 
ATOM     14  C   UNL     1       1.154  17.766  17.779  0.00  0.00    +0.000 A 
ATOM     15  C   UNL     1       0.006  18.544  17.536  0.00  0.00    +0.000 A 
ATOM     16  C   UNL     1      -1.012  18.619  18.476  0.00  0.00    +0.000 A 
ATOM     17  C   UNL     1      -0.846  17.968  19.685  0.00  0.00    +0.000 A 
ATOM     18  C   UNL     1       0.328  17.245  19.927  0.00  0.00    +0.000 A 
ENDBRANCH   5  13
BRANCH   9  19
ATOM     19  C   UNL     1       0.050  11.700  19.542  0.00  0.00    +0.000 C 
BRANCH  19  20
ATOM     20  C   UNL     1       0.061  11.071  20.944  0.00  0.00    +0.000 A 
ATOM     21  C   UNL     1       0.846   9.935  21.216  0.00  0.00    +0.000 A 
ATOM     22  C   UNL     1       0.675   9.221  22.401  0.00  0.00    +0.000 A 
ATOM     23  C   UNL     1      -0.274   9.639  23.330  0.00  0.00    +0.000 A 
ATOM     24  C   UNL     1      -1.033  10.785  23.090  0.00  0.00    +0.000 A 
ATOM     25  C   UNL     1      -0.862  11.506  21.909  0.00  0.00    +0.000 A 
ENDBRANCH  19  20
BRANCH  19  26
ATOM     26  C   UNL     1      -1.066  11.067  18.705  0.00  0.00    +0.000 A 
ATOM     27  C   UNL     1      -2.390  11.491  18.913  0.00  0.00    +0.000 A 
ATOM     28  C   UNL     1      -3.435  10.978  18.144  0.00  0.00    +0.000 A 
ATOM     29  C   UNL     1      -3.176  10.028  17.160  0.00  0.00    +0.000 A 
ATOM     30  C   UNL     1      -1.871   9.591  16.940  0.00  0.00    +0.000 A 
ATOM     31  C   UNL     1      -0.822  10.115  17.698  0.00  0.00    +0.000 A 
ENDBRANCH  19  26
ENDBRANCH   9  19
TORSDOF 4
ENDMDL
