MODEL 1
REMARK VINA RESULT:      -6.9      0.000      0.000
REMARK  Name = 
REMARK  6 active torsions:
REMARK  status: ('A' for Active; 'I' for Inactive)
REMARK    1  A    between atoms: C_1  and  C_2
REMARK    2  A    between atoms: C_7  and  O_8
REMARK    3  A    between atoms: O_8  and  C_9
REMARK    4  A    between atoms: C_9  and  C_10
REMARK    5  A    between atoms: N_12  and  C_13
REMARK    6  A    between atoms: C_13  and  C_14
REMARK                            x       y       z     vdW  Elec       q    Type
REMARK                         _______ _______ _______ _____ _____    ______ ____
ROOT
ATOM      1  C   UNL     1       5.556   4.701  19.028  0.00  0.00    +0.000 C 
ENDROOT
BRANCH   1   2
ATOM      2  C   UNL     1       6.719   4.815  18.040  0.00  0.00    +0.000 C 
ATOM      3  O   UNL     1       7.879   4.511  18.337  0.00  0.00    +0.000 OA
ATOM      4  N   UNL     1       6.377   5.332  16.806  0.00  0.00    +0.000 N 
ATOM      5  H   UNL     1       5.405   5.517  16.593  0.00  0.00    +0.000 HD
BRANCH   4   6
ATOM      6  C   UNL     1       7.364   5.506  15.763  0.00  0.00    +0.000 C 
BRANCH   6   7
ATOM      7  C   UNL     1       6.943   4.819  14.514  0.00  0.00    +0.000 A 
ATOM      8  C   UNL     1       6.042   3.813  14.222  0.00  0.00    +0.000 A 
ATOM      9  C   UNL     1       6.130   3.582  12.828  0.00  0.00    +0.000 A 
ATOM     10  C   UNL     1       7.082   4.454  12.355  0.00  0.00    +0.000 A 
ATOM     11  O   UNL     1       7.582   5.207  13.369  0.00  0.00    +0.000 OA
ENDBRANCH   6   7
ENDBRANCH   4   6
ENDBRANCH   1   2
BRANCH   1  12
ATOM     12  O   UNL     1       5.055   3.375  19.025  0.00  0.00    +0.000 OA
BRANCH  12  19
ATOM     13  C   UNL     1       1.250   2.478  22.113  0.00  0.00    +0.000 C 
ATOM     14  C   UNL     1       1.799   2.750  20.742  0.00  0.00    +0.000 A 
ATOM     15  C   UNL     1       0.947   2.829  19.638  0.00  0.00    +0.000 A 
ATOM     16  C   UNL     1       1.468   3.085  18.370  0.00  0.00    +0.000 A 
ATOM     17  C   UNL     1       2.844   3.260  18.202  0.00  0.00    +0.000 A 
ATOM     18 CL   UNL     1       3.423   3.582  16.603  0.00  0.00    +0.000 Cl
ATOM     19  C   UNL     1       3.723   3.184  19.294  0.00  0.00    +0.000 A 
ATOM     20  C   UNL     1       3.187   2.928  20.563  0.00  0.00    +0.000 A 
ENDBRANCH  12  19
ENDBRANCH   1  12
TORSDOF 5
ENDMDL
MODEL 2
REMARK VINA RESULT:      -6.8      4.514      6.033
REMARK  Name = 
REMARK  6 active torsions:
REMARK  status: ('A' for Active; 'I' for Inactive)
REMARK    1  A    between atoms: C_1  and  C_2
REMARK    2  A    between atoms: C_7  and  O_8
REMARK    3  A    between atoms: O_8  and  C_9
REMARK    4  A    between atoms: C_9  and  C_10
REMARK    5  A    between atoms: N_12  and  C_13
REMARK    6  A    between atoms: C_13  and  C_14
REMARK                            x       y       z     vdW  Elec       q    Type
REMARK                         _______ _______ _______ _____ _____    ______ ____
ROOT
ATOM      1  C   UNL     1       7.916   6.055  18.947  0.00  0.00    +0.000 C 
ENDROOT
BRANCH   1   2
ATOM      2  C   UNL     1       8.002   7.385  18.196  0.00  0.00    +0.000 C 
ATOM      3  O   UNL     1       7.594   7.524  17.038  0.00  0.00    +0.000 OA
ATOM      4  N   UNL     1       8.616   8.404  18.897  0.00  0.00    +0.000 N 
ATOM      5  H   UNL     1       8.886   8.254  19.861  0.00  0.00    +0.000 HD
BRANCH   4   6
ATOM      6  C   UNL     1       8.777   9.721  18.324  0.00  0.00    +0.000 C 
BRANCH   6   7
ATOM      7  C   UNL     1       9.542  10.608  19.240  0.00  0.00    +0.000 A 
ATOM      8  C   UNL     1       9.370  11.028  20.544  0.00  0.00    +0.000 A 
ATOM      9  C   UNL     1      10.442  11.909  20.831  0.00  0.00    +0.000 A 
ATOM     10  C   UNL     1      11.199  11.976  19.686  0.00  0.00    +0.000 A 
ATOM     11  O   UNL     1      10.661  11.194  18.714  0.00  0.00    +0.000 OA
ENDBRANCH   6   7
ENDBRANCH   4   6
ENDBRANCH   1   2
BRANCH   1  12
ATOM     12  O   UNL     1       7.539   5.023  18.051  0.00  0.00    +0.000 OA
BRANCH  12  19
ATOM     13  C   UNL     1       3.034   4.296  20.051  0.00  0.00    +0.000 C 
ATOM     14  C   UNL     1       3.968   4.308  18.875  0.00  0.00    +0.000 A 
ATOM     15  C   UNL     1       3.510   3.966  17.600  0.00  0.00    +0.000 A 
ATOM     16  C   UNL     1       4.385   3.983  16.515  0.00  0.00    +0.000 A 
ATOM     17  C   UNL     1       5.724   4.339  16.703  0.00  0.00    +0.000 A 
ATOM     18 CL   UNL     1       6.755   4.347  15.312  0.00  0.00    +0.000 Cl
ATOM     19  C   UNL     1       6.211   4.685  17.973  0.00  0.00    +0.000 A 
ATOM     20  C   UNL     1       5.320   4.665  19.055  0.00  0.00    +0.000 A 
ENDBRANCH  12  19
ENDBRANCH   1  12
TORSDOF 5
ENDMDL
MODEL 3
REMARK VINA RESULT:      -6.6      1.783      2.065
REMARK  Name = 
REMARK  6 active torsions:
REMARK  status: ('A' for Active; 'I' for Inactive)
REMARK    1  A    between atoms: C_1  and  C_2
REMARK    2  A    between atoms: C_7  and  O_8
REMARK    3  A    between atoms: O_8  and  C_9
REMARK    4  A    between atoms: C_9  and  C_10
REMARK    5  A    between atoms: N_12  and  C_13
REMARK    6  A    between atoms: C_13  and  C_14
REMARK                            x       y       z     vdW  Elec       q    Type
REMARK                         _______ _______ _______ _____ _____    ______ ____
ROOT
ATOM      1  C   UNL     1       5.912   5.176  18.017  0.00  0.00    +0.000 C 
ENDROOT
BRANCH   1   2
ATOM      2  C   UNL     1       6.894   4.771  16.917  0.00  0.00    +0.000 C 
ATOM      3  O   UNL     1       7.985   4.243  17.157  0.00  0.00    +0.000 OA
ATOM      4  N   UNL     1       6.486   5.087  15.636  0.00  0.00    +0.000 N 
ATOM      5  H   UNL     1       5.561   5.471  15.487  0.00  0.00    +0.000 HD
BRANCH   4   6
ATOM      6  C   UNL     1       7.304   4.772  14.486  0.00  0.00    +0.000 C 
BRANCH   6   7
ATOM      7  C   UNL     1       6.509   4.065  13.447  0.00  0.00    +0.000 A 
ATOM      8  C   UNL     1       6.818   3.436  12.257  0.00  0.00    +0.000 A 
ATOM      9  C   UNL     1       5.594   2.984  11.707  0.00  0.00    +0.000 A 
ATOM     10  C   UNL     1       4.613   3.368  12.590  0.00  0.00    +0.000 A 
ATOM     11  O   UNL     1       5.157   4.026  13.647  0.00  0.00    +0.000 OA
ENDBRANCH   6   7
ENDBRANCH   4   6
ENDBRANCH   1   2
BRANCH   1  12
ATOM     12  O   UNL     1       5.239   4.027  18.505  0.00  0.00    +0.000 OA
BRANCH  12  19
ATOM     13  C   UNL     1       1.701   6.757  20.709  0.00  0.00    +0.000 C 
ATOM     14  C   UNL     1       2.205   5.460  20.141  0.00  0.00    +0.000 A 
ATOM     15  C   UNL     1       1.397   4.320  20.148  0.00  0.00    +0.000 A 
ATOM     16  C   UNL     1       1.873   3.123  19.616  0.00  0.00    +0.000 A 
ATOM     17  C   UNL     1       3.161   3.061  19.077  0.00  0.00    +0.000 A 
ATOM     18 CL   UNL     1       3.688   1.545  18.427  0.00  0.00    +0.000 Cl
ATOM     19  C   UNL     1       3.995   4.190  19.059  0.00  0.00    +0.000 A 
ATOM     20  C   UNL     1       3.503   5.388  19.596  0.00  0.00    +0.000 A 
ENDBRANCH  12  19
ENDBRANCH   1  12
TORSDOF 5
ENDMDL
MODEL 4
REMARK VINA RESULT:      -6.6      2.520      3.685
REMARK  Name = 
REMARK  6 active torsions:
REMARK  status: ('A' for Active; 'I' for Inactive)
REMARK    1  A    between atoms: C_1  and  C_2
REMARK    2  A    between atoms: C_7  and  O_8
REMARK    3  A    between atoms: O_8  and  C_9
REMARK    4  A    between atoms: C_9  and  C_10
REMARK    5  A    between atoms: N_12  and  C_13
REMARK    6  A    between atoms: C_13  and  C_14
REMARK                            x       y       z     vdW  Elec       q    Type
REMARK                         _______ _______ _______ _____ _____    ______ ____
ROOT
ATOM      1  C   UNL     1       3.806   3.594  16.783  0.00  0.00    +0.000 C 
ENDROOT
BRANCH   1   2
ATOM      2  C   UNL     1       5.256   3.970  16.469  0.00  0.00    +0.000 C 
ATOM      3  O   UNL     1       5.673   4.112  15.315  0.00  0.00    +0.000 OA
ATOM      4  N   UNL     1       6.072   4.089  17.577  0.00  0.00    +0.000 N 
ATOM      5  H   UNL     1       5.672   4.014  18.503  0.00  0.00    +0.000 HD
BRANCH   4   6
ATOM      6  C   UNL     1       7.470   4.437  17.447  0.00  0.00    +0.000 C 
BRANCH   6   7
ATOM      7  C   UNL     1       7.688   5.876  17.749  0.00  0.00    +0.000 A 
ATOM      8  C   UNL     1       8.130   6.574  18.856  0.00  0.00    +0.000 A 
ATOM      9  C   UNL     1       8.080   7.948  18.515  0.00  0.00    +0.000 A 
ATOM     10  C   UNL     1       7.608   8.005  17.225  0.00  0.00    +0.000 A 
ATOM     11  O   UNL     1       7.365   6.756  16.752  0.00  0.00    +0.000 OA
ENDBRANCH   6   7
ENDBRANCH   4   6
ENDBRANCH   1   2
BRANCH   1  12
ATOM     12  O   UNL     1       3.070   4.760  17.111  0.00  0.00    +0.000 OA
BRANCH  12  19
ATOM     13  C   UNL     1       1.313   2.919  21.395  0.00  0.00    +0.000 C 
ATOM     14  C   UNL     1       1.741   4.072  20.532  0.00  0.00    +0.000 A 
ATOM     15  C   UNL     1       1.688   5.381  21.017  0.00  0.00    +0.000 A 
ATOM     16  C   UNL     1       2.090   6.443  20.208  0.00  0.00    +0.000 A 
ATOM     17  C   UNL     1       2.545   6.199  18.909  0.00  0.00    +0.000 A 
ATOM     18 CL   UNL     1       3.035   7.561  17.960  0.00  0.00    +0.000 Cl
ATOM     19  C   UNL     1       2.606   4.894  18.395  0.00  0.00    +0.000 A 
ATOM     20  C   UNL     1       2.200   3.835  19.220  0.00  0.00    +0.000 A 
ENDBRANCH  12  19
ENDBRANCH   1  12
TORSDOF 5
ENDMDL
MODEL 5
REMARK VINA RESULT:      -6.6      2.259      2.517
REMARK  Name = 
REMARK  6 active torsions:
REMARK  status: ('A' for Active; 'I' for Inactive)
REMARK    1  A    between atoms: C_1  and  C_2
REMARK    2  A    between atoms: C_7  and  O_8
REMARK    3  A    between atoms: O_8  and  C_9
REMARK    4  A    between atoms: C_9  and  C_10
REMARK    5  A    between atoms: N_12  and  C_13
REMARK    6  A    between atoms: C_13  and  C_14
REMARK                            x       y       z     vdW  Elec       q    Type
REMARK                         _______ _______ _______ _____ _____    ______ ____
ROOT
ATOM      1  C   UNL     1       5.493   4.115  17.677  0.00  0.00    +0.000 C 
ENDROOT
BRANCH   1   2
ATOM      2  C   UNL     1       6.436   4.321  16.490  0.00  0.00    +0.000 C 
ATOM      3  O   UNL     1       7.632   4.594  16.629  0.00  0.00    +0.000 OA
ATOM      4  N   UNL     1       5.832   4.227  15.252  0.00  0.00    +0.000 N 
ATOM      5  H   UNL     1       4.860   3.951  15.189  0.00  0.00    +0.000 HD
BRANCH   4   6
ATOM      6  C   UNL     1       6.587   4.400  14.031  0.00  0.00    +0.000 C 
BRANCH   6   7
ATOM      7  C   UNL     1       6.001   3.596  12.926  0.00  0.00    +0.000 A 
ATOM      8  C   UNL     1       6.483   2.607  12.091  0.00  0.00    +0.000 A 
ATOM      9  C   UNL     1       5.425   2.266  11.214  0.00  0.00    +0.000 A 
ATOM     10  C   UNL     1       4.365   3.069  11.563  0.00  0.00    +0.000 A 
ATOM     11  O   UNL     1       4.704   3.880  12.598  0.00  0.00    +0.000 OA
ENDBRANCH   6   7
ENDBRANCH   4   6
ENDBRANCH   1   2
BRANCH   1  12
ATOM     12  O   UNL     1       4.301   4.856  17.476  0.00  0.00    +0.000 OA
BRANCH  12  19
ATOM     13  C   UNL     1       1.729   3.159  21.391  0.00  0.00    +0.000 C 
ATOM     14  C   UNL     1       2.162   4.272  20.479  0.00  0.00    +0.000 A 
ATOM     15  C   UNL     1       1.707   5.577  20.685  0.00  0.00    +0.000 A 
ATOM     16  C   UNL     1       2.117   6.603  19.834  0.00  0.00    +0.000 A 
ATOM     17  C   UNL     1       2.982   6.325  18.773  0.00  0.00    +0.000 A 
ATOM     18 CL   UNL     1       3.458   7.646  17.759  0.00  0.00    +0.000 Cl
ATOM     19  C   UNL     1       3.453   5.023  18.541  0.00  0.00    +0.000 A 
ATOM     20  C   UNL     1       3.034   4.002  19.405  0.00  0.00    +0.000 A 
ENDBRANCH  12  19
ENDBRANCH   1  12
TORSDOF 5
ENDMDL
MODEL 6
REMARK VINA RESULT:      -6.5      6.096      9.226
REMARK  Name = 
REMARK  6 active torsions:
REMARK  status: ('A' for Active; 'I' for Inactive)
REMARK    1  A    between atoms: C_1  and  C_2
REMARK    2  A    between atoms: C_7  and  O_8
REMARK    3  A    between atoms: O_8  and  C_9
REMARK    4  A    between atoms: C_9  and  C_10
REMARK    5  A    between atoms: N_12  and  C_13
REMARK    6  A    between atoms: C_13  and  C_14
REMARK                            x       y       z     vdW  Elec       q    Type
REMARK                         _______ _______ _______ _____ _____    ______ ____
ROOT
ATOM      1  C   UNL     1       8.356   9.480  17.852  0.00  0.00    +0.000 C 
ENDROOT
BRANCH   1   2
ATOM      2  C   UNL     1       7.941   8.011  17.945  0.00  0.00    +0.000 C 
ATOM      3  O   UNL     1       8.410   7.237  18.786  0.00  0.00    +0.000 OA
ATOM      4  N   UNL     1       7.037   7.606  16.983  0.00  0.00    +0.000 N 
ATOM      5  H   UNL     1       6.643   8.289  16.348  0.00  0.00    +0.000 HD
BRANCH   4   6
ATOM      6  C   UNL     1       6.548   6.246  16.934  0.00  0.00    +0.000 C 
BRANCH   6   7
ATOM      7  C   UNL     1       5.284   6.109  17.706  0.00  0.00    +0.000 A 
ATOM      8  C   UNL     1       3.992   6.564  17.530  0.00  0.00    +0.000 A 
ATOM      9  C   UNL     1       3.249   6.116  18.649  0.00  0.00    +0.000 A 
ATOM     10  C   UNL     1       4.132   5.420  19.440  0.00  0.00    +0.000 A 
ATOM     11  O   UNL     1       5.368   5.411  18.879  0.00  0.00    +0.000 OA
ENDBRANCH   6   7
ENDBRANCH   4   6
ENDBRANCH   1   2
BRANCH   1  12
ATOM     12  O   UNL     1       8.891   9.906  19.094  0.00  0.00    +0.000 OA
BRANCH  12  19
ATOM     13  C   UNL     1      12.039  13.096  16.917  0.00  0.00    +0.000 C 
ATOM     14  C   UNL     1      11.263  12.616  18.110  0.00  0.00    +0.000 A 
ATOM     15  C   UNL     1      11.344  13.294  19.330  0.00  0.00    +0.000 A 
ATOM     16  C   UNL     1      10.618  12.841  20.431  0.00  0.00    +0.000 A 
ATOM     17  C   UNL     1       9.811  11.706  20.316  0.00  0.00    +0.000 A 
ATOM     18 CL   UNL     1       8.930  11.202  21.719  0.00  0.00    +0.000 Cl
ATOM     19  C   UNL     1       9.713  11.005  19.104  0.00  0.00    +0.000 A 
ATOM     20  C   UNL     1      10.447  11.472  18.005  0.00  0.00    +0.000 A 
ENDBRANCH  12  19
ENDBRANCH   1  12
TORSDOF 5
ENDMDL
MODEL 7
REMARK VINA RESULT:      -6.4      1.970      2.299
REMARK  Name = 
REMARK  6 active torsions:
REMARK  status: ('A' for Active; 'I' for Inactive)
REMARK    1  A    between atoms: C_1  and  C_2
REMARK    2  A    between atoms: C_7  and  O_8
REMARK    3  A    between atoms: O_8  and  C_9
REMARK    4  A    between atoms: C_9  and  C_10
REMARK    5  A    between atoms: N_12  and  C_13
REMARK    6  A    between atoms: C_13  and  C_14
REMARK                            x       y       z     vdW  Elec       q    Type
REMARK                         _______ _______ _______ _____ _____    ______ ____
ROOT
ATOM      1  C   UNL     1       6.926   5.107  18.151  0.00  0.00    +0.000 C 
ENDROOT
BRANCH   1   2
ATOM      2  C   UNL     1       7.093   5.700  16.751  0.00  0.00    +0.000 C 
ATOM      3  O   UNL     1       7.039   6.914  16.530  0.00  0.00    +0.000 OA
ATOM      4  N   UNL     1       7.260   4.766  15.747  0.00  0.00    +0.000 N 
ATOM      5  H   UNL     1       7.349   3.787  15.985  0.00  0.00    +0.000 HD
BRANCH   4   6
ATOM      6  C   UNL     1       7.428   5.167  14.368  0.00  0.00    +0.000 C 
BRANCH   6   7
ATOM      7  C   UNL     1       6.553   4.365  13.472  0.00  0.00    +0.000 A 
ATOM      8  C   UNL     1       5.238   3.947  13.528  0.00  0.00    +0.000 A 
ATOM      9  C   UNL     1       5.008   3.172  12.365  0.00  0.00    +0.000 A 
ATOM     10  C   UNL     1       6.196   3.161  11.673  0.00  0.00    +0.000 A 
ATOM     11  O   UNL     1       7.139   3.878  12.336  0.00  0.00    +0.000 OA
ENDBRANCH   6   7
ENDBRANCH   4   6
ENDBRANCH   1   2
BRANCH   1  12
ATOM     12  O   UNL     1       5.745   5.616  18.749  0.00  0.00    +0.000 OA
BRANCH  12  19
ATOM     13  C   UNL     1       2.894   1.531  18.673  0.00  0.00    +0.000 C 
ATOM     14  C   UNL     1       3.096   3.002  18.449  0.00  0.00    +0.000 A 
ATOM     15  C   UNL     1       2.050   3.800  17.977  0.00  0.00    +0.000 A 
ATOM     16  C   UNL     1       2.248   5.165  17.774  0.00  0.00    +0.000 A 
ATOM     17  C   UNL     1       3.495   5.737  18.041  0.00  0.00    +0.000 A 
ATOM     18 CL   UNL     1       3.671   7.439  17.776  0.00  0.00    +0.000 Cl
ATOM     19  C   UNL     1       4.564   4.959  18.514  0.00  0.00    +0.000 A 
ATOM     20  C   UNL     1       4.351   3.588  18.715  0.00  0.00    +0.000 A 
ENDBRANCH  12  19
ENDBRANCH   1  12
TORSDOF 5
ENDMDL
MODEL 8
REMARK VINA RESULT:      -6.4      6.025      7.638
REMARK  Name = 
REMARK  6 active torsions:
REMARK  status: ('A' for Active; 'I' for Inactive)
REMARK    1  A    between atoms: C_1  and  C_2
REMARK    2  A    between atoms: C_7  and  O_8
REMARK    3  A    between atoms: O_8  and  C_9
REMARK    4  A    between atoms: C_9  and  C_10
REMARK    5  A    between atoms: N_12  and  C_13
REMARK    6  A    between atoms: C_13  and  C_14
REMARK                            x       y       z     vdW  Elec       q    Type
REMARK                         _______ _______ _______ _____ _____    ______ ____
ROOT
ATOM      1  C   UNL     1       2.519   8.210  17.625  0.00  0.00    +0.000 C 
ENDROOT
BRANCH   1   2
ATOM      2  C   UNL     1       1.587   9.014  18.533  0.00  0.00    +0.000 C 
ATOM      3  O   UNL     1       1.410   8.734  19.723  0.00  0.00    +0.000 OA
ATOM      4  N   UNL     1       0.922  10.049  17.905  0.00  0.00    +0.000 N 
ATOM      5  H   UNL     1       1.140  10.270  16.942  0.00  0.00    +0.000 HD
BRANCH   4   6
ATOM      6  C   UNL     1       0.003  10.900  18.626  0.00  0.00    +0.000 C 
BRANCH   6   7
ATOM      7  C   UNL     1      -1.382  10.744  18.107  0.00  0.00    +0.000 A 
ATOM      8  C   UNL     1      -1.988   9.879  17.218  0.00  0.00    +0.000 A 
ATOM      9  C   UNL     1      -3.344  10.279  17.122  0.00  0.00    +0.000 A 
ATOM     10  C   UNL     1      -3.480  11.366  17.953  0.00  0.00    +0.000 A 
ATOM     11  O   UNL     1      -2.298  11.658  18.553  0.00  0.00    +0.000 OA
ENDBRANCH   6   7
ENDBRANCH   4   6
ENDBRANCH   1   2
BRANCH   1  12
ATOM     12  O   UNL     1       3.250   7.273  18.399  0.00  0.00    +0.000 OA
BRANCH  12  19
ATOM     13  C   UNL     1       0.950   2.860  18.649  0.00  0.00    +0.000 C 
ATOM     14  C   UNL     1       2.063   3.742  18.158  0.00  0.00    +0.000 A 
ATOM     15  C   UNL     1       3.062   3.228  17.327  0.00  0.00    +0.000 A 
ATOM     16  C   UNL     1       4.089   4.055  16.875  0.00  0.00    +0.000 A 
ATOM     17  C   UNL     1       4.121   5.400  17.254  0.00  0.00    +0.000 A 
ATOM     18 CL   UNL     1       5.419   6.374  16.650  0.00  0.00    +0.000 Cl
ATOM     19  C   UNL     1       3.131   5.942  18.089  0.00  0.00    +0.000 A 
ATOM     20  C   UNL     1       2.104   5.099  18.535  0.00  0.00    +0.000 A 
ENDBRANCH  12  19
ENDBRANCH   1  12
TORSDOF 5
ENDMDL
MODEL 9
REMARK VINA RESULT:      -6.4      1.534      1.548
REMARK  Name = 
REMARK  6 active torsions:
REMARK  status: ('A' for Active; 'I' for Inactive)
REMARK    1  A    between atoms: C_1  and  C_2
REMARK    2  A    between atoms: C_7  and  O_8
REMARK    3  A    between atoms: O_8  and  C_9
REMARK    4  A    between atoms: C_9  and  C_10
REMARK    5  A    between atoms: N_12  and  C_13
REMARK    6  A    between atoms: C_13  and  C_14
REMARK                            x       y       z     vdW  Elec       q    Type
REMARK                         _______ _______ _______ _____ _____    ______ ____
ROOT
ATOM      1  C   UNL     1       6.029   4.773  18.798  0.00  0.00    +0.000 C 
ENDROOT
BRANCH   1   2
ATOM      2  C   UNL     1       6.920   5.257  17.652  0.00  0.00    +0.000 C 
ATOM      3  O   UNL     1       7.917   5.963  17.836  0.00  0.00    +0.000 OA
ATOM      4  N   UNL     1       6.493   4.883  16.393  0.00  0.00    +0.000 N 
ATOM      5  H   UNL     1       5.700   4.261  16.299  0.00  0.00    +0.000 HD
BRANCH   4   6
ATOM      6  C   UNL     1       7.226   5.264  15.206  0.00  0.00    +0.000 C 
BRANCH   6   7
ATOM      7  C   UNL     1       6.710   4.546  14.011  0.00  0.00    +0.000 A 
ATOM      8  C   UNL     1       5.603   3.757  13.762  0.00  0.00    +0.000 A 
ATOM      9  C   UNL     1       5.701   3.337  12.413  0.00  0.00    +0.000 A 
ATOM     10  C   UNL     1       6.861   3.889  11.924  0.00  0.00    +0.000 A 
ATOM     11  O   UNL     1       7.481   4.621  12.884  0.00  0.00    +0.000 OA
ENDBRANCH   6   7
ENDBRANCH   4   6
ENDBRANCH   1   2
BRANCH   1  12
ATOM     12  O   UNL     1       4.782   4.339  18.283  0.00  0.00    +0.000 OA
BRANCH  12  19
ATOM     13  C   UNL     1       1.633   2.500  21.679  0.00  0.00    +0.000 C 
ATOM     14  C   UNL     1       2.089   3.598  20.761  0.00  0.00    +0.000 A 
ATOM     15  C   UNL     1       1.387   4.805  20.694  0.00  0.00    +0.000 A 
ATOM     16  C   UNL     1       1.820   5.819  19.840  0.00  0.00    +0.000 A 
ATOM     17  C   UNL     1       2.957   5.628  19.049  0.00  0.00    +0.000 A 
ATOM     18 CL   UNL     1       3.444   6.930  18.017  0.00  0.00    +0.000 Cl
ATOM     19  C   UNL     1       3.679   4.425  19.096  0.00  0.00    +0.000 A 
ATOM     20  C   UNL     1       3.234   3.415  19.959  0.00  0.00    +0.000 A 
ENDBRANCH  12  19
ENDBRANCH   1  12
TORSDOF 5
ENDMDL
