MODEL 1
REMARK VINA RESULT:      -7.5      0.000      0.000
REMARK  Name = 
REMARK  4 active torsions:
REMARK  status: ('A' for Active; 'I' for Inactive)
REMARK    1  A    between atoms: C_1  and  C_2
REMARK    2  A    between atoms: C_2  and  N_3
REMARK    3  A    between atoms: C_10  and  C_11
REMARK    4  A    between atoms: N_13  and  C_14
REMARK                            x       y       z     vdW  Elec       q    Type
REMARK                         _______ _______ _______ _____ _____    ______ ____
ROOT
ATOM      1  N   UNL     1       2.602   4.876  18.725  0.00  0.00    +0.000 N 
ATOM      2  C   UNL     1       2.047   5.982  19.366  0.00  0.00    +0.000 A 
ATOM      3  O   UNL     1       1.259   5.907  20.305  0.00  0.00    +0.000 OA
ATOM      4  C   UNL     1       2.455   7.384  18.833  0.00  0.00    +0.000 A 
ATOM      5  N   UNL     1       1.838   8.497  19.388  0.00  0.00    +0.000 N 
ATOM      6  C   UNL     1       1.913   8.777  20.815  0.00  0.00    +0.000 C 
ATOM      7  C   UNL     1       0.503   8.854  21.388  0.00  0.00    +0.000 C 
ATOM      8  C   UNL     1      -0.359   9.878  20.634  0.00  0.00    +0.000 C 
ATOM      9  C   UNL     1      -0.306   9.598  19.115  0.00  0.00    +0.000 C 
ATOM     10  C   UNL     1       1.128   9.473  18.581  0.00  0.00    +0.000 C 
ATOM     11  N   UNL     1       3.350   7.512  17.894  0.00  0.00    +0.000 NA
ATOM     12  C   UNL     1       4.000   6.368  17.408  0.00  0.00    +0.000 A 
ATOM     13  C   UNL     1       5.108   6.564  16.575  0.00  0.00    +0.000 A 
ATOM     14  C   UNL     1       5.826   5.482  16.065  0.00  0.00    +0.000 A 
ATOM     15  C   UNL     1       5.410   4.188  16.348  0.00  0.00    +0.000 A 
ATOM     16  C   UNL     1       4.308   3.976  17.177  0.00  0.00    +0.000 A 
ATOM     17  C   UNL     1       3.623   5.059  17.753  0.00  0.00    +0.000 A 
ENDROOT
BRANCH   8  18
ATOM     18  C   UNL     1       0.025  11.326  20.941  0.00  0.00    +0.000 C 
ATOM     19  O   UNL     1       0.357  11.695  22.065  0.00  0.00    +0.000 OA
ATOM     20  N   UNL     1       0.020  12.185  19.861  0.00  0.00    +0.000 N 
ATOM     21  H   UNL     1      -0.226  11.814  18.951  0.00  0.00    +0.000 HD
BRANCH  20  22
ATOM     22  C   UNL     1       0.375  13.599  19.950  0.00  0.00    +0.000 C 
ATOM     23  C   UNL     1       1.424  14.033  18.917  0.00  0.00    +0.000 C 
ATOM     24  C   UNL     1       1.585  15.531  19.104  0.00  0.00    +0.000 C 
ATOM     25  S   UNL     1      -0.074  16.133  19.369  0.00  0.00    +0.000 S 
ATOM     26  O   UNL     1      -0.619  16.562  18.095  0.00  0.00    +0.000 OA
ATOM     27  O   UNL     1      -0.057  17.005  20.526  0.00  0.00    +0.000 OA
ATOM     28  C   UNL     1      -0.806  14.572  19.828  0.00  0.00    +0.000 C 
ENDBRANCH  20  22
ENDBRANCH   8  18
BRANCH   1  30
ATOM     29  C   UNL     1       1.089   2.939  18.574  0.00  0.00    +0.000 C 
ATOM     30  C   UNL     1       2.293   3.560  19.269  0.00  0.00    +0.000 C 
ENDBRANCH   1  30
TORSDOF 3
ENDMDL
MODEL 2
REMARK VINA RESULT:      -7.4      0.986      1.007
REMARK  Name = 
REMARK  4 active torsions:
REMARK  status: ('A' for Active; 'I' for Inactive)
REMARK    1  A    between atoms: C_1  and  C_2
REMARK    2  A    between atoms: C_2  and  N_3
REMARK    3  A    between atoms: C_10  and  C_11
REMARK    4  A    between atoms: N_13  and  C_14
REMARK                            x       y       z     vdW  Elec       q    Type
REMARK                         _______ _______ _______ _____ _____    ______ ____
ROOT
ATOM      1  N   UNL     1       2.448   4.868  18.970  0.00  0.00    +0.000 N 
ATOM      2  C   UNL     1       1.932   5.959  19.666  0.00  0.00    +0.000 A 
ATOM      3  O   UNL     1       1.209   5.862  20.655  0.00  0.00    +0.000 OA
ATOM      4  C   UNL     1       2.295   7.373  19.133  0.00  0.00    +0.000 A 
ATOM      5  N   UNL     1       1.711   8.472  19.749  0.00  0.00    +0.000 N 
ATOM      6  C   UNL     1       1.879   8.727  21.172  0.00  0.00    +0.000 C 
ATOM      7  C   UNL     1       0.510   8.784  21.840  0.00  0.00    +0.000 C 
ATOM      8  C   UNL     1      -0.406   9.816  21.164  0.00  0.00    +0.000 C 
ATOM      9  C   UNL     1      -0.453   9.563  19.641  0.00  0.00    +0.000 C 
ATOM     10  C   UNL     1       0.943   9.457  19.009  0.00  0.00    +0.000 C 
ATOM     11  N   UNL     1       3.124   7.523  18.139  0.00  0.00    +0.000 NA
ATOM     12  C   UNL     1       3.747   6.393  17.590  0.00  0.00    +0.000 A 
ATOM     13  C   UNL     1       4.795   6.612  16.688  0.00  0.00    +0.000 A 
ATOM     14  C   UNL     1       5.483   5.544  16.111  0.00  0.00    +0.000 A 
ATOM     15  C   UNL     1       5.095   4.242  16.398  0.00  0.00    +0.000 A 
ATOM     16  C   UNL     1       4.051   4.008  17.295  0.00  0.00    +0.000 A 
ATOM     17  C   UNL     1       3.401   5.076  17.935  0.00  0.00    +0.000 A 
ENDROOT
BRANCH   8  18
ATOM     18  C   UNL     1      -0.010  11.260  21.471  0.00  0.00    +0.000 C 
ATOM     19  O   UNL     1      -0.001  11.711  22.614  0.00  0.00    +0.000 OA
ATOM     20  N   UNL     1       0.382  12.013  20.384  0.00  0.00    +0.000 N 
ATOM     21  H   UNL     1       0.390  11.575  19.471  0.00  0.00    +0.000 HD
BRANCH  20  22
ATOM     22  C   UNL     1       0.813  13.406  20.477  0.00  0.00    +0.000 C 
ATOM     23  C   UNL     1       2.311  13.565  20.769  0.00  0.00    +0.000 C 
ATOM     24  C   UNL     1       2.577  15.060  20.732  0.00  0.00    +0.000 C 
ATOM     25  S   UNL     1       1.612  15.656  19.354  0.00  0.00    +0.000 S 
ATOM     26  O   UNL     1       2.459  15.688  18.177  0.00  0.00    +0.000 OA
ATOM     27  O   UNL     1       0.869  16.819  19.795  0.00  0.00    +0.000 OA
ATOM     28  C   UNL     1       0.500  14.265  19.244  0.00  0.00    +0.000 C 
ENDBRANCH  20  22
ENDBRANCH   8  18
BRANCH   1  30
ATOM     29  C   UNL     1       0.991   2.889  18.824  0.00  0.00    +0.000 C 
ATOM     30  C   UNL     1       2.184   3.541  19.510  0.00  0.00    +0.000 C 
ENDBRANCH   1  30
TORSDOF 3
ENDMDL
MODEL 3
REMARK VINA RESULT:      -7.2      1.359      1.441
REMARK  Name = 
REMARK  4 active torsions:
REMARK  status: ('A' for Active; 'I' for Inactive)
REMARK    1  A    between atoms: C_1  and  C_2
REMARK    2  A    between atoms: C_2  and  N_3
REMARK    3  A    between atoms: C_10  and  C_11
REMARK    4  A    between atoms: N_13  and  C_14
REMARK                            x       y       z     vdW  Elec       q    Type
REMARK                         _______ _______ _______ _____ _____    ______ ____
ROOT
ATOM      1  N   UNL     1       2.470   5.786  19.801  0.00  0.00    +0.000 N 
ATOM      2  C   UNL     1       1.850   7.020  19.986  0.00  0.00    +0.000 A 
ATOM      3  O   UNL     1       1.147   7.297  20.954  0.00  0.00    +0.000 OA
ATOM      4  C   UNL     1       2.064   8.089  18.878  0.00  0.00    +0.000 A 
ATOM      5  N   UNL     1       1.376   9.290  18.990  0.00  0.00    +0.000 N 
ATOM      6  C   UNL     1       1.527  10.150  20.154  0.00  0.00    +0.000 C 
ATOM      7  C   UNL     1       0.164  10.369  20.800  0.00  0.00    +0.000 C 
ATOM      8  C   UNL     1      -0.856  10.921  19.793  0.00  0.00    +0.000 C 
ATOM      9  C   UNL     1      -0.889  10.030  18.531  0.00  0.00    +0.000 C 
ATOM     10  C   UNL     1       0.506   9.785  17.937  0.00  0.00    +0.000 C 
ATOM     11  N   UNL     1       2.866   7.867  17.876  0.00  0.00    +0.000 NA
ATOM     12  C   UNL     1       3.597   6.670  17.837  0.00  0.00    +0.000 A 
ATOM     13  C   UNL     1       4.611   6.569  16.877  0.00  0.00    +0.000 A 
ATOM     14  C   UNL     1       5.401   5.422  16.782  0.00  0.00    +0.000 A 
ATOM     15  C   UNL     1       5.148   4.344  17.620  0.00  0.00    +0.000 A 
ATOM     16  C   UNL     1       4.140   4.430  18.582  0.00  0.00    +0.000 A 
ATOM     17  C   UNL     1       3.389   5.608  18.731  0.00  0.00    +0.000 A 
ENDROOT
BRANCH   8  18
ATOM     18  C   UNL     1      -0.608  12.384  19.428  0.00  0.00    +0.000 C 
ATOM     19  O   UNL     1      -0.967  12.866  18.357  0.00  0.00    +0.000 OA
ATOM     20  N   UNL     1       0.007  13.144  20.402  0.00  0.00    +0.000 N 
ATOM     21  H   UNL     1       0.246  12.700  21.281  0.00  0.00    +0.000 HD
BRANCH  20  22
ATOM     22  C   UNL     1       0.312  14.564  20.249  0.00  0.00    +0.000 C 
ATOM     23  C   UNL     1       1.320  14.857  19.129  0.00  0.00    +0.000 C 
ATOM     24  C   UNL     1       1.430  16.370  19.064  0.00  0.00    +0.000 C 
ATOM     25  S   UNL     1      -0.243  16.953  19.277  0.00  0.00    +0.000 S 
ATOM     26  O   UNL     1      -0.833  17.150  17.967  0.00  0.00    +0.000 OA
ATOM     27  O   UNL     1      -0.230  18.003  20.276  0.00  0.00    +0.000 OA
ATOM     28  C   UNL     1      -0.906  15.466  20.005  0.00  0.00    +0.000 C 
ENDBRANCH  20  22
ENDBRANCH   8  18
BRANCH   1  30
ATOM     29  C   UNL     1       1.184   3.853  20.623  0.00  0.00    +0.000 C 
ATOM     30  C   UNL     1       2.345   4.806  20.872  0.00  0.00    +0.000 C 
ENDBRANCH   1  30
TORSDOF 3
ENDMDL
MODEL 4
REMARK VINA RESULT:      -7.2      1.743      2.039
REMARK  Name = 
REMARK  4 active torsions:
REMARK  status: ('A' for Active; 'I' for Inactive)
REMARK    1  A    between atoms: C_1  and  C_2
REMARK    2  A    between atoms: C_2  and  N_3
REMARK    3  A    between atoms: C_10  and  C_11
REMARK    4  A    between atoms: N_13  and  C_14
REMARK                            x       y       z     vdW  Elec       q    Type
REMARK                         _______ _______ _______ _____ _____    ______ ____
ROOT
ATOM      1  N   UNL     1       2.448   5.860  19.804  0.00  0.00    +0.000 N 
ATOM      2  C   UNL     1       1.869   7.112  19.996  0.00  0.00    +0.000 A 
ATOM      3  O   UNL     1       1.203   7.416  20.983  0.00  0.00    +0.000 OA
ATOM      4  C   UNL     1       2.079   8.166  18.874  0.00  0.00    +0.000 A 
ATOM      5  N   UNL     1       1.428   9.387  18.996  0.00  0.00    +0.000 N 
ATOM      6  C   UNL     1       1.639  10.251  20.148  0.00  0.00    +0.000 C 
ATOM      7  C   UNL     1       0.302  10.514  20.832  0.00  0.00    +0.000 C 
ATOM      8  C   UNL     1      -0.732  11.086  19.851  0.00  0.00    +0.000 C 
ATOM      9  C   UNL     1      -0.827  10.187  18.598  0.00  0.00    +0.000 C 
ATOM     10  C   UNL     1       0.542   9.899  17.965  0.00  0.00    +0.000 C 
ATOM     11  N   UNL     1       2.845   7.914  17.850  0.00  0.00    +0.000 NA
ATOM     12  C   UNL     1       3.540   6.697  17.799  0.00  0.00    +0.000 A 
ATOM     13  C   UNL     1       4.522   6.560  16.810  0.00  0.00    +0.000 A 
ATOM     14  C   UNL     1       5.276   5.391  16.702  0.00  0.00    +0.000 A 
ATOM     15  C   UNL     1       5.019   4.327  17.556  0.00  0.00    +0.000 A 
ATOM     16  C   UNL     1       4.043   4.448  18.546  0.00  0.00    +0.000 A 
ATOM     17  C   UNL     1       3.329   5.648  18.708  0.00  0.00    +0.000 A 
ENDROOT
BRANCH   8  18
ATOM     18  C   UNL     1      -0.454  12.539  19.467  0.00  0.00    +0.000 C 
ATOM     19  O   UNL     1      -0.936  13.059  18.464  0.00  0.00    +0.000 OA
ATOM     20  N   UNL     1       0.339  13.246  20.347  0.00  0.00    +0.000 N 
ATOM     21  H   UNL     1       0.677  12.774  21.178  0.00  0.00    +0.000 HD
BRANCH  20  22
ATOM     22  C   UNL     1       0.702  14.649  20.164  0.00  0.00    +0.000 C 
ATOM     23  C   UNL     1       0.908  15.405  21.484  0.00  0.00    +0.000 C 
ATOM     24  C   UNL     1       1.366  16.798  21.088  0.00  0.00    +0.000 C 
ATOM     25  S   UNL     1       2.498  16.533  19.734  0.00  0.00    +0.000 S 
ATOM     26  O   UNL     1       3.846  16.468  20.266  0.00  0.00    +0.000 OA
ATOM     27  O   UNL     1       2.141  17.441  18.664  0.00  0.00    +0.000 OA
ATOM     28  C   UNL     1       1.953  14.889  19.307  0.00  0.00    +0.000 C 
ENDBRANCH  20  22
ENDBRANCH   8  18
BRANCH   1  30
ATOM     29  C   UNL     1       1.162   3.940  20.655  0.00  0.00    +0.000 C 
ATOM     30  C   UNL     1       2.328   4.892  20.886  0.00  0.00    +0.000 C 
ENDBRANCH   1  30
TORSDOF 3
ENDMDL
MODEL 5
REMARK VINA RESULT:      -7.2      2.863      4.296
REMARK  Name = 
REMARK  4 active torsions:
REMARK  status: ('A' for Active; 'I' for Inactive)
REMARK    1  A    between atoms: C_1  and  C_2
REMARK    2  A    between atoms: C_2  and  N_3
REMARK    3  A    between atoms: C_10  and  C_11
REMARK    4  A    between atoms: N_13  and  C_14
REMARK                            x       y       z     vdW  Elec       q    Type
REMARK                         _______ _______ _______ _____ _____    ______ ____
ROOT
ATOM      1  N   UNL     1       3.355   6.965  18.258  0.00  0.00    +0.000 N 
ATOM      2  C   UNL     1       2.532   8.080  18.397  0.00  0.00    +0.000 A 
ATOM      3  O   UNL     1       2.520   9.026  17.613  0.00  0.00    +0.000 OA
ATOM      4  C   UNL     1       1.592   8.114  19.634  0.00  0.00    +0.000 A 
ATOM      5  N   UNL     1       0.836   9.259  19.847  0.00  0.00    +0.000 N 
ATOM      6  C   UNL     1      -0.101   9.751  18.849  0.00  0.00    +0.000 C 
ATOM      7  C   UNL     1       0.270  11.179  18.468  0.00  0.00    +0.000 C 
ATOM      8  C   UNL     1       0.344  12.092  19.702  0.00  0.00    +0.000 C 
ATOM      9  C   UNL     1       1.263  11.461  20.772  0.00  0.00    +0.000 C 
ATOM     10  C   UNL     1       0.894  10.005  21.092  0.00  0.00    +0.000 C 
ATOM     11  N   UNL     1       1.513   7.097  20.445  0.00  0.00    +0.000 NA
ATOM     12  C   UNL     1       2.238   5.933  20.156  0.00  0.00    +0.000 A 
ATOM     13  C   UNL     1       1.952   4.792  20.916  0.00  0.00    +0.000 A 
ATOM     14  C   UNL     1       2.612   3.585  20.680  0.00  0.00    +0.000 A 
ATOM     15  C   UNL     1       3.603   3.523  19.709  0.00  0.00    +0.000 A 
ATOM     16  C   UNL     1       3.900   4.652  18.944  0.00  0.00    +0.000 A 
ATOM     17  C   UNL     1       3.190   5.851  19.126  0.00  0.00    +0.000 A 
ENDROOT
BRANCH   8  18
ATOM     18  C   UNL     1      -1.029  12.426  20.283  0.00  0.00    +0.000 C 
ATOM     19  O   UNL     1      -2.065  12.315  19.632  0.00  0.00    +0.000 OA
ATOM     20  N   UNL     1      -1.036  12.818  21.606  0.00  0.00    +0.000 N 
ATOM     21  H   UNL     1      -0.155  12.855  22.103  0.00  0.00    +0.000 HD
BRANCH  20  22
ATOM     22  C   UNL     1      -2.250  13.161  22.343  0.00  0.00    +0.000 C 
ATOM     23  C   UNL     1      -2.666  12.096  23.368  0.00  0.00    +0.000 C 
ATOM     24  C   UNL     1      -3.873  12.672  24.086  0.00  0.00    +0.000 C 
ATOM     25  S   UNL     1      -3.477  14.395  24.326  0.00  0.00    +0.000 S 
ATOM     26  O   UNL     1      -2.883  14.554  25.639  0.00  0.00    +0.000 OA
ATOM     27  O   UNL     1      -4.617  15.183  23.902  0.00  0.00    +0.000 OA
ATOM     28  C   UNL     1      -2.201  14.505  23.083  0.00  0.00    +0.000 C 
ENDBRANCH  20  22
ENDBRANCH   8  18
BRANCH   1  30
ATOM     29  C   UNL     1       5.642   7.176  17.368  0.00  0.00    +0.000 C 
ATOM     30  C   UNL     1       4.179   6.884  17.059  0.00  0.00    +0.000 C 
ENDBRANCH   1  30
TORSDOF 3
ENDMDL
MODEL 6
REMARK VINA RESULT:      -7.1      1.972      2.121
REMARK  Name = 
REMARK  4 active torsions:
REMARK  status: ('A' for Active; 'I' for Inactive)
REMARK    1  A    between atoms: C_1  and  C_2
REMARK    2  A    between atoms: C_2  and  N_3
REMARK    3  A    between atoms: C_10  and  C_11
REMARK    4  A    between atoms: N_13  and  C_14
REMARK                            x       y       z     vdW  Elec       q    Type
REMARK                         _______ _______ _______ _____ _____    ______ ____
ROOT
ATOM      1  N   UNL     1       2.470   4.929  19.093  0.00  0.00    +0.000 N 
ATOM      2  C   UNL     1       1.952   6.021  19.785  0.00  0.00    +0.000 A 
ATOM      3  O   UNL     1       1.258   5.929  20.794  0.00  0.00    +0.000 OA
ATOM      4  C   UNL     1       2.274   7.432  19.218  0.00  0.00    +0.000 A 
ATOM      5  N   UNL     1       1.687   8.531  19.832  0.00  0.00    +0.000 N 
ATOM      6  C   UNL     1       1.890   8.813  21.245  0.00  0.00    +0.000 C 
ATOM      7  C   UNL     1       0.539   8.857  21.950  0.00  0.00    +0.000 C 
ATOM      8  C   UNL     1      -0.414   9.861  21.282  0.00  0.00    +0.000 C 
ATOM      9  C   UNL     1      -0.498   9.581  19.765  0.00  0.00    +0.000 C 
ATOM     10  C   UNL     1       0.881   9.490  19.097  0.00  0.00    +0.000 C 
ATOM     11  N   UNL     1       3.073   7.581  18.199  0.00  0.00    +0.000 NA
ATOM     12  C   UNL     1       3.701   6.452  17.652  0.00  0.00    +0.000 A 
ATOM     13  C   UNL     1       4.720   6.675  16.718  0.00  0.00    +0.000 A 
ATOM     14  C   UNL     1       5.412   5.609  16.140  0.00  0.00    +0.000 A 
ATOM     15  C   UNL     1       5.056   4.306  16.459  0.00  0.00    +0.000 A 
ATOM     16  C   UNL     1       4.042   4.068  17.388  0.00  0.00    +0.000 A 
ATOM     17  C   UNL     1       3.389   5.136  18.028  0.00  0.00    +0.000 A 
ENDROOT
BRANCH   8  18
ATOM     18  C   UNL     1      -0.037  11.317  21.554  0.00  0.00    +0.000 C 
ATOM     19  O   UNL     1       1.129  11.705  21.563  0.00  0.00    +0.000 OA
ATOM     20  N   UNL     1      -1.096  12.180  21.743  0.00  0.00    +0.000 N 
ATOM     21  H   UNL     1      -2.037  11.809  21.687  0.00  0.00    +0.000 HD
BRANCH  20  22
ATOM     22  C   UNL     1      -0.940  13.610  21.997  0.00  0.00    +0.000 C 
ATOM     23  C   UNL     1      -1.844  14.490  21.121  0.00  0.00    +0.000 C 
ATOM     24  C   UNL     1      -1.610  15.914  21.594  0.00  0.00    +0.000 C 
ATOM     25  S   UNL     1      -1.513  15.788  23.372  0.00  0.00    +0.000 S 
ATOM     26  O   UNL     1      -2.829  16.044  23.925  0.00  0.00    +0.000 OA
ATOM     27  O   UNL     1      -0.343  16.520  23.812  0.00  0.00    +0.000 OA
ATOM     28  C   UNL     1      -1.168  14.039  23.453  0.00  0.00    +0.000 C 
ENDBRANCH  20  22
ENDBRANCH   8  18
BRANCH   1  30
ATOM     29  C   UNL     1       1.000   2.952  19.075  0.00  0.00    +0.000 C 
ATOM     30  C   UNL     1       2.245   3.606  19.662  0.00  0.00    +0.000 C 
ENDBRANCH   1  30
TORSDOF 3
ENDMDL
MODEL 7
REMARK VINA RESULT:      -7.1      1.062      1.121
REMARK  Name = 
REMARK  4 active torsions:
REMARK  status: ('A' for Active; 'I' for Inactive)
REMARK    1  A    between atoms: C_1  and  C_2
REMARK    2  A    between atoms: C_2  and  N_3
REMARK    3  A    between atoms: C_10  and  C_11
REMARK    4  A    between atoms: N_13  and  C_14
REMARK                            x       y       z     vdW  Elec       q    Type
REMARK                         _______ _______ _______ _____ _____    ______ ____
ROOT
ATOM      1  N   UNL     1       2.581   4.863  18.809  0.00  0.00    +0.000 N 
ATOM      2  C   UNL     1       2.033   5.962  19.467  0.00  0.00    +0.000 A 
ATOM      3  O   UNL     1       1.287   5.879  20.439  0.00  0.00    +0.000 OA
ATOM      4  C   UNL     1       2.390   7.368  18.909  0.00  0.00    +0.000 A 
ATOM      5  N   UNL     1       1.776   8.473  19.484  0.00  0.00    +0.000 N 
ATOM      6  C   UNL     1       1.906   8.764  20.904  0.00  0.00    +0.000 C 
ATOM      7  C   UNL     1       0.521   8.817  21.537  0.00  0.00    +0.000 C 
ATOM      8  C   UNL     1      -0.392   9.820  20.814  0.00  0.00    +0.000 C 
ATOM      9  C   UNL     1      -0.398   9.532  19.297  0.00  0.00    +0.000 C 
ATOM     10  C   UNL     1       1.014   9.430  18.702  0.00  0.00    +0.000 C 
ATOM     11  N   UNL     1       3.241   7.507  17.932  0.00  0.00    +0.000 NA
ATOM     12  C   UNL     1       3.892   6.373  17.425  0.00  0.00    +0.000 A 
ATOM     13  C   UNL     1       4.959   6.585  16.544  0.00  0.00    +0.000 A 
ATOM     14  C   UNL     1       5.676   5.513  16.010  0.00  0.00    +0.000 A 
ATOM     15  C   UNL     1       5.298   4.213  16.318  0.00  0.00    +0.000 A 
ATOM     16  C   UNL     1       4.236   3.986  17.194  0.00  0.00    +0.000 A 
ATOM     17  C   UNL     1       3.555   5.060  17.793  0.00  0.00    +0.000 A 
ENDROOT
BRANCH   8  18
ATOM     18  C   UNL     1      -0.024  11.277  21.097  0.00  0.00    +0.000 C 
ATOM     19  O   UNL     1       1.004  11.593  21.692  0.00  0.00    +0.000 OA
ATOM     20  N   UNL     1      -0.898  12.219  20.597  0.00  0.00    +0.000 N 
ATOM     21  H   UNL     1      -1.710  11.900  20.082  0.00  0.00    +0.000 HD
BRANCH  20  22
ATOM     22  C   UNL     1      -0.709  13.660  20.748  0.00  0.00    +0.000 C 
ATOM     23  C   UNL     1      -0.523  14.396  19.413  0.00  0.00    +0.000 C 
ATOM     24  C   UNL     1      -0.441  15.870  19.769  0.00  0.00    +0.000 C 
ATOM     25  S   UNL     1      -1.676  16.098  21.037  0.00  0.00    +0.000 S 
ATOM     26  O   UNL     1      -2.908  16.534  20.409  0.00  0.00    +0.000 OA
ATOM     27  O   UNL     1      -1.070  16.836  22.127  0.00  0.00    +0.000 OA
ATOM     28  C   UNL     1      -1.828  14.384  21.509  0.00  0.00    +0.000 C 
ENDBRANCH  20  22
ENDBRANCH   8  18
BRANCH   1  30
ATOM     29  C   UNL     1       1.136   2.872  18.694  0.00  0.00    +0.000 C 
ATOM     30  C   UNL     1       2.321   3.545  19.374  0.00  0.00    +0.000 C 
ENDBRANCH   1  30
TORSDOF 3
ENDMDL
MODEL 8
REMARK VINA RESULT:      -7.1      1.782      2.145
REMARK  Name = 
REMARK  4 active torsions:
REMARK  status: ('A' for Active; 'I' for Inactive)
REMARK    1  A    between atoms: C_1  and  C_2
REMARK    2  A    between atoms: C_2  and  N_3
REMARK    3  A    between atoms: C_10  and  C_11
REMARK    4  A    between atoms: N_13  and  C_14
REMARK                            x       y       z     vdW  Elec       q    Type
REMARK                         _______ _______ _______ _____ _____    ______ ____
ROOT
ATOM      1  N   UNL     1       2.497   5.476  19.496  0.00  0.00    +0.000 N 
ATOM      2  C   UNL     1       1.914   6.676  19.898  0.00  0.00    +0.000 A 
ATOM      3  O   UNL     1       1.225   6.800  20.907  0.00  0.00    +0.000 OA
ATOM      4  C   UNL     1       2.152   7.914  18.990  0.00  0.00    +0.000 A 
ATOM      5  N   UNL     1       1.499   9.096  19.315  0.00  0.00    +0.000 N 
ATOM      6  C   UNL     1       1.682   9.737  20.609  0.00  0.00    +0.000 C 
ATOM      7  C   UNL     1       0.329   9.878  21.298  0.00  0.00    +0.000 C 
ATOM      8  C   UNL     1      -0.681  10.623  20.412  0.00  0.00    +0.000 C 
ATOM      9  C   UNL     1      -0.746   9.966  19.016  0.00  0.00    +0.000 C 
ATOM     10  C   UNL     1       0.638   9.790  18.374  0.00  0.00    +0.000 C 
ATOM     11  N   UNL     1       2.942   7.848  17.956  0.00  0.00    +0.000 NA
ATOM     12  C   UNL     1       3.638   6.657  17.703  0.00  0.00    +0.000 A 
ATOM     13  C   UNL     1       4.644   6.696  16.729  0.00  0.00    +0.000 A 
ATOM     14  C   UNL     1       5.400   5.561  16.429  0.00  0.00    +0.000 A 
ATOM     15  C   UNL     1       5.121   4.362  17.070  0.00  0.00    +0.000 A 
ATOM     16  C   UNL     1       4.122   4.307  18.043  0.00  0.00    +0.000 A 
ATOM     17  C   UNL     1       3.405   5.461  18.402  0.00  0.00    +0.000 A 
ENDROOT
BRANCH   8  18
ATOM     18  C   UNL     1      -0.393  12.120  20.304  0.00  0.00    +0.000 C 
ATOM     19  O   UNL     1      -0.477  12.732  19.241  0.00  0.00    +0.000 OA
ATOM     20  N   UNL     1      -0.077  12.752  21.488  0.00  0.00    +0.000 N 
ATOM     21  H   UNL     1      -0.061  12.203  22.339  0.00  0.00    +0.000 HD
BRANCH  20  22
ATOM     22  C   UNL     1       0.212  14.180  21.592  0.00  0.00    +0.000 C 
ATOM     23  C   UNL     1      -0.371  14.833  22.854  0.00  0.00    +0.000 C 
ATOM     24  C   UNL     1       0.112  16.272  22.829  0.00  0.00    +0.000 C 
ATOM     25  S   UNL     1       1.805  16.170  22.273  0.00  0.00    +0.000 S 
ATOM     26  O   UNL     1       2.671  16.121  23.435  0.00  0.00    +0.000 OA
ATOM     27  O   UNL     1       1.993  17.148  21.220  0.00  0.00    +0.000 OA
ATOM     28  C   UNL     1       1.702  14.545  21.544  0.00  0.00    +0.000 C 
ENDBRANCH  20  22
ENDBRANCH   8  18
BRANCH   1  30
ATOM     29  C   UNL     1       1.096   3.530  20.057  0.00  0.00    +0.000 C 
ATOM     30  C   UNL     1       2.351   4.329  20.383  0.00  0.00    +0.000 C 
ENDBRANCH   1  30
TORSDOF 3
ENDMDL
MODEL 9
REMARK VINA RESULT:      -7.0      1.659      1.982
REMARK  Name = 
REMARK  4 active torsions:
REMARK  status: ('A' for Active; 'I' for Inactive)
REMARK    1  A    between atoms: C_1  and  C_2
REMARK    2  A    between atoms: C_2  and  N_3
REMARK    3  A    between atoms: C_10  and  C_11
REMARK    4  A    between atoms: N_13  and  C_14
REMARK                            x       y       z     vdW  Elec       q    Type
REMARK                         _______ _______ _______ _____ _____    ______ ____
ROOT
ATOM      1  N   UNL     1       2.460   5.734  19.715  0.00  0.00    +0.000 N 
ATOM      2  C   UNL     1       1.833   6.966  19.890  0.00  0.00    +0.000 A 
ATOM      3  O   UNL     1       1.083   7.228  20.827  0.00  0.00    +0.000 OA
ATOM      4  C   UNL     1       2.103   8.053  18.813  0.00  0.00    +0.000 A 
ATOM      5  N   UNL     1       1.412   9.253  18.911  0.00  0.00    +0.000 N 
ATOM      6  C   UNL     1       1.506  10.093  20.096  0.00  0.00    +0.000 C 
ATOM      7  C   UNL     1       0.113  10.304  20.677  0.00  0.00    +0.000 C 
ATOM      8  C   UNL     1      -0.856  10.875  19.629  0.00  0.00    +0.000 C 
ATOM      9  C   UNL     1      -0.826  10.006  18.353  0.00  0.00    +0.000 C 
ATOM     10  C   UNL     1       0.597   9.768  17.825  0.00  0.00    +0.000 C 
ATOM     11  N   UNL     1       2.955   7.847  17.848  0.00  0.00    +0.000 NA
ATOM     12  C   UNL     1       3.685   6.650  17.825  0.00  0.00    +0.000 A 
ATOM     13  C   UNL     1       4.746   6.563  16.915  0.00  0.00    +0.000 A 
ATOM     14  C   UNL     1       5.538   5.416  16.840  0.00  0.00    +0.000 A 
ATOM     15  C   UNL     1       5.243   4.324  17.646  0.00  0.00    +0.000 A 
ATOM     16  C   UNL     1       4.188   4.396  18.557  0.00  0.00    +0.000 A 
ATOM     17  C   UNL     1       3.431   5.573  18.690  0.00  0.00    +0.000 A 
ENDROOT
BRANCH   8  18
ATOM     18  C   UNL     1      -0.588  12.344  19.303  0.00  0.00    +0.000 C 
ATOM     19  O   UNL     1      -0.812  12.824  18.194  0.00  0.00    +0.000 OA
ATOM     20  N   UNL     1      -0.120  13.110  20.350  0.00  0.00    +0.000 N 
ATOM     21  H   UNL     1       0.009  12.667  21.252  0.00  0.00    +0.000 HD
BRANCH  20  22
ATOM     22  C   UNL     1       0.177  14.536  20.241  0.00  0.00    +0.000 C 
ATOM     23  C   UNL     1      -1.001  15.439  20.635  0.00  0.00    +0.000 C 
ATOM     24  C   UNL     1      -0.472  16.860  20.550  0.00  0.00    +0.000 C 
ATOM     25  S   UNL     1       1.175  16.769  21.230  0.00  0.00    +0.000 S 
ATOM     26  O   UNL     1       1.112  17.101  22.640  0.00  0.00    +0.000 OA
ATOM     27  O   UNL     1       2.075  17.453  20.323  0.00  0.00    +0.000 OA
ATOM     28  C   UNL     1       1.395  15.008  21.047  0.00  0.00    +0.000 C 
ENDBRANCH  20  22
ENDBRANCH   8  18
BRANCH   1  30
ATOM     29  C   UNL     1       1.117   3.805  20.450  0.00  0.00    +0.000 C 
ATOM     30  C   UNL     1       2.281   4.736  20.762  0.00  0.00    +0.000 C 
ENDBRANCH   1  30
TORSDOF 3
ENDMDL
