MODEL 1
REMARK VINA RESULT:      -7.6      0.000      0.000
REMARK  Name = 
REMARK  4 active torsions:
REMARK  status: ('A' for Active; 'I' for Inactive)
REMARK    1  A    between atoms: N_4  and  S_5
REMARK    2  A    between atoms: S_5  and  C_8
REMARK    3  A    between atoms: C_11  and  N_12
REMARK    4  A    between atoms: C_13  and  C_15
REMARK                            x       y       z     vdW  Elec       q    Type
REMARK                         _______ _______ _______ _____ _____    ______ ____
ROOT
ATOM      1  C   UNL     1       4.093   5.975  18.760  0.00  0.00    +0.000 A 
ATOM      2  C   UNL     1       3.127   5.924  19.761  0.00  0.00    +0.000 A 
ATOM      3  C   UNL     1       2.110   6.882  19.778  0.00  0.00    +0.000 A 
ATOM      4  C   UNL     1       2.045   7.900  18.817  0.00  0.00    +0.000 A 
ATOM      5  C   UNL     1       3.001   7.915  17.794  0.00  0.00    +0.000 A 
ATOM      6  C   UNL     1       4.031   6.962  17.770  0.00  0.00    +0.000 A 
ENDROOT
BRANCH   4   7
ATOM      7  N   UNL     1       1.050   8.911  18.838  0.00  0.00    +0.000 N 
ATOM      8  C   UNL     1       0.705   9.640  19.967  0.00  0.00    +0.000 C 
ATOM      9  O   UNL     1       1.246   9.561  21.065  0.00  0.00    +0.000 OA
ATOM     10  H   UNL     1       0.692   9.218  17.942  0.00  0.00    +0.000 HD
BRANCH   8  11
ATOM     11  C   UNL     1      -0.376  10.652  19.834  0.00  0.00    +0.000 A 
ATOM     12  C   UNL     1      -0.545  11.547  20.903  0.00  0.00    +0.000 A 
ATOM     13  C   UNL     1      -1.612  12.443  20.923  0.00  0.00    +0.000 A 
ATOM     14  C   UNL     1      -2.523  12.444  19.871  0.00  0.00    +0.000 A 
ATOM     15  C   UNL     1      -2.353  11.560  18.802  0.00  0.00    +0.000 A 
ATOM     16 CL   UNL     1      -3.506  11.556  17.523  0.00  0.00    +0.000 Cl
ATOM     17  C   UNL     1      -1.281  10.662  18.770  0.00  0.00    +0.000 A 
ENDBRANCH   8  11
ENDBRANCH   4   7
BRANCH   1  18
ATOM     18  S   UNL     1       5.405   4.771  18.695  0.00  0.00    +0.000 S 
ATOM     19  O   UNL     1       4.778   3.480  18.912  0.00  0.00    +0.000 OA
ATOM     20  O   UNL     1       6.416   5.249  19.617  0.00  0.00    +0.000 OA
BRANCH  18  24
ATOM     21  N   UNL     1       7.706   4.643  15.691  0.00  0.00    +0.000 N 
ATOM     22  C   UNL     1       7.222   4.548  16.954  0.00  0.00    +0.000 C 
ATOM     23  N   UNL     1       8.209   4.197  17.811  0.00  0.00    +0.000 N 
ATOM     24  N   UNL     1       5.987   4.822  17.182  0.00  0.00    +0.000 NA
ATOM     25  H   UNL     1       8.460   4.028  15.424  0.00  0.00    +0.000 HD
ATOM     26  H   UNL     1       6.989   4.730  14.980  0.00  0.00    +0.000 HD
ATOM     27  H   UNL     1       9.010   3.699  17.455  0.00  0.00    +0.000 HD
ATOM     28  H   UNL     1       7.937   3.900  18.745  0.00  0.00    +0.000 HD
ENDBRANCH  18  24
ENDBRANCH   1  18
TORSDOF 4
ENDMDL
MODEL 2
REMARK VINA RESULT:      -7.6      2.726      3.328
REMARK  Name = 
REMARK  4 active torsions:
REMARK  status: ('A' for Active; 'I' for Inactive)
REMARK    1  A    between atoms: N_4  and  S_5
REMARK    2  A    between atoms: S_5  and  C_8
REMARK    3  A    between atoms: C_11  and  N_12
REMARK    4  A    between atoms: C_13  and  C_15
REMARK                            x       y       z     vdW  Elec       q    Type
REMARK                         _______ _______ _______ _____ _____    ______ ____
ROOT
ATOM      1  C   UNL     1       2.517   5.209  18.744  0.00  0.00    +0.000 A 
ATOM      2  C   UNL     1       2.791   6.457  18.193  0.00  0.00    +0.000 A 
ATOM      3  C   UNL     1       2.420   7.609  18.891  0.00  0.00    +0.000 A 
ATOM      4  C   UNL     1       1.768   7.538  20.129  0.00  0.00    +0.000 A 
ATOM      5  C   UNL     1       1.534   6.276  20.689  0.00  0.00    +0.000 A 
ATOM      6  C   UNL     1       1.896   5.111  19.995  0.00  0.00    +0.000 A 
ENDROOT
BRANCH   4   7
ATOM      7  N   UNL     1       1.340   8.690  20.837  0.00  0.00    +0.000 N 
ATOM      8  C   UNL     1       0.520   9.674  20.300  0.00  0.00    +0.000 C 
ATOM      9  O   UNL     1       0.009   9.651  19.186  0.00  0.00    +0.000 OA
ATOM     10  H   UNL     1       1.516   8.705  21.834  0.00  0.00    +0.000 HD
BRANCH   8  11
ATOM     11  C   UNL     1       0.177  10.835  21.162  0.00  0.00    +0.000 A 
ATOM     12  C   UNL     1      -0.705  10.596  22.230  0.00  0.00    +0.000 A 
ATOM     13  C   UNL     1      -1.182  11.646  23.010  0.00  0.00    +0.000 A 
ATOM     14  C   UNL     1      -0.784  12.948  22.722  0.00  0.00    +0.000 A 
ATOM     15  C   UNL     1       0.099  13.188  21.666  0.00  0.00    +0.000 A 
ATOM     16 CL   UNL     1       0.559  14.808  21.307  0.00  0.00    +0.000 Cl
ATOM     17  C   UNL     1       0.590  12.139  20.881  0.00  0.00    +0.000 A 
ENDBRANCH   8  11
ENDBRANCH   4   7
BRANCH   1  18
ATOM     18  S   UNL     1       2.978   3.713  17.892  0.00  0.00    +0.000 S 
ATOM     19  O   UNL     1       4.107   4.061  17.049  0.00  0.00    +0.000 OA
ATOM     20  O   UNL     1       1.754   3.214  17.296  0.00  0.00    +0.000 OA
BRANCH  18  24
ATOM     21  N   UNL     1       5.077   1.900  20.470  0.00  0.00    +0.000 N 
ATOM     22  C   UNL     1       4.653   2.801  19.549  0.00  0.00    +0.000 C 
ATOM     23  N   UNL     1       5.628   3.703  19.288  0.00  0.00    +0.000 N 
ATOM     24  N   UNL     1       3.480   2.680  19.038  0.00  0.00    +0.000 NA
ATOM     25  H   UNL     1       5.726   2.214  21.176  0.00  0.00    +0.000 HD
ATOM     26  H   UNL     1       4.342   1.308  20.837  0.00  0.00    +0.000 HD
ATOM     27  H   UNL     1       6.334   3.873  19.988  0.00  0.00    +0.000 HD
ATOM     28  H   UNL     1       5.369   4.539  18.771  0.00  0.00    +0.000 HD
ENDBRANCH  18  24
ENDBRANCH   1  18
TORSDOF 4
ENDMDL
MODEL 3
REMARK VINA RESULT:      -7.5      3.005      3.751
REMARK  Name = 
REMARK  4 active torsions:
REMARK  status: ('A' for Active; 'I' for Inactive)
REMARK    1  A    between atoms: N_4  and  S_5
REMARK    2  A    between atoms: S_5  and  C_8
REMARK    3  A    between atoms: C_11  and  N_12
REMARK    4  A    between atoms: C_13  and  C_15
REMARK                            x       y       z     vdW  Elec       q    Type
REMARK                         _______ _______ _______ _____ _____    ______ ____
ROOT
ATOM      1  C   UNL     1       5.093   5.309  15.945  0.00  0.00    +0.000 A 
ATOM      2  C   UNL     1       5.296   6.671  16.138  0.00  0.00    +0.000 A 
ATOM      3  C   UNL     1       4.543   7.345  17.103  0.00  0.00    +0.000 A 
ATOM      4  C   UNL     1       3.578   6.682  17.874  0.00  0.00    +0.000 A 
ATOM      5  C   UNL     1       3.411   5.304  17.694  0.00  0.00    +0.000 A 
ATOM      6  C   UNL     1       4.158   4.617  16.724  0.00  0.00    +0.000 A 
ENDROOT
BRANCH   4   7
ATOM      7  N   UNL     1       2.767   7.350  18.827  0.00  0.00    +0.000 N 
ATOM      8  C   UNL     1       1.991   8.466  18.544  0.00  0.00    +0.000 C 
ATOM      9  O   UNL     1       1.849   8.978  17.439  0.00  0.00    +0.000 OA
ATOM     10  H   UNL     1       2.631   6.886  19.716  0.00  0.00    +0.000 HD
BRANCH   8  11
ATOM     11  C   UNL     1       1.213   9.068  19.657  0.00  0.00    +0.000 A 
ATOM     12  C   UNL     1       1.265   8.411  20.898  0.00  0.00    +0.000 A 
ATOM     13  C   UNL     1       0.467   8.828  21.961  0.00  0.00    +0.000 A 
ATOM     14  C   UNL     1      -0.394   9.907  21.787  0.00  0.00    +0.000 A 
ATOM     15  C   UNL     1      -0.442  10.567  20.557  0.00  0.00    +0.000 A 
ATOM     16 CL   UNL     1      -1.535  11.882  20.351  0.00  0.00    +0.000 Cl
ATOM     17  C   UNL     1       0.359  10.160  19.486  0.00  0.00    +0.000 A 
ENDBRANCH   8  11
ENDBRANCH   4   7
BRANCH   1  18
ATOM     18  S   UNL     1       6.036   4.408  14.730  0.00  0.00    +0.000 S 
ATOM     19  O   UNL     1       6.425   3.162  15.366  0.00  0.00    +0.000 OA
ATOM     20  O   UNL     1       7.051   5.331  14.264  0.00  0.00    +0.000 OA
BRANCH  18  24
ATOM     21  N   UNL     1       4.552   3.182  11.469  0.00  0.00    +0.000 N 
ATOM     22  C   UNL     1       5.408   3.406  12.496  0.00  0.00    +0.000 C 
ATOM     23  N   UNL     1       6.624   2.881  12.221  0.00  0.00    +0.000 N 
ATOM     24  N   UNL     1       5.009   4.078  13.518  0.00  0.00    +0.000 NA
ATOM     25  H   UNL     1       4.665   2.333  10.935  0.00  0.00    +0.000 HD
ATOM     26  H   UNL     1       3.584   3.394  11.684  0.00  0.00    +0.000 HD
ATOM     27  H   UNL     1       6.687   2.116  11.567  0.00  0.00    +0.000 HD
ATOM     28  H   UNL     1       7.289   2.807  12.987  0.00  0.00    +0.000 HD
ENDBRANCH  18  24
ENDBRANCH   1  18
TORSDOF 4
ENDMDL
MODEL 4
REMARK VINA RESULT:      -7.5      1.522      2.095
REMARK  Name = 
REMARK  4 active torsions:
REMARK  status: ('A' for Active; 'I' for Inactive)
REMARK    1  A    between atoms: N_4  and  S_5
REMARK    2  A    between atoms: S_5  and  C_8
REMARK    3  A    between atoms: C_11  and  N_12
REMARK    4  A    between atoms: C_13  and  C_15
REMARK                            x       y       z     vdW  Elec       q    Type
REMARK                         _______ _______ _______ _____ _____    ______ ____
ROOT
ATOM      1  C   UNL     1       3.951   5.835  18.315  0.00  0.00    +0.000 A 
ATOM      2  C   UNL     1       3.912   6.972  17.514  0.00  0.00    +0.000 A 
ATOM      3  C   UNL     1       3.025   8.003  17.833  0.00  0.00    +0.000 A 
ATOM      4  C   UNL     1       2.165   7.916  18.936  0.00  0.00    +0.000 A 
ATOM      5  C   UNL     1       2.242   6.783  19.755  0.00  0.00    +0.000 A 
ATOM      6  C   UNL     1       3.125   5.737  19.441  0.00  0.00    +0.000 A 
ENDROOT
BRANCH   4   7
ATOM      7  N   UNL     1       1.224   8.928  19.256  0.00  0.00    +0.000 N 
ATOM      8  C   UNL     1       0.899   9.308  20.550  0.00  0.00    +0.000 C 
ATOM      9  O   UNL     1       1.418   8.879  21.575  0.00  0.00    +0.000 OA
ATOM     10  H   UNL     1       0.896   9.505  18.490  0.00  0.00    +0.000 HD
BRANCH   8  11
ATOM     11  C   UNL     1      -0.126  10.371  20.723  0.00  0.00    +0.000 A 
ATOM     12  C   UNL     1      -0.905  10.692  19.598  0.00  0.00    +0.000 A 
ATOM     13  C   UNL     1      -1.798  11.761  19.631  0.00  0.00    +0.000 A 
ATOM     14  C   UNL     1      -1.914  12.521  20.791  0.00  0.00    +0.000 A 
ATOM     15  C   UNL     1      -1.146  12.198  21.912  0.00  0.00    +0.000 A 
ATOM     16 CL   UNL     1      -1.282  13.167  23.330  0.00  0.00    +0.000 Cl
ATOM     17  C   UNL     1      -0.252  11.124  21.893  0.00  0.00    +0.000 A 
ENDBRANCH   8  11
ENDBRANCH   4   7
BRANCH   1  18
ATOM     18  S   UNL     1       5.070   4.497  17.950  0.00  0.00    +0.000 S 
ATOM     19  O   UNL     1       4.243   3.315  17.784  0.00  0.00    +0.000 OA
ATOM     20  O   UNL     1       6.075   4.537  18.993  0.00  0.00    +0.000 OA
BRANCH  18  24
ATOM     21  N   UNL     1       7.589   5.079  15.184  0.00  0.00    +0.000 N 
ATOM     22  C   UNL     1       7.024   4.724  16.364  0.00  0.00    +0.000 C 
ATOM     23  N   UNL     1       7.971   4.299  17.232  0.00  0.00    +0.000 N 
ATOM     24  N   UNL     1       5.755   4.861  16.525  0.00  0.00    +0.000 NA
ATOM     25  H   UNL     1       8.412   4.579  14.883  0.00  0.00    +0.000 HD
ATOM     26  H   UNL     1       6.922   5.239  14.438  0.00  0.00    +0.000 HD
ATOM     27  H   UNL     1       8.837   3.933  16.867  0.00  0.00    +0.000 HD
ATOM     28  H   UNL     1       7.658   3.821  18.073  0.00  0.00    +0.000 HD
ENDBRANCH  18  24
ENDBRANCH   1  18
TORSDOF 4
ENDMDL
MODEL 5
REMARK VINA RESULT:      -7.5      2.907      3.525
REMARK  Name = 
REMARK  4 active torsions:
REMARK  status: ('A' for Active; 'I' for Inactive)
REMARK    1  A    between atoms: N_4  and  S_5
REMARK    2  A    between atoms: S_5  and  C_8
REMARK    3  A    between atoms: C_11  and  N_12
REMARK    4  A    between atoms: C_13  and  C_15
REMARK                            x       y       z     vdW  Elec       q    Type
REMARK                         _______ _______ _______ _____ _____    ______ ____
ROOT
ATOM      1  C   UNL     1       4.966   5.309  16.167  0.00  0.00    +0.000 A 
ATOM      2  C   UNL     1       4.069   4.596  16.955  0.00  0.00    +0.000 A 
ATOM      3  C   UNL     1       3.291   5.278  17.894  0.00  0.00    +0.000 A 
ATOM      4  C   UNL     1       3.402   6.664  18.069  0.00  0.00    +0.000 A 
ATOM      5  C   UNL     1       4.281   7.373  17.242  0.00  0.00    +0.000 A 
ATOM      6  C   UNL     1       5.072   6.698  16.299  0.00  0.00    +0.000 A 
ENDROOT
BRANCH   4   7
ATOM      7  N   UNL     1       2.658   7.375  19.046  0.00  0.00    +0.000 N 
ATOM      8  C   UNL     1       1.821   8.445  18.761  0.00  0.00    +0.000 C 
ATOM      9  O   UNL     1       1.561   8.874  17.642  0.00  0.00    +0.000 OA
ATOM     10  H   UNL     1       2.620   6.971  19.973  0.00  0.00    +0.000 HD
BRANCH   8  11
ATOM     11  C   UNL     1       1.127   9.102  19.899  0.00  0.00    +0.000 A 
ATOM     12  C   UNL     1       1.226   8.475  21.152  0.00  0.00    +0.000 A 
ATOM     13  C   UNL     1       0.503   8.947  22.245  0.00  0.00    +0.000 A 
ATOM     14  C   UNL     1      -0.331  10.051  22.089  0.00  0.00    +0.000 A 
ATOM     15  C   UNL     1      -0.425  10.681  20.846  0.00  0.00    +0.000 A 
ATOM     16 CL   UNL     1      -1.483  12.027  20.664  0.00  0.00    +0.000 Cl
ATOM     17  C   UNL     1       0.302  10.219  19.744  0.00  0.00    +0.000 A 
ENDBRANCH   8  11
ENDBRANCH   4   7
BRANCH   1  18
ATOM     18  S   UNL     1       5.974   4.481  14.952  0.00  0.00    +0.000 S 
ATOM     19  O   UNL     1       6.397   3.234  15.563  0.00  0.00    +0.000 OA
ATOM     20  O   UNL     1       6.962   5.457  14.537  0.00  0.00    +0.000 OA
BRANCH  18  24
ATOM     21  N   UNL     1       4.622   3.299  11.618  0.00  0.00    +0.000 N 
ATOM     22  C   UNL     1       5.443   3.528  12.673  0.00  0.00    +0.000 C 
ATOM     23  N   UNL     1       6.688   3.068  12.409  0.00  0.00    +0.000 N 
ATOM     24  N   UNL     1       4.991   4.146  13.706  0.00  0.00    +0.000 NA
ATOM     25  H   UNL     1       4.787   2.475  11.059  0.00  0.00    +0.000 HD
ATOM     26  H   UNL     1       3.642   3.459  11.817  0.00  0.00    +0.000 HD
ATOM     27  H   UNL     1       6.802   2.330  11.732  0.00  0.00    +0.000 HD
ATOM     28  H   UNL     1       7.339   2.999  13.188  0.00  0.00    +0.000 HD
ENDBRANCH  18  24
ENDBRANCH   1  18
TORSDOF 4
ENDMDL
MODEL 6
REMARK VINA RESULT:      -7.5      1.881      2.534
REMARK  Name = 
REMARK  4 active torsions:
REMARK  status: ('A' for Active; 'I' for Inactive)
REMARK    1  A    between atoms: N_4  and  S_5
REMARK    2  A    between atoms: S_5  and  C_8
REMARK    3  A    between atoms: C_11  and  N_12
REMARK    4  A    between atoms: C_13  and  C_15
REMARK                            x       y       z     vdW  Elec       q    Type
REMARK                         _______ _______ _______ _____ _____    ______ ____
ROOT
ATOM      1  C   UNL     1       4.041   5.850  18.337  0.00  0.00    +0.000 A 
ATOM      2  C   UNL     1       3.957   6.961  17.504  0.00  0.00    +0.000 A 
ATOM      3  C   UNL     1       3.045   7.975  17.806  0.00  0.00    +0.000 A 
ATOM      4  C   UNL     1       2.203   7.895  18.924  0.00  0.00    +0.000 A 
ATOM      5  C   UNL     1       2.326   6.789  19.774  0.00  0.00    +0.000 A 
ATOM      6  C   UNL     1       3.234   5.761  19.478  0.00  0.00    +0.000 A 
ENDROOT
BRANCH   4   7
ATOM      7  N   UNL     1       1.237   8.888  19.228  0.00  0.00    +0.000 N 
ATOM      8  C   UNL     1       0.920   9.298  20.516  0.00  0.00    +0.000 C 
ATOM      9  O   UNL     1       1.467   8.915  21.545  0.00  0.00    +0.000 OA
ATOM     10  H   UNL     1       0.881   9.432  18.451  0.00  0.00    +0.000 HD
BRANCH   8  11
ATOM     11  C   UNL     1      -0.133  10.334  20.673  0.00  0.00    +0.000 A 
ATOM     12  C   UNL     1      -0.868  10.674  19.524  0.00  0.00    +0.000 A 
ATOM     13  C   UNL     1      -1.784  11.723  19.547  0.00  0.00    +0.000 A 
ATOM     14  C   UNL     1      -1.967  12.445  20.723  0.00  0.00    +0.000 A 
ATOM     15  C   UNL     1      -1.244  12.105  21.868  0.00  0.00    +0.000 A 
ATOM     16 CL   UNL     1      -1.463  13.027  23.305  0.00  0.00    +0.000 Cl
ATOM     17  C   UNL     1      -0.327  11.049  21.857  0.00  0.00    +0.000 A 
ENDBRANCH   8  11
ENDBRANCH   4   7
BRANCH   1  18
ATOM     18  S   UNL     1       5.194   4.535  17.994  0.00  0.00    +0.000 S 
ATOM     19  O   UNL     1       5.814   4.865  16.723  0.00  0.00    +0.000 OA
ATOM     20  O   UNL     1       4.435   3.308  18.134  0.00  0.00    +0.000 OA
BRANCH  18  24
ATOM     21  N   UNL     1       8.194   5.534  20.077  0.00  0.00    +0.000 N 
ATOM     22  C   UNL     1       7.231   5.515  19.123  0.00  0.00    +0.000 C 
ATOM     23  N   UNL     1       7.445   6.499  18.218  0.00  0.00    +0.000 N 
ATOM     24  N   UNL     1       6.319   4.609  19.160  0.00  0.00    +0.000 NA
ATOM     25  H   UNL     1       8.592   6.425  20.333  0.00  0.00    +0.000 HD
ATOM     26  H   UNL     1       7.997   4.940  20.874  0.00  0.00    +0.000 HD
ATOM     27  H   UNL     1       7.973   7.311  18.498  0.00  0.00    +0.000 HD
ATOM     28  H   UNL     1       6.690   6.716  17.572  0.00  0.00    +0.000 HD
ENDBRANCH  18  24
ENDBRANCH   1  18
TORSDOF 4
ENDMDL
MODEL 7
REMARK VINA RESULT:      -7.4      1.799      2.058
REMARK  Name = 
REMARK  4 active torsions:
REMARK  status: ('A' for Active; 'I' for Inactive)
REMARK    1  A    between atoms: N_4  and  S_5
REMARK    2  A    between atoms: S_5  and  C_8
REMARK    3  A    between atoms: C_11  and  N_12
REMARK    4  A    between atoms: C_13  and  C_15
REMARK                            x       y       z     vdW  Elec       q    Type
REMARK                         _______ _______ _______ _____ _____    ______ ____
ROOT
ATOM      1  C   UNL     1       3.169   6.467  18.764  0.00  0.00    +0.000 A 
ATOM      2  C   UNL     1       2.538   6.278  19.989  0.00  0.00    +0.000 A 
ATOM      3  C   UNL     1       1.672   7.263  20.471  0.00  0.00    +0.000 A 
ATOM      4  C   UNL     1       1.432   8.443  19.754  0.00  0.00    +0.000 A 
ATOM      5  C   UNL     1       2.045   8.602  18.505  0.00  0.00    +0.000 A 
ATOM      6  C   UNL     1       2.922   7.622  18.013  0.00  0.00    +0.000 A 
ENDROOT
BRANCH   4   7
ATOM      7  N   UNL     1       0.594   9.479  20.241  0.00  0.00    +0.000 N 
ATOM      8  C   UNL     1       0.694  10.028  21.511  0.00  0.00    +0.000 C 
ATOM      9  O   UNL     1       1.545   9.749  22.348  0.00  0.00    +0.000 OA
ATOM     10  H   UNL     1       0.001   9.943  19.563  0.00  0.00    +0.000 HD
BRANCH   8  11
ATOM     11  C   UNL     1      -0.274  11.093  21.882  0.00  0.00    +0.000 A 
ATOM     12  C   UNL     1      -1.118  10.834  22.976  0.00  0.00    +0.000 A 
ATOM     13  C   UNL     1      -2.140  11.717  23.314  0.00  0.00    +0.000 A 
ATOM     14  C   UNL     1      -2.330  12.868  22.553  0.00  0.00    +0.000 A 
ATOM     15  C   UNL     1      -1.488  13.132  21.471  0.00  0.00    +0.000 A 
ATOM     16 CL   UNL     1      -1.754  14.546  20.524  0.00  0.00    +0.000 Cl
ATOM     17  C   UNL     1      -0.454  12.255  21.127  0.00  0.00    +0.000 A 
ENDBRANCH   8  11
ENDBRANCH   4   7
BRANCH   1  18
ATOM     18  S   UNL     1       4.277   5.235  18.107  0.00  0.00    +0.000 S 
ATOM     19  O   UNL     1       3.495   4.449  17.169  0.00  0.00    +0.000 OA
ATOM     20  O   UNL     1       4.877   4.597  19.263  0.00  0.00    +0.000 OA
BRANCH  18  24
ATOM     21  N   UNL     1       7.386   6.119  16.135  0.00  0.00    +0.000 N 
ATOM     22  C   UNL     1       6.416   5.420  16.775  0.00  0.00    +0.000 C 
ATOM     23  N   UNL     1       6.719   4.101  16.795  0.00  0.00    +0.000 N 
ATOM     24  N   UNL     1       5.417   6.047  17.287  0.00  0.00    +0.000 NA
ATOM     25  H   UNL     1       7.875   5.665  15.378  0.00  0.00    +0.000 HD
ATOM     26  H   UNL     1       7.137   7.080  15.933  0.00  0.00    +0.000 HD
ATOM     27  H   UNL     1       7.331   3.731  16.083  0.00  0.00    +0.000 HD
ATOM     28  H   UNL     1       5.984   3.454  17.066  0.00  0.00    +0.000 HD
ENDBRANCH  18  24
ENDBRANCH   1  18
TORSDOF 4
ENDMDL
MODEL 8
REMARK VINA RESULT:      -7.4      2.188      2.645
REMARK  Name = 
REMARK  4 active torsions:
REMARK  status: ('A' for Active; 'I' for Inactive)
REMARK    1  A    between atoms: N_4  and  S_5
REMARK    2  A    between atoms: S_5  and  C_8
REMARK    3  A    between atoms: C_11  and  N_12
REMARK    4  A    between atoms: C_13  and  C_15
REMARK                            x       y       z     vdW  Elec       q    Type
REMARK                         _______ _______ _______ _____ _____    ______ ____
ROOT
ATOM      1  C   UNL     1       3.013   4.964  18.530  0.00  0.00    +0.000 A 
ATOM      2  C   UNL     1       3.126   6.267  18.056  0.00  0.00    +0.000 A 
ATOM      3  C   UNL     1       2.597   7.316  18.811  0.00  0.00    +0.000 A 
ATOM      4  C   UNL     1       1.944   7.087  20.030  0.00  0.00    +0.000 A 
ATOM      5  C   UNL     1       1.872   5.774  20.511  0.00  0.00    +0.000 A 
ATOM      6  C   UNL     1       2.395   4.710  19.759  0.00  0.00    +0.000 A 
ENDROOT
BRANCH   4   7
ATOM      7  N   UNL     1       1.357   8.129  20.793  0.00  0.00    +0.000 N 
ATOM      8  C   UNL     1       0.854   9.303  20.250  0.00  0.00    +0.000 C 
ATOM      9  O   UNL     1       0.786   9.569  19.055  0.00  0.00    +0.000 OA
ATOM     10  H   UNL     1       1.156   7.925  21.764  0.00  0.00    +0.000 HD
BRANCH   8  11
ATOM     11  C   UNL     1       0.290  10.311  21.185  0.00  0.00    +0.000 A 
ATOM     12  C   UNL     1      -0.416   9.823  22.298  0.00  0.00    +0.000 A 
ATOM     13  C   UNL     1      -1.087  10.692  23.155  0.00  0.00    +0.000 A 
ATOM     14  C   UNL     1      -1.061  12.060  22.900  0.00  0.00    +0.000 A 
ATOM     15  C   UNL     1      -0.354  12.548  21.800  0.00  0.00    +0.000 A 
ATOM     16 CL   UNL     1      -0.356  14.241  21.484  0.00  0.00    +0.000 Cl
ATOM     17  C   UNL     1       0.329  11.685  20.937  0.00  0.00    +0.000 A 
ENDBRANCH   8  11
ENDBRANCH   4   7
BRANCH   1  18
ATOM     18  S   UNL     1       3.679   3.594  17.604  0.00  0.00    +0.000 S 
ATOM     19  O   UNL     1       2.630   3.177  16.692  0.00  0.00    +0.000 OA
ATOM     20  O   UNL     1       4.189   2.667  18.595  0.00  0.00    +0.000 OA
BRANCH  18  24
ATOM     21  N   UNL     1       7.070   4.927  16.572  0.00  0.00    +0.000 N 
ATOM     22  C   UNL     1       6.061   4.379  17.294  0.00  0.00    +0.000 C 
ATOM     23  N   UNL     1       6.462   4.148  18.565  0.00  0.00    +0.000 N 
ATOM     24  N   UNL     1       4.915   4.194  16.741  0.00  0.00    +0.000 NA
ATOM     25  H   UNL     1       8.016   4.660  16.801  0.00  0.00    +0.000 HD
ATOM     26  H   UNL     1       6.893   4.962  15.575  0.00  0.00    +0.000 HD
ATOM     27  H   UNL     1       7.445   4.025  18.752  0.00  0.00    +0.000 HD
ATOM     28  H   UNL     1       5.868   3.561  19.146  0.00  0.00    +0.000 HD
ENDBRANCH  18  24
ENDBRANCH   1  18
TORSDOF 4
ENDMDL
MODEL 9
REMARK VINA RESULT:      -7.4      5.076      9.819
REMARK  Name = 
REMARK  4 active torsions:
REMARK  status: ('A' for Active; 'I' for Inactive)
REMARK    1  A    between atoms: N_4  and  S_5
REMARK    2  A    between atoms: S_5  and  C_8
REMARK    3  A    between atoms: C_11  and  N_12
REMARK    4  A    between atoms: C_13  and  C_15
REMARK                            x       y       z     vdW  Elec       q    Type
REMARK                         _______ _______ _______ _____ _____    ______ ____
ROOT
ATOM      1  C   UNL     1      -1.100  11.292  22.134  0.00  0.00    +0.000 A 
ATOM      2  C   UNL     1      -0.830  11.183  20.774  0.00  0.00    +0.000 A 
ATOM      3  C   UNL     1      -0.078  10.101  20.310  0.00  0.00    +0.000 A 
ATOM      4  C   UNL     1       0.422   9.127  21.185  0.00  0.00    +0.000 A 
ATOM      5  C   UNL     1       0.109   9.229  22.546  0.00  0.00    +0.000 A 
ATOM      6  C   UNL     1      -0.641  10.315  23.025  0.00  0.00    +0.000 A 
ENDROOT
BRANCH   4   7
ATOM      7  N   UNL     1       1.226   8.044  20.747  0.00  0.00    +0.000 N 
ATOM      8  C   UNL     1       1.869   7.999  19.517  0.00  0.00    +0.000 C 
ATOM      9  O   UNL     1       1.885   8.898  18.683  0.00  0.00    +0.000 OA
ATOM     10  H   UNL     1       1.467   7.345  21.439  0.00  0.00    +0.000 HD
BRANCH   8  11
ATOM     11  C   UNL     1       2.659   6.782  19.194  0.00  0.00    +0.000 A 
ATOM     12  C   UNL     1       3.379   6.793  17.987  0.00  0.00    +0.000 A 
ATOM     13  C   UNL     1       4.041   5.651  17.541  0.00  0.00    +0.000 A 
ATOM     14  C   UNL     1       3.983   4.486  18.300  0.00  0.00    +0.000 A 
ATOM     15  C   UNL     1       3.274   4.475  19.504  0.00  0.00    +0.000 A 
ATOM     16 CL   UNL     1       3.189   3.016  20.415  0.00  0.00    +0.000 Cl
ATOM     17  C   UNL     1       2.611   5.617  19.964  0.00  0.00    +0.000 A 
ENDBRANCH   8  11
ENDBRANCH   4   7
BRANCH   1  18
ATOM     18  S   UNL     1      -2.061  12.651  22.770  0.00  0.00    +0.000 S 
ATOM     19  O   UNL     1      -2.515  13.400  21.611  0.00  0.00    +0.000 OA
ATOM     20  O   UNL     1      -1.219  13.291  23.761  0.00  0.00    +0.000 OA
BRANCH  18  24
ATOM     21  N   UNL     1      -5.069  12.084  24.998  0.00  0.00    +0.000 N 
ATOM     22  C   UNL     1      -4.026  12.668  24.358  0.00  0.00    +0.000 C 
ATOM     23  N   UNL     1      -3.851  13.935  24.799  0.00  0.00    +0.000 N 
ATOM     24  N   UNL     1      -3.348  11.989  23.501  0.00  0.00    +0.000 NA
ATOM     25  H   UNL     1      -5.842  12.670  25.278  0.00  0.00    +0.000 HD
ATOM     26  H   UNL     1      -5.361  11.202  24.593  0.00  0.00    +0.000 HD
ATOM     27  H   UNL     1      -4.638  14.424  25.198  0.00  0.00    +0.000 HD
ATOM     28  H   UNL     1      -3.236  14.540  24.260  0.00  0.00    +0.000 HD
ENDBRANCH  18  24
ENDBRANCH   1  18
TORSDOF 4
ENDMDL
