MODEL 1
REMARK VINA RESULT:      -7.8      0.000      0.000
REMARK  Name = 
REMARK  6 active torsions:
REMARK  status: ('A' for Active; 'I' for Inactive)
REMARK    1  A    between atoms: C_2  and  N_3
REMARK    2  A    between atoms: C_2  and  C_21
REMARK    3  A    between atoms: C_4  and  SE_13
REMARK    4  A    between atoms: C_6  and  C_8
REMARK    5  A    between atoms: SE_13  and  C_14
REMARK    6  A    between atoms: C_14  and  C_15
REMARK                            x       y       z     vdW  Elec       q    Type
REMARK                         _______ _______ _______ _____ _____    ______ ____
ROOT
ATOM      1  N   UNL     1       5.780   5.663  16.535  0.00  0.00    +0.000 NA
ATOM      2  C   UNL     1       4.659   5.138  16.933  0.00  0.00    +0.000 C 
ATOM      3  N   UNL     1       3.622   5.993  17.437  0.00  0.00    +0.000 N 
ATOM      4  C   UNL     1       3.749   7.348  17.602  0.00  0.00    +0.000 C 
ATOM      5  O   UNL     1       4.803   7.916  17.347  0.00  0.00    +0.000 OA
ATOM      6  H   UNL     1       2.727   5.557  17.696  0.00  0.00    +0.000 HD
ENDROOT
BRANCH   4   7
ATOM      7  C   UNL     1       2.619   8.164  18.094  0.00  0.00    +0.000 A 
ATOM      8  C   UNL     1       2.058   8.111  19.352  0.00  0.00    +0.000 A 
ATOM      9  C   UNL     1       1.064   9.062  19.327  0.00  0.00    +0.000 A 
ATOM     10  N   UNL     1       1.048   9.639  18.108  0.00  0.00    +0.000 NA
ATOM     11  O   UNL     1       1.985   9.080  17.397  0.00  0.00    +0.000 OA
ENDBRANCH   4   7
BRANCH   1  13
ATOM     12  O   UNL     1       7.780   4.512  16.739  0.00  0.00    +0.000 OA
ATOM     13  C   UNL     1       6.935   5.006  16.010  0.00  0.00    +0.000 C 
BRANCH  13  14
ATOM     14  C   UNL     1       7.099   4.881  14.551  0.00  0.00    +0.000 A 
ATOM     15  C   UNL     1       6.468   3.986  13.714  0.00  0.00    +0.000 A 
ATOM     16  C   UNL     1       6.969   4.276  12.465  0.00  0.00    +0.000 A 
ATOM     17  N   UNL     1       7.847   5.293  12.573  0.00  0.00    +0.000 NA
ATOM     18  O   UNL     1       7.899   5.631  13.830  0.00  0.00    +0.000 OA
ENDBRANCH  13  14
ENDBRANCH   1  13
BRANCH   2  19
ATOM     19 SE   UNL     1       4.387   3.197  16.957  0.00  0.00    +0.000 Se
BRANCH  19  20
ATOM     20  C   UNL     1       2.467   3.094  17.345  0.00  0.00    +0.000 C 
BRANCH  20  21
ATOM     21  C   UNL     1       2.284   3.125  18.846  0.00  0.00    +0.000 A 
ATOM     22  C   UNL     1       1.160   3.747  19.422  0.00  0.00    +0.000 A 
ATOM     23  C   UNL     1       1.011   3.796  20.814  0.00  0.00    +0.000 A 
ATOM     24  C   UNL     1       1.977   3.221  21.643  0.00  0.00    +0.000 A 
ATOM     25  C   UNL     1       3.091   2.592  21.083  0.00  0.00    +0.000 A 
ATOM     26  C   UNL     1       3.247   2.544  19.692  0.00  0.00    +0.000 A 
ENDBRANCH  20  21
ENDBRANCH  19  20
ENDBRANCH   2  19
TORSDOF 6
ENDMDL
MODEL 2
REMARK VINA RESULT:      -7.7      2.531      6.598
REMARK  Name = 
REMARK  6 active torsions:
REMARK  status: ('A' for Active; 'I' for Inactive)
REMARK    1  A    between atoms: C_2  and  N_3
REMARK    2  A    between atoms: C_2  and  C_21
REMARK    3  A    between atoms: C_4  and  SE_13
REMARK    4  A    between atoms: C_6  and  C_8
REMARK    5  A    between atoms: SE_13  and  C_14
REMARK    6  A    between atoms: C_14  and  C_15
REMARK                            x       y       z     vdW  Elec       q    Type
REMARK                         _______ _______ _______ _____ _____    ______ ____
ROOT
ATOM      1  N   UNL     1       4.700   3.440  17.917  0.00  0.00    +0.000 NA
ATOM      2  C   UNL     1       4.898   4.693  17.632  0.00  0.00    +0.000 C 
ATOM      3  N   UNL     1       5.580   5.039  16.417  0.00  0.00    +0.000 N 
ATOM      4  C   UNL     1       6.116   4.128  15.545  0.00  0.00    +0.000 C 
ATOM      5  O   UNL     1       6.065   2.927  15.779  0.00  0.00    +0.000 OA
ATOM      6  H   UNL     1       5.678   6.038  16.191  0.00  0.00    +0.000 HD
ENDROOT
BRANCH   4   7
ATOM      7  C   UNL     1       6.772   4.565  14.295  0.00  0.00    +0.000 A 
ATOM      8  C   UNL     1       6.558   4.050  13.034  0.00  0.00    +0.000 A 
ATOM      9  C   UNL     1       7.378   4.791  12.214  0.00  0.00    +0.000 A 
ATOM     10  N   UNL     1       8.040   5.693  12.966  0.00  0.00    +0.000 NA
ATOM     11  O   UNL     1       7.657   5.532  14.201  0.00  0.00    +0.000 OA
ENDBRANCH   4   7
BRANCH   1  13
ATOM     12  O   UNL     1       4.692   2.466  20.018  0.00  0.00    +0.000 OA
ATOM     13  C   UNL     1       4.056   2.877  19.061  0.00  0.00    +0.000 C 
BRANCH  13  14
ATOM     14  C   UNL     1       2.585   2.824  19.113  0.00  0.00    +0.000 A 
ATOM     15  C   UNL     1       1.762   3.400  20.057  0.00  0.00    +0.000 A 
ATOM     16  C   UNL     1       0.491   3.051  19.659  0.00  0.00    +0.000 A 
ATOM     17  N   UNL     1       0.573   2.309  18.537  0.00  0.00    +0.000 NA
ATOM     18  O   UNL     1       1.835   2.195  18.237  0.00  0.00    +0.000 OA
ENDBRANCH  13  14
ENDBRANCH   1  13
BRANCH   2  19
ATOM     19 SE   UNL     1       4.378   6.121  18.870  0.00  0.00    +0.000 Se
BRANCH  19  20
ATOM     20  C   UNL     1       3.240   7.223  17.713  0.00  0.00    +0.000 C 
BRANCH  20  21
ATOM     21  C   UNL     1       2.292   8.010  18.590  0.00  0.00    +0.000 A 
ATOM     22  C   UNL     1       1.619   9.140  18.090  0.00  0.00    +0.000 A 
ATOM     23  C   UNL     1       0.764   9.881  18.916  0.00  0.00    +0.000 A 
ATOM     24  C   UNL     1       0.567   9.498  20.244  0.00  0.00    +0.000 A 
ATOM     25  C   UNL     1       1.222   8.371  20.749  0.00  0.00    +0.000 A 
ATOM     26  C   UNL     1       2.081   7.631  19.928  0.00  0.00    +0.000 A 
ENDBRANCH  20  21
ENDBRANCH  19  20
ENDBRANCH   2  19
TORSDOF 6
ENDMDL
MODEL 3
REMARK VINA RESULT:      -7.6      2.525      6.968
REMARK  Name = 
REMARK  6 active torsions:
REMARK  status: ('A' for Active; 'I' for Inactive)
REMARK    1  A    between atoms: C_2  and  N_3
REMARK    2  A    between atoms: C_2  and  C_21
REMARK    3  A    between atoms: C_4  and  SE_13
REMARK    4  A    between atoms: C_6  and  C_8
REMARK    5  A    between atoms: SE_13  and  C_14
REMARK    6  A    between atoms: C_14  and  C_15
REMARK                            x       y       z     vdW  Elec       q    Type
REMARK                         _______ _______ _______ _____ _____    ______ ____
ROOT
ATOM      1  N   UNL     1       3.046   3.891  17.549  0.00  0.00    +0.000 NA
ATOM      2  C   UNL     1       3.671   5.030  17.598  0.00  0.00    +0.000 C 
ATOM      3  N   UNL     1       4.750   5.278  16.684  0.00  0.00    +0.000 N 
ATOM      4  C   UNL     1       5.231   4.360  15.788  0.00  0.00    +0.000 C 
ATOM      5  O   UNL     1       4.769   3.228  15.738  0.00  0.00    +0.000 OA
ATOM      6  H   UNL     1       5.194   6.207  16.710  0.00  0.00    +0.000 HD
ENDROOT
BRANCH   4   7
ATOM      7  C   UNL     1       6.324   4.709  14.854  0.00  0.00    +0.000 A 
ATOM      8  C   UNL     1       6.475   4.248  13.563  0.00  0.00    +0.000 A 
ATOM      9  C   UNL     1       7.617   4.865  13.108  0.00  0.00    +0.000 A 
ATOM     10  N   UNL     1       8.108   5.646  14.092  0.00  0.00    +0.000 NA
ATOM     11  O   UNL     1       7.315   5.529  15.118  0.00  0.00    +0.000 OA
ENDBRANCH   4   7
BRANCH   1  13
ATOM     12  O   UNL     1       0.837   3.290  17.904  0.00  0.00    +0.000 OA
ATOM     13  C   UNL     1       1.960   3.436  18.358  0.00  0.00    +0.000 C 
BRANCH  13  14
ATOM     14  C   UNL     1       2.201   3.093  19.771  0.00  0.00    +0.000 A 
ATOM     15  C   UNL     1       1.330   3.246  20.827  0.00  0.00    +0.000 A 
ATOM     16  C   UNL     1       2.034   2.789  21.919  0.00  0.00    +0.000 A 
ATOM     17  N   UNL     1       3.255   2.389  21.514  0.00  0.00    +0.000 NA
ATOM     18  O   UNL     1       3.321   2.582  20.227  0.00  0.00    +0.000 OA
ENDBRANCH  13  14
ENDBRANCH   1  13
BRANCH   2  19
ATOM     19 SE   UNL     1       3.246   6.377  18.957  0.00  0.00    +0.000 Se
BRANCH  19  20
ATOM     20  C   UNL     1       2.591   7.846  17.834  0.00  0.00    +0.000 C 
BRANCH  20  21
ATOM     21  C   UNL     1       1.663   8.703  18.666  0.00  0.00    +0.000 A 
ATOM     22  C   UNL     1       1.470   8.436  20.034  0.00  0.00    +0.000 A 
ATOM     23  C   UNL     1       0.588   9.216  20.792  0.00  0.00    +0.000 A 
ATOM     24  C   UNL     1      -0.104  10.273  20.195  0.00  0.00    +0.000 A 
ATOM     25  C   UNL     1       0.087  10.554  18.839  0.00  0.00    +0.000 A 
ATOM     26  C   UNL     1       0.965   9.773  18.077  0.00  0.00    +0.000 A 
ENDBRANCH  20  21
ENDBRANCH  19  20
ENDBRANCH   2  19
TORSDOF 6
ENDMDL
MODEL 4
REMARK VINA RESULT:      -7.6      2.551      4.867
REMARK  Name = 
REMARK  6 active torsions:
REMARK  status: ('A' for Active; 'I' for Inactive)
REMARK    1  A    between atoms: C_2  and  N_3
REMARK    2  A    between atoms: C_2  and  C_21
REMARK    3  A    between atoms: C_4  and  SE_13
REMARK    4  A    between atoms: C_6  and  C_8
REMARK    5  A    between atoms: SE_13  and  C_14
REMARK    6  A    between atoms: C_14  and  C_15
REMARK                            x       y       z     vdW  Elec       q    Type
REMARK                         _______ _______ _______ _____ _____    ______ ____
ROOT
ATOM      1  N   UNL     1       5.903   4.964  18.138  0.00  0.00    +0.000 NA
ATOM      2  C   UNL     1       4.779   5.582  18.351  0.00  0.00    +0.000 C 
ATOM      3  N   UNL     1       3.787   4.970  19.188  0.00  0.00    +0.000 N 
ATOM      4  C   UNL     1       3.905   3.721  19.740  0.00  0.00    +0.000 C 
ATOM      5  O   UNL     1       4.886   3.024  19.515  0.00  0.00    +0.000 OA
ATOM      6  H   UNL     1       2.928   5.504  19.381  0.00  0.00    +0.000 HD
ENDROOT
BRANCH   4   7
ATOM      7  C   UNL     1       2.851   3.177  20.623  0.00  0.00    +0.000 A 
ATOM      8  C   UNL     1       1.490   3.250  20.415  0.00  0.00    +0.000 A 
ATOM      9  C   UNL     1       0.941   2.591  21.490  0.00  0.00    +0.000 A 
ATOM     10  N   UNL     1       1.938   2.156  22.287  0.00  0.00    +0.000 NA
ATOM     11  O   UNL     1       3.063   2.523  21.743  0.00  0.00    +0.000 OA
ENDBRANCH   4   7
BRANCH   1  13
ATOM     12  O   UNL     1       7.981   5.940  17.835  0.00  0.00    +0.000 OA
ATOM     13  C   UNL     1       7.014   5.381  17.343  0.00  0.00    +0.000 C 
BRANCH  13  14
ATOM     14  C   UNL     1       7.019   5.100  15.897  0.00  0.00    +0.000 A 
ATOM     15  C   UNL     1       6.271   4.155  15.229  0.00  0.00    +0.000 A 
ATOM     16  C   UNL     1       6.648   4.291  13.912  0.00  0.00    +0.000 A 
ATOM     17  N   UNL     1       7.570   5.269  13.821  0.00  0.00    +0.000 NA
ATOM     18  O   UNL     1       7.767   5.732  15.023  0.00  0.00    +0.000 OA
ENDBRANCH  13  14
ENDBRANCH   1  13
BRANCH   2  19
ATOM     19 SE   UNL     1       4.364   7.284  17.472  0.00  0.00    +0.000 Se
BRANCH  19  20
ATOM     20  C   UNL     1       2.403   7.236  17.474  0.00  0.00    +0.000 C 
BRANCH  20  21
ATOM     21  C   UNL     1       1.904   8.258  18.471  0.00  0.00    +0.000 A 
ATOM     22  C   UNL     1       1.766   7.929  19.832  0.00  0.00    +0.000 A 
ATOM     23  C   UNL     1       1.276   8.872  20.745  0.00  0.00    +0.000 A 
ATOM     24  C   UNL     1       0.926  10.152  20.310  0.00  0.00    +0.000 A 
ATOM     25  C   UNL     1       1.068  10.494  18.962  0.00  0.00    +0.000 A 
ATOM     26  C   UNL     1       1.553   9.553  18.046  0.00  0.00    +0.000 A 
ENDBRANCH  20  21
ENDBRANCH  19  20
ENDBRANCH   2  19
TORSDOF 6
ENDMDL
MODEL 5
REMARK VINA RESULT:      -7.6      0.479      1.134
REMARK  Name = 
REMARK  6 active torsions:
REMARK  status: ('A' for Active; 'I' for Inactive)
REMARK    1  A    between atoms: C_2  and  N_3
REMARK    2  A    between atoms: C_2  and  C_21
REMARK    3  A    between atoms: C_4  and  SE_13
REMARK    4  A    between atoms: C_6  and  C_8
REMARK    5  A    between atoms: SE_13  and  C_14
REMARK    6  A    between atoms: C_14  and  C_15
REMARK                            x       y       z     vdW  Elec       q    Type
REMARK                         _______ _______ _______ _____ _____    ______ ____
ROOT
ATOM      1  N   UNL     1       5.765   5.587  16.411  0.00  0.00    +0.000 NA
ATOM      2  C   UNL     1       4.683   5.078  16.922  0.00  0.00    +0.000 C 
ATOM      3  N   UNL     1       3.675   5.954  17.448  0.00  0.00    +0.000 N 
ATOM      4  C   UNL     1       3.794   7.317  17.518  0.00  0.00    +0.000 C 
ATOM      5  O   UNL     1       4.818   7.879  17.151  0.00  0.00    +0.000 OA
ATOM      6  H   UNL     1       2.807   5.527  17.799  0.00  0.00    +0.000 HD
ENDROOT
BRANCH   4   7
ATOM      7  C   UNL     1       2.692   8.152  18.041  0.00  0.00    +0.000 A 
ATOM      8  C   UNL     1       2.085   8.029  19.273  0.00  0.00    +0.000 A 
ATOM      9  C   UNL     1       1.144   9.032  19.296  0.00  0.00    +0.000 A 
ATOM     10  N   UNL     1       1.201   9.705  18.129  0.00  0.00    +0.000 NA
ATOM     11  O   UNL     1       2.132   9.155  17.403  0.00  0.00    +0.000 OA
ENDBRANCH   4   7
BRANCH   1  13
ATOM     12  O   UNL     1       7.796   4.481  16.536  0.00  0.00    +0.000 OA
ATOM     13  C   UNL     1       6.887   4.910  15.844  0.00  0.00    +0.000 C 
BRANCH  13  14
ATOM     14  C   UNL     1       6.938   4.682  14.389  0.00  0.00    +0.000 A 
ATOM     15  C   UNL     1       6.223   3.753  13.664  0.00  0.00    +0.000 A 
ATOM     16  C   UNL     1       6.637   3.943  12.365  0.00  0.00    +0.000 A 
ATOM     17  N   UNL     1       7.548   4.936  12.338  0.00  0.00    +0.000 NA
ATOM     18  O   UNL     1       7.703   5.356  13.561  0.00  0.00    +0.000 OA
ENDBRANCH  13  14
ENDBRANCH   1  13
BRANCH   2  19
ATOM     19 SE   UNL     1       4.441   3.140  17.087  0.00  0.00    +0.000 Se
BRANCH  19  20
ATOM     20  C   UNL     1       4.636   2.904  19.025  0.00  0.00    +0.000 C 
BRANCH  20  21
ATOM     21  C   UNL     1       3.258   2.930  19.648  0.00  0.00    +0.000 A 
ATOM     22  C   UNL     1       3.100   2.926  21.046  0.00  0.00    +0.000 A 
ATOM     23  C   UNL     1       1.821   2.921  21.616  0.00  0.00    +0.000 A 
ATOM     24  C   UNL     1       0.689   2.928  20.797  0.00  0.00    +0.000 A 
ATOM     25  C   UNL     1       0.833   2.942  19.408  0.00  0.00    +0.000 A 
ATOM     26  C   UNL     1       2.111   2.942  18.834  0.00  0.00    +0.000 A 
ENDBRANCH  20  21
ENDBRANCH  19  20
ENDBRANCH   2  19
TORSDOF 6
ENDMDL
MODEL 6
REMARK VINA RESULT:      -7.6      3.073      5.570
REMARK  Name = 
REMARK  6 active torsions:
REMARK  status: ('A' for Active; 'I' for Inactive)
REMARK    1  A    between atoms: C_2  and  N_3
REMARK    2  A    between atoms: C_2  and  C_21
REMARK    3  A    between atoms: C_4  and  SE_13
REMARK    4  A    between atoms: C_6  and  C_8
REMARK    5  A    between atoms: SE_13  and  C_14
REMARK    6  A    between atoms: C_14  and  C_15
REMARK                            x       y       z     vdW  Elec       q    Type
REMARK                         _______ _______ _______ _____ _____    ______ ____
ROOT
ATOM      1  N   UNL     1       7.469   5.684  17.282  0.00  0.00    +0.000 NA
ATOM      2  C   UNL     1       6.466   4.863  17.190  0.00  0.00    +0.000 C 
ATOM      3  N   UNL     1       6.138   4.294  15.914  0.00  0.00    +0.000 N 
ATOM      4  C   UNL     1       6.771   4.609  14.741  0.00  0.00    +0.000 C 
ATOM      5  O   UNL     1       7.664   5.447  14.713  0.00  0.00    +0.000 OA
ATOM      6  H   UNL     1       5.371   3.607  15.880  0.00  0.00    +0.000 HD
ENDROOT
BRANCH   4   7
ATOM      7  C   UNL     1       6.397   3.949  13.472  0.00  0.00    +0.000 A 
ATOM      8  C   UNL     1       5.119   3.639  13.057  0.00  0.00    +0.000 A 
ATOM      9  C   UNL     1       5.288   3.061  11.820  0.00  0.00    +0.000 A 
ATOM     10  N   UNL     1       6.605   3.035  11.532  0.00  0.00    +0.000 NA
ATOM     11  O   UNL     1       7.238   3.571  12.536  0.00  0.00    +0.000 OA
ENDBRANCH   4   7
BRANCH   1  13
ATOM     12  O   UNL     1       8.228   5.767  19.469  0.00  0.00    +0.000 OA
ATOM     13  C   UNL     1       7.962   6.363  18.438  0.00  0.00    +0.000 C 
BRANCH  13  14
ATOM     14  C   UNL     1       8.197   7.817  18.381  0.00  0.00    +0.000 A 
ATOM     15  C   UNL     1       7.653   8.716  17.490  0.00  0.00    +0.000 A 
ATOM     16  C   UNL     1       8.192   9.928  17.856  0.00  0.00    +0.000 A 
ATOM     17  N   UNL     1       9.009   9.742  18.911  0.00  0.00    +0.000 NA
ATOM     18  O   UNL     1       8.987   8.472  19.201  0.00  0.00    +0.000 OA
ENDBRANCH  13  14
ENDBRANCH   1  13
BRANCH   2  19
ATOM     19 SE   UNL     1       5.325   4.461  18.733  0.00  0.00    +0.000 Se
BRANCH  19  20
ATOM     20  C   UNL     1       3.583   5.085  18.081  0.00  0.00    +0.000 C 
BRANCH  20  21
ATOM     21  C   UNL     1       2.502   4.296  18.786  0.00  0.00    +0.000 A 
ATOM     22  C   UNL     1       1.811   3.267  18.120  0.00  0.00    +0.000 A 
ATOM     23  C   UNL     1       0.791   2.560  18.769  0.00  0.00    +0.000 A 
ATOM     24  C   UNL     1       0.457   2.868  20.090  0.00  0.00    +0.000 A 
ATOM     25  C   UNL     1       1.143   3.881  20.765  0.00  0.00    +0.000 A 
ATOM     26  C   UNL     1       2.159   4.593  20.118  0.00  0.00    +0.000 A 
ENDBRANCH  20  21
ENDBRANCH  19  20
ENDBRANCH   2  19
TORSDOF 6
ENDMDL
MODEL 7
REMARK VINA RESULT:      -7.6      2.551      6.630
REMARK  Name = 
REMARK  6 active torsions:
REMARK  status: ('A' for Active; 'I' for Inactive)
REMARK    1  A    between atoms: C_2  and  N_3
REMARK    2  A    between atoms: C_2  and  C_21
REMARK    3  A    between atoms: C_4  and  SE_13
REMARK    4  A    between atoms: C_6  and  C_8
REMARK    5  A    between atoms: SE_13  and  C_14
REMARK    6  A    between atoms: C_14  and  C_15
REMARK                            x       y       z     vdW  Elec       q    Type
REMARK                         _______ _______ _______ _____ _____    ______ ____
ROOT
ATOM      1  N   UNL     1       4.790   3.443  17.959  0.00  0.00    +0.000 NA
ATOM      2  C   UNL     1       4.933   4.697  17.650  0.00  0.00    +0.000 C 
ATOM      3  N   UNL     1       5.596   5.049  16.427  0.00  0.00    +0.000 N 
ATOM      4  C   UNL     1       6.167   4.145  15.569  0.00  0.00    +0.000 C 
ATOM      5  O   UNL     1       6.168   2.948  15.826  0.00  0.00    +0.000 OA
ATOM      6  H   UNL     1       5.650   6.047  16.182  0.00  0.00    +0.000 HD
ENDROOT
BRANCH   4   7
ATOM      7  C   UNL     1       6.800   4.587  14.308  0.00  0.00    +0.000 A 
ATOM      8  C   UNL     1       6.542   4.095  13.046  0.00  0.00    +0.000 A 
ATOM      9  C   UNL     1       7.356   4.830  12.216  0.00  0.00    +0.000 A 
ATOM     10  N   UNL     1       8.057   5.706  12.963  0.00  0.00    +0.000 NA
ATOM     11  O   UNL     1       7.704   5.535  14.205  0.00  0.00    +0.000 OA
ENDBRANCH   4   7
BRANCH   1  13
ATOM     12  O   UNL     1       4.833   2.443  20.048  0.00  0.00    +0.000 OA
ATOM     13  C   UNL     1       4.174   2.874  19.116  0.00  0.00    +0.000 C 
BRANCH  13  14
ATOM     14  C   UNL     1       2.704   2.840  19.213  0.00  0.00    +0.000 A 
ATOM     15  C   UNL     1       1.814   2.410  18.253  0.00  0.00    +0.000 A 
ATOM     16  C   UNL     1       0.577   2.589  18.830  0.00  0.00    +0.000 A 
ATOM     17  N   UNL     1       0.742   3.096  20.068  0.00  0.00    +0.000 NA
ATOM     18  O   UNL     1       2.023   3.232  20.265  0.00  0.00    +0.000 OA
ENDBRANCH  13  14
ENDBRANCH   1  13
BRANCH   2  19
ATOM     19 SE   UNL     1       4.357   6.125  18.864  0.00  0.00    +0.000 Se
BRANCH  19  20
ATOM     20  C   UNL     1       3.015   7.035  17.760  0.00  0.00    +0.000 C 
BRANCH  20  21
ATOM     21  C   UNL     1       2.212   7.956  18.651  0.00  0.00    +0.000 A 
ATOM     22  C   UNL     1       1.989   7.636  20.003  0.00  0.00    +0.000 A 
ATOM     23  C   UNL     1       1.220   8.479  20.815  0.00  0.00    +0.000 A 
ATOM     24  C   UNL     1       0.674   9.652  20.289  0.00  0.00    +0.000 A 
ATOM     25  C   UNL     1       0.898   9.986  18.950  0.00  0.00    +0.000 A 
ATOM     26  C   UNL     1       1.661   9.143  18.134  0.00  0.00    +0.000 A 
ENDBRANCH  20  21
ENDBRANCH  19  20
ENDBRANCH   2  19
TORSDOF 6
ENDMDL
MODEL 8
REMARK VINA RESULT:      -7.4      2.791      5.510
REMARK  Name = 
REMARK  6 active torsions:
REMARK  status: ('A' for Active; 'I' for Inactive)
REMARK    1  A    between atoms: C_2  and  N_3
REMARK    2  A    between atoms: C_2  and  C_21
REMARK    3  A    between atoms: C_4  and  SE_13
REMARK    4  A    between atoms: C_6  and  C_8
REMARK    5  A    between atoms: SE_13  and  C_14
REMARK    6  A    between atoms: C_14  and  C_15
REMARK                            x       y       z     vdW  Elec       q    Type
REMARK                         _______ _______ _______ _____ _____    ______ ____
ROOT
ATOM      1  N   UNL     1       7.382   6.069  17.189  0.00  0.00    +0.000 NA
ATOM      2  C   UNL     1       6.202   5.538  17.068  0.00  0.00    +0.000 C 
ATOM      3  N   UNL     1       5.843   4.894  15.836  0.00  0.00    +0.000 N 
ATOM      4  C   UNL     1       6.642   4.855  14.723  0.00  0.00    +0.000 C 
ATOM      5  O   UNL     1       7.731   5.413  14.711  0.00  0.00    +0.000 OA
ATOM      6  H   UNL     1       4.922   4.438  15.785  0.00  0.00    +0.000 HD
ENDROOT
BRANCH   4   7
ATOM      7  C   UNL     1       6.213   4.138  13.503  0.00  0.00    +0.000 A 
ATOM      8  C   UNL     1       7.033   3.662  12.503  0.00  0.00    +0.000 A 
ATOM      9  C   UNL     1       6.176   3.063  11.609  0.00  0.00    +0.000 A 
ATOM     10  N   UNL     1       4.915   3.189  12.069  0.00  0.00    +0.000 NA
ATOM     11  O   UNL     1       4.971   3.835  13.199  0.00  0.00    +0.000 OA
ENDBRANCH   4   7
BRANCH   1  13
ATOM     12  O   UNL     1       8.253   6.168  19.333  0.00  0.00    +0.000 OA
ATOM     13  C   UNL     1       7.940   6.756  18.310  0.00  0.00    +0.000 C 
BRANCH  13  14
ATOM     14  C   UNL     1       8.184   8.206  18.225  0.00  0.00    +0.000 A 
ATOM     15  C   UNL     1       8.985   8.968  19.048  0.00  0.00    +0.000 A 
ATOM     16  C   UNL     1       8.864  10.247  18.553  0.00  0.00    +0.000 A 
ATOM     17  N   UNL     1       8.033  10.228  17.493  0.00  0.00    +0.000 NA
ATOM     18  O   UNL     1       7.647   8.995  17.323  0.00  0.00    +0.000 OA
ENDBRANCH  13  14
ENDBRANCH   1  13
BRANCH   2  19
ATOM     19 SE   UNL     1       4.861   5.684  18.490  0.00  0.00    +0.000 Se
BRANCH  19  20
ATOM     20  C   UNL     1       3.235   5.161  17.526  0.00  0.00    +0.000 C 
BRANCH  20  21
ATOM     21  C   UNL     1       2.328   4.425  18.486  0.00  0.00    +0.000 A 
ATOM     22  C   UNL     1       2.119   4.907  19.792  0.00  0.00    +0.000 A 
ATOM     23  C   UNL     1       1.300   4.204  20.686  0.00  0.00    +0.000 A 
ATOM     24  C   UNL     1       0.679   3.020  20.284  0.00  0.00    +0.000 A 
ATOM     25  C   UNL     1       0.872   2.537  18.987  0.00  0.00    +0.000 A 
ATOM     26  C   UNL     1       1.693   3.233  18.092  0.00  0.00    +0.000 A 
ENDBRANCH  20  21
ENDBRANCH  19  20
ENDBRANCH   2  19
TORSDOF 6
ENDMDL
MODEL 9
REMARK VINA RESULT:      -7.4      3.221      5.514
REMARK  Name = 
REMARK  6 active torsions:
REMARK  status: ('A' for Active; 'I' for Inactive)
REMARK    1  A    between atoms: C_2  and  N_3
REMARK    2  A    between atoms: C_2  and  C_21
REMARK    3  A    between atoms: C_4  and  SE_13
REMARK    4  A    between atoms: C_6  and  C_8
REMARK    5  A    between atoms: SE_13  and  C_14
REMARK    6  A    between atoms: C_14  and  C_15
REMARK                            x       y       z     vdW  Elec       q    Type
REMARK                         _______ _______ _______ _____ _____    ______ ____
ROOT
ATOM      1  N   UNL     1       7.245   5.704  17.196  0.00  0.00    +0.000 NA
ATOM      2  C   UNL     1       6.008   5.371  16.974  0.00  0.00    +0.000 C 
ATOM      3  N   UNL     1       5.651   4.794  15.710  0.00  0.00    +0.000 N 
ATOM      4  C   UNL     1       6.519   4.627  14.663  0.00  0.00    +0.000 C 
ATOM      5  O   UNL     1       7.682   5.002  14.744  0.00  0.00    +0.000 OA
ATOM      6  H   UNL     1       4.675   4.492  15.580  0.00  0.00    +0.000 HD
ENDROOT
BRANCH   4   7
ATOM      7  C   UNL     1       6.080   3.990  13.403  0.00  0.00    +0.000 A 
ATOM      8  C   UNL     1       6.895   3.443  12.435  0.00  0.00    +0.000 A 
ATOM      9  C   UNL     1       6.026   2.966  11.481  0.00  0.00    +0.000 A 
ATOM     10  N   UNL     1       4.763   3.225  11.878  0.00  0.00    +0.000 NA
ATOM     11  O   UNL     1       4.831   3.837  13.026  0.00  0.00    +0.000 OA
ENDBRANCH   4   7
BRANCH   1  13
ATOM     12  O   UNL     1       8.066   5.629  19.360  0.00  0.00    +0.000 OA
ATOM     13  C   UNL     1       7.814   6.292  18.367  0.00  0.00    +0.000 C 
BRANCH  13  14
ATOM     14  C   UNL     1       8.146   7.727  18.371  0.00  0.00    +0.000 A 
ATOM     15  C   UNL     1       7.700   8.689  17.491  0.00  0.00    +0.000 A 
ATOM     16  C   UNL     1       8.303   9.850  17.921  0.00  0.00    +0.000 A 
ATOM     17  N   UNL     1       9.062   9.574  18.999  0.00  0.00    +0.000 NA
ATOM     18  O   UNL     1       8.945   8.300  19.242  0.00  0.00    +0.000 OA
ENDBRANCH  13  14
ENDBRANCH   1  13
BRANCH   2  19
ATOM     19 SE   UNL     1       4.599   5.731  18.288  0.00  0.00    +0.000 Se
BRANCH  19  20
ATOM     20  C   UNL     1       4.632   4.072  19.335  0.00  0.00    +0.000 C 
BRANCH  20  21
ATOM     21  C   UNL     1       3.209   3.585  19.498  0.00  0.00    +0.000 A 
ATOM     22  C   UNL     1       2.685   3.306  20.773  0.00  0.00    +0.000 A 
ATOM     23  C   UNL     1       1.376   2.828  20.915  0.00  0.00    +0.000 A 
ATOM     24  C   UNL     1       0.577   2.630  19.787  0.00  0.00    +0.000 A 
ATOM     25  C   UNL     1       1.083   2.913  18.515  0.00  0.00    +0.000 A 
ATOM     26  C   UNL     1       2.392   3.386  18.370  0.00  0.00    +0.000 A 
ENDBRANCH  20  21
ENDBRANCH  19  20
ENDBRANCH   2  19
TORSDOF 6
ENDMDL
