MODEL 1
REMARK VINA RESULT:      -7.6      0.000      0.000
REMARK  Name = 
REMARK  8 active torsions:
REMARK  status: ('A' for Active; 'I' for Inactive)
REMARK    1  A    between atoms: C_1  and  C_2
REMARK    2  A    between atoms: N_4  and  C_5
REMARK    3  A    between atoms: C_6  and  N_7
REMARK    4  A    between atoms: C_12  and  C_13
REMARK    5  A    between atoms: C_13  and  O_15
REMARK    6  A    between atoms: C_17  and  C_18
REMARK    7  A    between atoms: C_20  and  O_21
REMARK    8  A    between atoms: C_22  and  O_23
REMARK                            x       y       z     vdW  Elec       q    Type
REMARK                         _______ _______ _______ _____ _____    ______ ____
ROOT
ATOM      1  C   UNL     1       4.441   5.991  17.907  0.00  0.00    +0.000 C 
ATOM      2  C   UNL     1       5.100   6.818  16.754  0.00  0.00    +0.000 C 
ATOM      3  C   UNL     1       5.475   5.983  15.581  0.00  0.00    +0.000 C 
ATOM      4  C   UNL     1       5.108   4.703  15.429  0.00  0.00    +0.000 C 
ATOM      5  O   UNL     1       4.377   3.995  16.339  0.00  0.00    +0.000 OA
ATOM      6  C   UNL     1       3.769   4.661  17.450  0.00  0.00    +0.000 C 
ENDROOT
BRANCH   2   7
ATOM      7  N   UNL     1       6.332   7.461  17.230  0.00  0.00    +0.000 N 
ATOM      8  C   UNL     1       7.350   6.825  17.847  0.00  0.00    +0.000 C 
ATOM      9  N   UNL     1       7.535   5.569  18.014  0.00  0.00    +0.000 NA
ATOM     10  N   UNL     1       8.268   7.686  18.321  0.00  0.00    +0.000 N 
ATOM     11  H   UNL     1       6.178   8.370  17.657  0.00  0.00    +0.000 HD
ATOM     12  H   UNL     1       6.737   5.069  17.626  0.00  0.00    +0.000 HD
ATOM     13  H   UNL     1       8.575   8.361  17.631  0.00  0.00    +0.000 HD
ATOM     14  H   UNL     1       9.063   7.166  18.680  0.00  0.00    +0.000 HD
ENDBRANCH   2   7
BRANCH   6  15
ATOM     15  C   UNL     1       3.665   3.640  18.645  0.00  0.00    +0.000 C 
ATOM     16  C   UNL     1       2.696   2.466  18.474  0.00  0.00    +0.000 C 
ATOM     17  C   UNL     1       1.250   2.938  18.477  0.00  0.00    +0.000 C 
ATOM     18  C   UNL     1       0.945   3.730  19.753  0.00  0.00    +0.000 C 
ATOM     19  C   UNL     1       2.040   4.745  20.106  0.00  0.00    +0.000 C 
ATOM     20  O   UNL     1       3.378   4.263  19.916  0.00  0.00    +0.000 OA
BRANCH  17  21
ATOM     21  O   UNL     1       0.397   1.796  18.380  0.00  0.00    +0.000 OA
ATOM     22  H   UNL     1      -0.143   1.935  17.574  0.00  0.00    +0.000 HD
ENDBRANCH  17  21
BRANCH  18  23
ATOM     23  O   UNL     1       0.793   2.780  20.826  0.00  0.00    +0.000 OA
ATOM     24  H   UNL     1       0.693   3.284  21.652  0.00  0.00    +0.000 HD
ENDBRANCH  18  23
ENDBRANCH   6  15
BRANCH   1  28
ATOM     25  C   UNL     1       1.890   8.532  19.211  0.00  0.00    +0.000 C 
ATOM     26  C   UNL     1       2.712   7.788  18.196  0.00  0.00    +0.000 C 
ATOM     27  O   UNL     1       2.698   8.048  16.998  0.00  0.00    +0.000 OA
ATOM     28  N   UNL     1       3.516   6.803  18.732  0.00  0.00    +0.000 N 
ATOM     29  H   UNL     1       3.467   6.615  19.729  0.00  0.00    +0.000 HD
ENDBRANCH   1  28
BRANCH   4  30
ATOM     30  C   UNL     1       5.504   3.996  14.174  0.00  0.00    +0.000 C 
ATOM     31  O   UNL     1       4.835   3.941  13.155  0.00  0.00    +0.000 OA
BRANCH  30  32
ATOM     32  O   UNL     1       6.711   3.405  14.315  0.00  0.00    +0.000 OA
ATOM     33  H   UNL     1       7.209   3.434  13.473  0.00  0.00    +0.000 HD
ENDBRANCH  30  32
ENDBRANCH   4  30
TORSDOF 7
ENDMDL
MODEL 2
REMARK VINA RESULT:      -7.4      9.228     12.118
REMARK  Name = 
REMARK  8 active torsions:
REMARK  status: ('A' for Active; 'I' for Inactive)
REMARK    1  A    between atoms: C_1  and  C_2
REMARK    2  A    between atoms: N_4  and  C_5
REMARK    3  A    between atoms: C_6  and  N_7
REMARK    4  A    between atoms: C_12  and  C_13
REMARK    5  A    between atoms: C_13  and  O_15
REMARK    6  A    between atoms: C_17  and  C_18
REMARK    7  A    between atoms: C_20  and  O_21
REMARK    8  A    between atoms: C_22  and  O_23
REMARK                            x       y       z     vdW  Elec       q    Type
REMARK                         _______ _______ _______ _____ _____    ______ ____
ROOT
ATOM      1  C   UNL     1      -3.079  12.212  19.741  0.00  0.00    +0.000 C 
ATOM      2  C   UNL     1      -4.135  11.949  18.617  0.00  0.00    +0.000 C 
ATOM      3  C   UNL     1      -5.508  11.733  19.150  0.00  0.00    +0.000 C 
ATOM      4  C   UNL     1      -5.853  11.941  20.427  0.00  0.00    +0.000 C 
ATOM      5  O   UNL     1      -4.991  12.344  21.407  0.00  0.00    +0.000 OA
ATOM      6  C   UNL     1      -3.670  12.776  21.069  0.00  0.00    +0.000 C 
ENDROOT
BRANCH   2   7
ATOM      7  N   UNL     1      -3.779  10.746  17.856  0.00  0.00    +0.000 N 
ATOM      8  C   UNL     1      -3.034  10.732  16.730  0.00  0.00    +0.000 C 
ATOM      9  N   UNL     1      -2.378  11.687  16.185  0.00  0.00    +0.000 NA
ATOM     10  N   UNL     1      -3.010   9.516  16.157  0.00  0.00    +0.000 N 
ATOM     11  H   UNL     1      -4.536  10.072  17.780  0.00  0.00    +0.000 HD
ATOM     12  H   UNL     1      -2.529  12.536  16.727  0.00  0.00    +0.000 HD
ATOM     13  H   UNL     1      -2.774   8.774  16.804  0.00  0.00    +0.000 HD
ATOM     14  H   UNL     1      -2.357   9.524  15.379  0.00  0.00    +0.000 HD
ENDBRANCH   2   7
BRANCH   6  15
ATOM     15  C   UNL     1      -2.719  12.466  22.287  0.00  0.00    +0.000 C 
ATOM     16  C   UNL     1      -3.238  12.827  23.682  0.00  0.00    +0.000 C 
ATOM     17  C   UNL     1      -3.327  14.334  23.866  0.00  0.00    +0.000 C 
ATOM     18  C   UNL     1      -1.970  14.990  23.589  0.00  0.00    +0.000 C 
ATOM     19  C   UNL     1      -1.289  14.453  22.323  0.00  0.00    +0.000 C 
ATOM     20  O   UNL     1      -1.399  13.033  22.150  0.00  0.00    +0.000 OA
BRANCH  17  21
ATOM     21  O   UNL     1      -3.753  14.606  25.202  0.00  0.00    +0.000 OA
ATOM     22  H   UNL     1      -3.498  15.536  25.379  0.00  0.00    +0.000 HD
ENDBRANCH  17  21
BRANCH  18  23
ATOM     23  O   UNL     1      -1.131  14.751  24.736  0.00  0.00    +0.000 OA
ATOM     24  H   UNL     1      -0.306  14.346  24.417  0.00  0.00    +0.000 HD
ENDBRANCH  18  23
ENDBRANCH   6  15
BRANCH   1  28
ATOM     25  C   UNL     1       0.305  13.492  18.486  0.00  0.00    +0.000 C 
ATOM     26  C   UNL     1      -0.739  12.482  18.875  0.00  0.00    +0.000 C 
ATOM     27  O   UNL     1      -0.537  11.273  18.873  0.00  0.00    +0.000 OA
ATOM     28  N   UNL     1      -1.939  13.034  19.269  0.00  0.00    +0.000 N 
ATOM     29  H   UNL     1      -2.058  14.042  19.226  0.00  0.00    +0.000 HD
ENDBRANCH   1  28
BRANCH   4  30
ATOM     30  C   UNL     1      -7.282  11.741  20.818  0.00  0.00    +0.000 C 
ATOM     31  O   UNL     1      -7.871  12.367  21.684  0.00  0.00    +0.000 OA
BRANCH  30  32
ATOM     32  O   UNL     1      -7.847  10.755  20.087  0.00  0.00    +0.000 OA
ATOM     33  H   UNL     1      -7.388  10.657  19.228  0.00  0.00    +0.000 HD
ENDBRANCH  30  32
ENDBRANCH   4  30
TORSDOF 7
ENDMDL
MODEL 3
REMARK VINA RESULT:      -7.3      1.913      5.676
REMARK  Name = 
REMARK  8 active torsions:
REMARK  status: ('A' for Active; 'I' for Inactive)
REMARK    1  A    between atoms: C_1  and  C_2
REMARK    2  A    between atoms: N_4  and  C_5
REMARK    3  A    between atoms: C_6  and  N_7
REMARK    4  A    between atoms: C_12  and  C_13
REMARK    5  A    between atoms: C_13  and  O_15
REMARK    6  A    between atoms: C_17  and  C_18
REMARK    7  A    between atoms: C_20  and  O_21
REMARK    8  A    between atoms: C_22  and  O_23
REMARK                            x       y       z     vdW  Elec       q    Type
REMARK                         _______ _______ _______ _____ _____    ______ ____
ROOT
ATOM      1  C   UNL     1       4.926   5.678  18.126  0.00  0.00    +0.000 C 
ATOM      2  C   UNL     1       4.451   5.070  19.487  0.00  0.00    +0.000 C 
ATOM      3  C   UNL     1       3.765   3.759  19.330  0.00  0.00    +0.000 C 
ATOM      4  C   UNL     1       3.734   3.066  18.183  0.00  0.00    +0.000 C 
ATOM      5  O   UNL     1       4.294   3.486  17.010  0.00  0.00    +0.000 OA
ATOM      6  C   UNL     1       5.149   4.632  16.991  0.00  0.00    +0.000 C 
ENDROOT
BRANCH   2   7
ATOM      7  N   UNL     1       3.498   5.973  20.142  0.00  0.00    +0.000 N 
ATOM      8  C   UNL     1       2.586   6.736  19.501  0.00  0.00    +0.000 C 
ATOM      9  N   UNL     1       2.258   6.733  18.263  0.00  0.00    +0.000 NA
ATOM     10  N   UNL     1       1.964   7.586  20.336  0.00  0.00    +0.000 N 
ATOM     11  H   UNL     1       3.894   6.488  20.923  0.00  0.00    +0.000 HD
ATOM     12  H   UNL     1       2.842   6.057  17.774  0.00  0.00    +0.000 HD
ATOM     13  H   UNL     1       1.599   7.135  21.167  0.00  0.00    +0.000 HD
ATOM     14  H   UNL     1       1.217   8.061  19.839  0.00  0.00    +0.000 HD
ENDBRANCH   2   7
BRANCH   6  15
ATOM     15  C   UNL     1       5.041   5.308  15.571  0.00  0.00    +0.000 C 
ATOM     16  C   UNL     1       5.029   4.374  14.357  0.00  0.00    +0.000 C 
ATOM     17  C   UNL     1       6.379   3.701  14.164  0.00  0.00    +0.000 C 
ATOM     18  C   UNL     1       7.492   4.749  14.050  0.00  0.00    +0.000 C 
ATOM     19  C   UNL     1       7.379   5.861  15.101  0.00  0.00    +0.000 C 
ATOM     20  O   UNL     1       6.041   6.322  15.334  0.00  0.00    +0.000 OA
BRANCH  17  21
ATOM     21  O   UNL     1       6.324   2.898  12.984  0.00  0.00    +0.000 OA
ATOM     22  H   UNL     1       6.551   3.498  12.242  0.00  0.00    +0.000 HD
ENDBRANCH  17  21
BRANCH  18  23
ATOM     23  O   UNL     1       7.419   5.316  12.727  0.00  0.00    +0.000 OA
ATOM     24  H   UNL     1       7.346   4.579  12.096  0.00  0.00    +0.000 HD
ENDBRANCH  18  23
ENDBRANCH   6  15
BRANCH   1  28
ATOM     25  C   UNL     1       8.393   7.157  18.802  0.00  0.00    +0.000 C 
ATOM     26  C   UNL     1       7.346   6.089  18.650  0.00  0.00    +0.000 C 
ATOM     27  O   UNL     1       7.562   4.901  18.864  0.00  0.00    +0.000 OA
ATOM     28  N   UNL     1       6.105   6.563  18.278  0.00  0.00    +0.000 N 
ATOM     29  H   UNL     1       5.992   7.554  18.089  0.00  0.00    +0.000 HD
ENDBRANCH   1  28
BRANCH   4  30
ATOM     30  C   UNL     1       3.059   1.733  18.178  0.00  0.00    +0.000 C 
ATOM     31  O   UNL     1       1.853   1.553  18.158  0.00  0.00    +0.000 OA
BRANCH  30  32
ATOM     32  O   UNL     1       3.969   0.734  18.209  0.00  0.00    +0.000 OA
ATOM     33  H   UNL     1       4.835   1.066  18.519  0.00  0.00    +0.000 HD
ENDBRANCH  30  32
ENDBRANCH   4  30
TORSDOF 7
ENDMDL
MODEL 4
REMARK VINA RESULT:      -7.1      7.188      9.851
REMARK  Name = 
REMARK  8 active torsions:
REMARK  status: ('A' for Active; 'I' for Inactive)
REMARK    1  A    between atoms: C_1  and  C_2
REMARK    2  A    between atoms: N_4  and  C_5
REMARK    3  A    between atoms: C_6  and  N_7
REMARK    4  A    between atoms: C_12  and  C_13
REMARK    5  A    between atoms: C_13  and  O_15
REMARK    6  A    between atoms: C_17  and  C_18
REMARK    7  A    between atoms: C_20  and  O_21
REMARK    8  A    between atoms: C_22  and  O_23
REMARK                            x       y       z     vdW  Elec       q    Type
REMARK                         _______ _______ _______ _____ _____    ______ ____
ROOT
ATOM      1  C   UNL     1      -1.015  11.829  19.317  0.00  0.00    +0.000 C 
ATOM      2  C   UNL     1      -0.040  10.661  18.953  0.00  0.00    +0.000 C 
ATOM      3  C   UNL     1       0.551  10.004  20.151  0.00  0.00    +0.000 C 
ATOM      4  C   UNL     1       0.144  10.238  21.406  0.00  0.00    +0.000 C 
ATOM      5  O   UNL     1      -0.833  11.127  21.750  0.00  0.00    +0.000 OA
ATOM      6  C   UNL     1      -1.646  11.730  20.739  0.00  0.00    +0.000 C 
ENDROOT
BRANCH   2   7
ATOM      7  N   UNL     1       1.080  11.165  18.149  0.00  0.00    +0.000 N 
ATOM      8  C   UNL     1       1.891  12.185  18.502  0.00  0.00    +0.000 C 
ATOM      9  N   UNL     1       1.964  12.810  19.617  0.00  0.00    +0.000 NA
ATOM     10  N   UNL     1       2.719  12.539  17.503  0.00  0.00    +0.000 N 
ATOM     11  H   UNL     1       0.881  11.207  17.154  0.00  0.00    +0.000 HD
ATOM     12  H   UNL     1       1.253  12.439  20.244  0.00  0.00    +0.000 HD
ATOM     13  H   UNL     1       3.214  11.753  17.098  0.00  0.00    +0.000 HD
ATOM     14  H   UNL     1       3.380  13.231  17.843  0.00  0.00    +0.000 HD
ENDBRANCH   2   7
BRANCH   6  15
ATOM     15  C   UNL     1      -2.108  13.146  21.252  0.00  0.00    +0.000 C 
ATOM     16  C   UNL     1      -2.408  13.279  22.748  0.00  0.00    +0.000 C 
ATOM     17  C   UNL     1      -3.657  12.501  23.132  0.00  0.00    +0.000 C 
ATOM     18  C   UNL     1      -4.852  12.949  22.282  0.00  0.00    +0.000 C 
ATOM     19  C   UNL     1      -4.512  13.085  20.792  0.00  0.00    +0.000 C 
ATOM     20  O   UNL     1      -3.236  13.685  20.529  0.00  0.00    +0.000 OA
BRANCH  17  21
ATOM     21  O   UNL     1      -3.920  12.717  24.520  0.00  0.00    +0.000 OA
ATOM     22  H   UNL     1      -3.053  12.922  24.927  0.00  0.00    +0.000 HD
ENDBRANCH  17  21
BRANCH  18  23
ATOM     23  O   UNL     1      -5.302  14.216  22.801  0.00  0.00    +0.000 OA
ATOM     24  H   UNL     1      -5.492  14.095  23.747  0.00  0.00    +0.000 HD
ENDBRANCH  18  23
ENDBRANCH   6  15
BRANCH   1  28
ATOM     25  C   UNL     1      -3.771  11.435  16.687  0.00  0.00    +0.000 C 
ATOM     26  C   UNL     1      -2.811  11.013  17.765  0.00  0.00    +0.000 C 
ATOM     27  O   UNL     1      -2.684   9.851  18.135  0.00  0.00    +0.000 OA
ATOM     28  N   UNL     1      -2.055  12.044  18.283  0.00  0.00    +0.000 N 
ATOM     29  H   UNL     1      -2.221  12.991  17.955  0.00  0.00    +0.000 HD
ENDBRANCH   1  28
BRANCH   4  30
ATOM     30  C   UNL     1       0.783   9.465  22.515  0.00  0.00    +0.000 C 
ATOM     31  O   UNL     1       0.541   9.605  23.702  0.00  0.00    +0.000 OA
BRANCH  30  32
ATOM     32  O   UNL     1       1.687   8.586  22.029  0.00  0.00    +0.000 OA
ATOM     33  H   UNL     1       1.317   8.098  21.266  0.00  0.00    +0.000 HD
ENDBRANCH  30  32
ENDBRANCH   4  30
TORSDOF 7
ENDMDL
MODEL 5
REMARK VINA RESULT:      -7.1      2.836      4.553
REMARK  Name = 
REMARK  8 active torsions:
REMARK  status: ('A' for Active; 'I' for Inactive)
REMARK    1  A    between atoms: C_1  and  C_2
REMARK    2  A    between atoms: N_4  and  C_5
REMARK    3  A    between atoms: C_6  and  N_7
REMARK    4  A    between atoms: C_12  and  C_13
REMARK    5  A    between atoms: C_13  and  O_15
REMARK    6  A    between atoms: C_17  and  C_18
REMARK    7  A    between atoms: C_20  and  O_21
REMARK    8  A    between atoms: C_22  and  O_23
REMARK                            x       y       z     vdW  Elec       q    Type
REMARK                         _______ _______ _______ _____ _____    ______ ____
ROOT
ATOM      1  C   UNL     1       4.819   4.064  17.170  0.00  0.00    +0.000 C 
ATOM      2  C   UNL     1       6.338   3.872  16.847  0.00  0.00    +0.000 C 
ATOM      3  C   UNL     1       7.139   5.108  17.064  0.00  0.00    +0.000 C 
ATOM      4  C   UNL     1       6.663   6.208  17.664  0.00  0.00    +0.000 C 
ATOM      5  O   UNL     1       5.385   6.350  18.120  0.00  0.00    +0.000 OA
ATOM      6  C   UNL     1       4.508   5.220  18.168  0.00  0.00    +0.000 C 
ENDROOT
BRANCH   2   7
ATOM      7  N   UNL     1       6.515   3.492  15.441  0.00  0.00    +0.000 N 
ATOM      8  C   UNL     1       6.166   4.252  14.381  0.00  0.00    +0.000 C 
ATOM      9  N   UNL     1       5.766   5.469  14.357  0.00  0.00    +0.000 NA
ATOM     10  N   UNL     1       6.287   3.585  13.221  0.00  0.00    +0.000 N 
ATOM     11  H   UNL     1       6.304   2.516  15.253  0.00  0.00    +0.000 HD
ATOM     12  H   UNL     1       5.703   5.808  15.315  0.00  0.00    +0.000 HD
ATOM     13  H   UNL     1       7.187   3.133  13.112  0.00  0.00    +0.000 HD
ATOM     14  H   UNL     1       6.119   4.221  12.447  0.00  0.00    +0.000 HD
ENDBRANCH   2   7
BRANCH   6  15
ATOM     15  C   UNL     1       3.028   5.732  17.997  0.00  0.00    +0.000 C 
ATOM     16  C   UNL     1       2.626   6.975  18.798  0.00  0.00    +0.000 C 
ATOM     17  C   UNL     1       2.572   6.678  20.288  0.00  0.00    +0.000 C 
ATOM     18  C   UNL     1       1.627   5.505  20.569  0.00  0.00    +0.000 C 
ATOM     19  C   UNL     1       1.825   4.329  19.603  0.00  0.00    +0.000 C 
ATOM     20  O   UNL     1       2.032   4.715  18.237  0.00  0.00    +0.000 OA
BRANCH  17  21
ATOM     21  O   UNL     1       2.130   7.853  20.971  0.00  0.00    +0.000 OA
ATOM     22  H   UNL     1       1.839   8.475  20.272  0.00  0.00    +0.000 HD
ENDBRANCH  17  21
BRANCH  18  23
ATOM     23  O   UNL     1       0.278   6.001  20.469  0.00  0.00    +0.000 OA
ATOM     24  H   UNL     1      -0.285   5.436  21.026  0.00  0.00    +0.000 HD
ENDBRANCH  18  23
ENDBRANCH   6  15
BRANCH   1  28
ATOM     25  C   UNL     1       3.630   0.946  19.046  0.00  0.00    +0.000 C 
ATOM     26  C   UNL     1       4.338   2.256  18.842  0.00  0.00    +0.000 C 
ATOM     27  O   UNL     1       5.036   2.783  19.701  0.00  0.00    +0.000 OA
ATOM     28  N   UNL     1       4.163   2.803  17.589  0.00  0.00    +0.000 N 
ATOM     29  H   UNL     1       3.552   2.334  16.926  0.00  0.00    +0.000 HD
ENDBRANCH   1  28
BRANCH   4  30
ATOM     30  C   UNL     1       7.593   7.361  17.870  0.00  0.00    +0.000 C 
ATOM     31  O   UNL     1       7.625   8.371  17.187  0.00  0.00    +0.000 OA
BRANCH  30  32
ATOM     32  O   UNL     1       8.413   7.135  18.920  0.00  0.00    +0.000 OA
ATOM     33  H   UNL     1       7.995   7.431  19.753  0.00  0.00    +0.000 HD
ENDBRANCH  30  32
ENDBRANCH   4  30
TORSDOF 7
ENDMDL
MODEL 6
REMARK VINA RESULT:      -7.1      1.497      1.986
REMARK  Name = 
REMARK  8 active torsions:
REMARK  status: ('A' for Active; 'I' for Inactive)
REMARK    1  A    between atoms: C_1  and  C_2
REMARK    2  A    between atoms: N_4  and  C_5
REMARK    3  A    between atoms: C_6  and  N_7
REMARK    4  A    between atoms: C_12  and  C_13
REMARK    5  A    between atoms: C_13  and  O_15
REMARK    6  A    between atoms: C_17  and  C_18
REMARK    7  A    between atoms: C_20  and  O_21
REMARK    8  A    between atoms: C_22  and  O_23
REMARK                            x       y       z     vdW  Elec       q    Type
REMARK                         _______ _______ _______ _____ _____    ______ ____
ROOT
ATOM      1  C   UNL     1       4.398   4.985  18.375  0.00  0.00    +0.000 C 
ATOM      2  C   UNL     1       5.777   5.708  18.230  0.00  0.00    +0.000 C 
ATOM      3  C   UNL     1       6.473   5.383  16.955  0.00  0.00    +0.000 C 
ATOM      4  C   UNL     1       5.902   4.713  15.945  0.00  0.00    +0.000 C 
ATOM      5  O   UNL     1       4.631   4.215  15.966  0.00  0.00    +0.000 OA
ATOM      6  C   UNL     1       3.737   4.571  17.025  0.00  0.00    +0.000 C 
ENDROOT
BRANCH   2   7
ATOM      7  N   UNL     1       6.677   5.310  19.319  0.00  0.00    +0.000 N 
ATOM      8  C   UNL     1       7.876   5.874  19.580  0.00  0.00    +0.000 C 
ATOM      9  N   UNL     1       8.405   6.921  19.067  0.00  0.00    +0.000 NA
ATOM     10  N   UNL     1       8.554   5.201  20.526  0.00  0.00    +0.000 N 
ATOM     11  H   UNL     1       6.727   4.305  19.460  0.00  0.00    +0.000 HD
ATOM     12  H   UNL     1       7.776   7.285  18.353  0.00  0.00    +0.000 HD
ATOM     13  H   UNL     1       8.005   5.020  21.358  0.00  0.00    +0.000 HD
ATOM     14  H   UNL     1       9.396   5.715  20.767  0.00  0.00    +0.000 HD
ENDBRANCH   2   7
BRANCH   6  15
ATOM     15  C   UNL     1       2.719   3.386  17.234  0.00  0.00    +0.000 C 
ATOM     16  C   UNL     1       1.477   3.678  18.080  0.00  0.00    +0.000 C 
ATOM     17  C   UNL     1       1.841   3.899  19.540  0.00  0.00    +0.000 C 
ATOM     18  C   UNL     1       2.618   2.697  20.089  0.00  0.00    +0.000 C 
ATOM     19  C   UNL     1       3.713   2.203  19.134  0.00  0.00    +0.000 C 
ATOM     20  O   UNL     1       3.328   2.184  17.752  0.00  0.00    +0.000 OA
BRANCH  17  21
ATOM     21  O   UNL     1       0.639   4.102  20.285  0.00  0.00    +0.000 OA
ATOM     22  H   UNL     1       0.502   3.279  20.799  0.00  0.00    +0.000 HD
ENDBRANCH  17  21
BRANCH  18  23
ATOM     23  O   UNL     1       1.667   1.642  20.332  0.00  0.00    +0.000 OA
ATOM     24  H   UNL     1       0.975   1.999  20.916  0.00  0.00    +0.000 HD
ENDBRANCH  18  23
ENDBRANCH   6  15
BRANCH   1  28
ATOM     25  C   UNL     1       2.043   7.590  19.901  0.00  0.00    +0.000 C 
ATOM     26  C   UNL     1       2.947   6.971  18.871  0.00  0.00    +0.000 C 
ATOM     27  O   UNL     1       3.241   7.523  17.817  0.00  0.00    +0.000 OA
ATOM     28  N   UNL     1       3.448   5.737  19.228  0.00  0.00    +0.000 N 
ATOM     29  H   UNL     1       3.149   5.317  20.103  0.00  0.00    +0.000 HD
ENDBRANCH   1  28
BRANCH   4  30
ATOM     30  C   UNL     1       6.695   4.503  14.695  0.00  0.00    +0.000 C 
ATOM     31  O   UNL     1       7.571   5.246  14.283  0.00  0.00    +0.000 OA
BRANCH  30  32
ATOM     32  O   UNL     1       6.305   3.375  14.062  0.00  0.00    +0.000 OA
ATOM     33  H   UNL     1       6.870   2.620  14.325  0.00  0.00    +0.000 HD
ENDBRANCH  30  32
ENDBRANCH   4  30
TORSDOF 7
ENDMDL
MODEL 7
REMARK VINA RESULT:      -7.1      8.329     11.329
REMARK  Name = 
REMARK  8 active torsions:
REMARK  status: ('A' for Active; 'I' for Inactive)
REMARK    1  A    between atoms: C_1  and  C_2
REMARK    2  A    between atoms: N_4  and  C_5
REMARK    3  A    between atoms: C_6  and  N_7
REMARK    4  A    between atoms: C_12  and  C_13
REMARK    5  A    between atoms: C_13  and  O_15
REMARK    6  A    between atoms: C_17  and  C_18
REMARK    7  A    between atoms: C_20  and  O_21
REMARK    8  A    between atoms: C_22  and  O_23
REMARK                            x       y       z     vdW  Elec       q    Type
REMARK                         _______ _______ _______ _____ _____    ______ ____
ROOT
ATOM      1  C   UNL     1      -2.003  13.312  21.638  0.00  0.00    +0.000 C 
ATOM      2  C   UNL     1      -2.392  12.626  22.989  0.00  0.00    +0.000 C 
ATOM      3  C   UNL     1      -1.678  11.340  23.214  0.00  0.00    +0.000 C 
ATOM      4  C   UNL     1      -0.661  10.909  22.455  0.00  0.00    +0.000 C 
ATOM      5  O   UNL     1      -0.175  11.571  21.365  0.00  0.00    +0.000 OA
ATOM      6  C   UNL     1      -0.604  12.907  21.083  0.00  0.00    +0.000 C 
ENDROOT
BRANCH   2   7
ATOM      7  N   UNL     1      -3.828  12.325  23.011  0.00  0.00    +0.000 N 
ATOM      8  C   UNL     1      -4.744  12.968  23.767  0.00  0.00    +0.000 C 
ATOM      9  N   UNL     1      -4.606  14.023  24.479  0.00  0.00    +0.000 NA
ATOM     10  N   UNL     1      -5.949  12.373  23.712  0.00  0.00    +0.000 N 
ATOM     11  H   UNL     1      -4.037  11.331  22.982  0.00  0.00    +0.000 HD
ATOM     12  H   UNL     1      -3.634  14.321  24.432  0.00  0.00    +0.000 HD
ATOM     13  H   UNL     1      -6.263  12.194  22.766  0.00  0.00    +0.000 HD
ATOM     14  H   UNL     1      -6.629  12.945  24.204  0.00  0.00    +0.000 HD
ENDBRANCH   2   7
BRANCH   6  15
ATOM     15  C   UNL     1      -0.525  13.135  19.526  0.00  0.00    +0.000 C 
ATOM     16  C   UNL     1      -0.119  11.934  18.667  0.00  0.00    +0.000 C 
ATOM     17  C   UNL     1       1.336  11.558  18.895  0.00  0.00    +0.000 C 
ATOM     18  C   UNL     1       2.250  12.761  18.637  0.00  0.00    +0.000 C 
ATOM     19  C   UNL     1       1.728  14.058  19.269  0.00  0.00    +0.000 C 
ATOM     20  O   UNL     1       0.312  14.249  19.145  0.00  0.00    +0.000 OA
BRANCH  17  21
ATOM     21  O   UNL     1       1.671  10.478  18.022  0.00  0.00    +0.000 OA
ATOM     22  H   UNL     1       0.855  10.282  17.515  0.00  0.00    +0.000 HD
ENDBRANCH  17  21
BRANCH  18  23
ATOM     23  O   UNL     1       2.361  12.922  17.209  0.00  0.00    +0.000 OA
ATOM     24  H   UNL     1       2.862  13.739  17.044  0.00  0.00    +0.000 HD
ENDBRANCH  18  23
ENDBRANCH   6  15
BRANCH   1  28
ATOM     25  C   UNL     1      -3.235  16.926  21.351  0.00  0.00    +0.000 C 
ATOM     26  C   UNL     1      -3.306  15.426  21.277  0.00  0.00    +0.000 C 
ATOM     27  O   UNL     1      -4.288  14.820  20.865  0.00  0.00    +0.000 OA
ATOM     28  N   UNL     1      -2.154  14.786  21.684  0.00  0.00    +0.000 N 
ATOM     29  H   UNL     1      -1.381  15.339  22.040  0.00  0.00    +0.000 HD
ENDBRANCH   1  28
BRANCH   4  30
ATOM     30  C   UNL     1       0.007   9.625  22.827  0.00  0.00    +0.000 C 
ATOM     31  O   UNL     1       1.212   9.443  22.867  0.00  0.00    +0.000 OA
BRANCH  30  32
ATOM     32  O   UNL     1      -0.908   8.670  23.107  0.00  0.00    +0.000 OA
ATOM     33  H   UNL     1      -1.096   8.130  22.313  0.00  0.00    +0.000 HD
ENDBRANCH  30  32
ENDBRANCH   4  30
TORSDOF 7
ENDMDL
MODEL 8
REMARK VINA RESULT:      -7.0      9.324     12.085
REMARK  Name = 
REMARK  8 active torsions:
REMARK  status: ('A' for Active; 'I' for Inactive)
REMARK    1  A    between atoms: C_1  and  C_2
REMARK    2  A    between atoms: N_4  and  C_5
REMARK    3  A    between atoms: C_6  and  N_7
REMARK    4  A    between atoms: C_12  and  C_13
REMARK    5  A    between atoms: C_13  and  O_15
REMARK    6  A    between atoms: C_17  and  C_18
REMARK    7  A    between atoms: C_20  and  O_21
REMARK    8  A    between atoms: C_22  and  O_23
REMARK                            x       y       z     vdW  Elec       q    Type
REMARK                         _______ _______ _______ _____ _____    ______ ____
ROOT
ATOM      1  C   UNL     1      -2.834  12.474  19.726  0.00  0.00    +0.000 C 
ATOM      2  C   UNL     1      -3.720  12.041  18.511  0.00  0.00    +0.000 C 
ATOM      3  C   UNL     1      -5.101  11.654  18.908  0.00  0.00    +0.000 C 
ATOM      4  C   UNL     1      -5.605  11.847  20.135  0.00  0.00    +0.000 C 
ATOM      5  O   UNL     1      -4.913  12.388  21.180  0.00  0.00    +0.000 OA
ATOM      6  C   UNL     1      -3.632  12.987  20.962  0.00  0.00    +0.000 C 
ENDROOT
BRANCH   2   7
ATOM      7  N   UNL     1      -3.129  10.878  17.839  0.00  0.00    +0.000 N 
ATOM      8  C   UNL     1      -2.988  10.742  16.503  0.00  0.00    +0.000 C 
ATOM      9  N   UNL     1      -3.183  11.607  15.579  0.00  0.00    +0.000 NA
ATOM     10  N   UNL     1      -2.572   9.510  16.163  0.00  0.00    +0.000 N 
ATOM     11  H   UNL     1      -3.395   9.989  18.253  0.00  0.00    +0.000 HD
ATOM     12  H   UNL     1      -3.522  12.467  16.006  0.00  0.00    +0.000 HD
ATOM     13  H   UNL     1      -1.760   9.204  16.686  0.00  0.00    +0.000 HD
ATOM     14  H   UNL     1      -2.376   9.483  15.167  0.00  0.00    +0.000 HD
ENDBRANCH   2   7
BRANCH   6  15
ATOM     15  C   UNL     1      -2.785  12.841  22.283  0.00  0.00    +0.000 C 
ATOM     16  C   UNL     1      -3.500  12.259  23.506  0.00  0.00    +0.000 C 
ATOM     17  C   UNL     1      -4.552  13.219  24.039  0.00  0.00    +0.000 C 
ATOM     18  C   UNL     1      -3.926  14.582  24.356  0.00  0.00    +0.000 C 
ATOM     19  C   UNL     1      -2.982  15.080  23.253  0.00  0.00    +0.000 C 
ATOM     20  O   UNL     1      -2.138  14.064  22.694  0.00  0.00    +0.000 OA
BRANCH  17  21
ATOM     21  O   UNL     1      -5.135  12.650  25.213  0.00  0.00    +0.000 OA
ATOM     22  H   UNL     1      -4.873  11.705  25.210  0.00  0.00    +0.000 HD
ENDBRANCH  17  21
BRANCH  18  23
ATOM     23  O   UNL     1      -3.205  14.449  25.596  0.00  0.00    +0.000 OA
ATOM     24  H   UNL     1      -3.295  13.526  25.891  0.00  0.00    +0.000 HD
ENDBRANCH  18  23
ENDBRANCH   6  15
BRANCH   1  28
ATOM     25  C   UNL     1       0.420  14.148  18.598  0.00  0.00    +0.000 C 
ATOM     26  C   UNL     1      -0.535  13.022  18.880  0.00  0.00    +0.000 C 
ATOM     27  O   UNL     1      -0.240  11.840  18.743  0.00  0.00    +0.000 OA
ATOM     28  N   UNL     1      -1.769  13.431  19.341  0.00  0.00    +0.000 N 
ATOM     29  H   UNL     1      -1.966  14.425  19.410  0.00  0.00    +0.000 HD
ENDBRANCH   1  28
BRANCH   4  30
ATOM     30  C   UNL     1      -7.029  11.465  20.385  0.00  0.00    +0.000 C 
ATOM     31  O   UNL     1      -7.396  10.532  21.079  0.00  0.00    +0.000 OA
BRANCH  30  32
ATOM     32  O   UNL     1      -7.871  12.290  19.725  0.00  0.00    +0.000 OA
ATOM     33  H   UNL     1      -8.359  11.802  19.032  0.00  0.00    +0.000 HD
ENDBRANCH  30  32
ENDBRANCH   4  30
TORSDOF 7
ENDMDL
MODEL 9
REMARK VINA RESULT:      -7.0      9.714     12.502
REMARK  Name = 
REMARK  8 active torsions:
REMARK  status: ('A' for Active; 'I' for Inactive)
REMARK    1  A    between atoms: C_1  and  C_2
REMARK    2  A    between atoms: N_4  and  C_5
REMARK    3  A    between atoms: C_6  and  N_7
REMARK    4  A    between atoms: C_12  and  C_13
REMARK    5  A    between atoms: C_13  and  O_15
REMARK    6  A    between atoms: C_17  and  C_18
REMARK    7  A    between atoms: C_20  and  O_21
REMARK    8  A    between atoms: C_22  and  O_23
REMARK                            x       y       z     vdW  Elec       q    Type
REMARK                         _______ _______ _______ _____ _____    ______ ____
ROOT
ATOM      1  C   UNL     1      -4.009  12.056  19.818  0.00  0.00    +0.000 C 
ATOM      2  C   UNL     1      -5.360  12.476  20.487  0.00  0.00    +0.000 C 
ATOM      3  C   UNL     1      -5.182  13.035  21.855  0.00  0.00    +0.000 C 
ATOM      4  C   UNL     1      -3.990  13.342  22.385  0.00  0.00    +0.000 C 
ATOM      5  O   UNL     1      -2.792  13.153  21.758  0.00  0.00    +0.000 OA
ATOM      6  C   UNL     1      -2.753  12.793  20.374  0.00  0.00    +0.000 C 
ENDROOT
BRANCH   2   7
ATOM      7  N   UNL     1      -6.247  11.314  20.614  0.00  0.00    +0.000 N 
ATOM      8  C   UNL     1      -7.118  10.896  19.671  0.00  0.00    +0.000 C 
ATOM      9  N   UNL     1      -7.254  11.298  18.462  0.00  0.00    +0.000 NA
ATOM     10  N   UNL     1      -7.916   9.913  20.123  0.00  0.00    +0.000 N 
ATOM     11  H   UNL     1      -6.660  11.216  21.537  0.00  0.00    +0.000 HD
ATOM     12  H   UNL     1      -6.597  12.059  18.298  0.00  0.00    +0.000 HD
ATOM     13  H   UNL     1      -7.408   9.157  20.564  0.00  0.00    +0.000 HD
ATOM     14  H   UNL     1      -8.478   9.557  19.356  0.00  0.00    +0.000 HD
ENDBRANCH   2   7
BRANCH   6  15
ATOM     15  C   UNL     1      -1.445  11.952  20.117  0.00  0.00    +0.000 C 
ATOM     16  C   UNL     1      -0.261  12.204  21.056  0.00  0.00    +0.000 C 
ATOM     17  C   UNL     1       0.334  13.586  20.838  0.00  0.00    +0.000 C 
ATOM     18  C   UNL     1       0.738  13.772  19.371  0.00  0.00    +0.000 C 
ATOM     19  C   UNL     1      -0.331  13.279  18.386  0.00  0.00    +0.000 C 
ATOM     20  O   UNL     1      -0.955  12.043  18.762  0.00  0.00    +0.000 OA
BRANCH  17  21
ATOM     21  O   UNL     1       1.468  13.734  21.693  0.00  0.00    +0.000 OA
ATOM     22  H   UNL     1       2.171  14.131  21.137  0.00  0.00    +0.000 HD
ENDBRANCH  17  21
BRANCH  18  23
ATOM     23  O   UNL     1       1.966  13.048  19.165  0.00  0.00    +0.000 OA
ATOM     24  H   UNL     1       2.566  13.273  19.897  0.00  0.00    +0.000 HD
ENDBRANCH  18  23
ENDBRANCH   6  15
BRANCH   1  28
ATOM     25  C   UNL     1      -3.953  11.309  16.063  0.00  0.00    +0.000 C 
ATOM     26  C   UNL     1      -3.928  11.013  17.537  0.00  0.00    +0.000 C 
ATOM     27  O   UNL     1      -3.773   9.886  17.994  0.00  0.00    +0.000 OA
ATOM     28  N   UNL     1      -4.061  12.128  18.338  0.00  0.00    +0.000 N 
ATOM     29  H   UNL     1      -4.211  13.034  17.904  0.00  0.00    +0.000 HD
ENDBRANCH   1  28
BRANCH   4  30
ATOM     30  C   UNL     1      -3.957  13.952  23.749  0.00  0.00    +0.000 C 
ATOM     31  O   UNL     1      -3.273  14.907  24.078  0.00  0.00    +0.000 OA
BRANCH  30  32
ATOM     32  O   UNL     1      -4.785  13.294  24.590  0.00  0.00    +0.000 OA
ATOM     33  H   UNL     1      -5.475  13.895  24.934  0.00  0.00    +0.000 HD
ENDBRANCH  30  32
ENDBRANCH   4  30
TORSDOF 7
ENDMDL
