MODEL 1
REMARK VINA RESULT:      -8.5      0.000      0.000
REMARK  Name = 
REMARK  10 active torsions:
REMARK  status: ('A' for Active; 'I' for Inactive)
REMARK    1  A    between atoms: C_1  and  C_2
REMARK    2  A    between atoms: N_4  and  C_5
REMARK    3  A    between atoms: C_10  and  O_11
REMARK    4  A    between atoms: O_11  and  C_12
REMARK    5  A    between atoms: C_12  and  C_13
REMARK    6  A    between atoms: N_15  and  C_16
REMARK    7  A    between atoms: C_16  and  C_17
REMARK    8  A    between atoms: C_17  and  O_18
REMARK    9  A    between atoms: C_17  and  C_19
REMARK   10  A    between atoms: C_19  and  N_20
REMARK                            x       y       z     vdW  Elec       q    Type
REMARK                         _______ _______ _______ _____ _____    ______ ____
ROOT
ATOM      1  C   UNL     1       3.009   2.078  18.342  0.00  0.00    +0.000 C 
ATOM      2  O   UNL     1       3.729   1.127  18.033  0.00  0.00    +0.000 OA
ATOM      3  N   UNL     1       2.255   1.970  19.485  0.00  0.00    +0.000 N 
ATOM      4  H   UNL     1       2.423   1.111  19.994  0.00  0.00    +0.000 HD
ENDROOT
BRANCH   1   5
ATOM      5  C   UNL     1       2.909   3.337  17.482  0.00  0.00    +0.000 C 
BRANCH   5   6
ATOM      6  O   UNL     1       4.062   3.398  16.660  0.00  0.00    +0.000 OA
BRANCH   6  12
ATOM      7  C   UNL     1       6.270   4.124  16.238  0.00  0.00    +0.000 A 
ATOM      8  N   UNL     1       7.479   4.611  16.595  0.00  0.00    +0.000 NA
ATOM      9  C   UNL     1       7.566   5.175  17.817  0.00  0.00    +0.000 A 
ATOM     10  C   UNL     1       6.524   5.205  18.729  0.00  0.00    +0.000 A 
ATOM     11  C   UNL     1       5.312   4.617  18.373  0.00  0.00    +0.000 A 
ATOM     12  C   UNL     1       5.168   4.059  17.106  0.00  0.00    +0.000 A 
BRANCH   7  16
ATOM     13  C   UNL     1       6.566   3.608  12.550  0.00  0.00    +0.000 C 
ATOM     14  C   UNL     1       6.683   4.366  13.842  0.00  0.00    +0.000 C 
ATOM     15  O   UNL     1       7.194   5.480  13.876  0.00  0.00    +0.000 OA
ATOM     16  N   UNL     1       6.229   3.635  14.924  0.00  0.00    +0.000 N 
ATOM     17  H   UNL     1       6.360   2.634  14.881  0.00  0.00    +0.000 HD
ENDBRANCH   7  16
ENDBRANCH   6  12
ENDBRANCH   5   6
ENDBRANCH   1   5
BRANCH   3  18
ATOM     18  C   UNL     1       1.165   2.837  19.898  0.00  0.00    +0.000 C 
BRANCH  18  19
ATOM     19  C   UNL     1       1.500   3.703  21.123  0.00  0.00    +0.000 C 
BRANCH  19  20
ATOM     20  O   UNL     1       2.105   2.919  22.156  0.00  0.00    +0.000 OA
ATOM     21  H   UNL     1       1.443   2.819  22.864  0.00  0.00    +0.000 HD
ENDBRANCH  19  20
BRANCH  19  22
ATOM     22  C   UNL     1       2.400   4.904  20.746  0.00  0.00    +0.000 C 
BRANCH  22  23
ATOM     23  N   UNL     1       1.660   5.974  20.052  0.00  0.00    +0.000 NA
ATOM     24  C   UNL     1       2.053   6.128  18.636  0.00  0.00    +0.000 C 
ATOM     25  C   UNL     1       2.814   7.409  18.284  0.00  0.00    +0.000 C 
ATOM     26  C   UNL     1       2.012   8.586  18.758  0.00  0.00    +0.000 A 
ATOM     27  C   UNL     1       1.863   9.740  17.997  0.00  0.00    +0.000 A 
ATOM     28  C   UNL     1       1.072  10.786  18.483  0.00  0.00    +0.000 A 
ATOM     29  C   UNL     1       0.453  10.672  19.731  0.00  0.00    +0.000 A 
ATOM     30  C   UNL     1       0.620   9.523  20.500  0.00  0.00    +0.000 A 
ATOM     31  C   UNL     1       1.398   8.468  20.016  0.00  0.00    +0.000 A 
ATOM     32  C   UNL     1       1.686   7.226  20.832  0.00  0.00    +0.000 C 
ENDBRANCH  22  23
ENDBRANCH  19  22
ENDBRANCH  18  19
ENDBRANCH   3  18
TORSDOF 9
ENDMDL
MODEL 2
REMARK VINA RESULT:      -8.3      2.434      6.793
REMARK  Name = 
REMARK  10 active torsions:
REMARK  status: ('A' for Active; 'I' for Inactive)
REMARK    1  A    between atoms: C_1  and  C_2
REMARK    2  A    between atoms: N_4  and  C_5
REMARK    3  A    between atoms: C_10  and  O_11
REMARK    4  A    between atoms: O_11  and  C_12
REMARK    5  A    between atoms: C_12  and  C_13
REMARK    6  A    between atoms: N_15  and  C_16
REMARK    7  A    between atoms: C_16  and  C_17
REMARK    8  A    between atoms: C_17  and  O_18
REMARK    9  A    between atoms: C_17  and  C_19
REMARK   10  A    between atoms: C_19  and  N_20
REMARK                            x       y       z     vdW  Elec       q    Type
REMARK                         _______ _______ _______ _____ _____    ______ ____
ROOT
ATOM      1  C   UNL     1       2.027   4.190  21.083  0.00  0.00    +0.000 C 
ATOM      2  O   UNL     1       2.203   3.800  22.239  0.00  0.00    +0.000 OA
ATOM      3  N   UNL     1       1.249   3.419  20.254  0.00  0.00    +0.000 N 
ATOM      4  H   UNL     1       0.848   2.613  20.718  0.00  0.00    +0.000 HD
ENDROOT
BRANCH   1   5
ATOM      5  C   UNL     1       2.669   5.470  20.549  0.00  0.00    +0.000 C 
BRANCH   5   6
ATOM      6  O   UNL     1       1.700   6.502  20.606  0.00  0.00    +0.000 OA
BRANCH   6  12
ATOM      7  C   UNL     1       1.030   8.698  20.048  0.00  0.00    +0.000 A 
ATOM      8  N   UNL     1       0.906   9.757  19.218  0.00  0.00    +0.000 NA
ATOM      9  C   UNL     1       1.670   9.746  18.107  0.00  0.00    +0.000 A 
ATOM     10  C   UNL     1       2.493   8.692  17.747  0.00  0.00    +0.000 A 
ATOM     11  C   UNL     1       2.538   7.571  18.572  0.00  0.00    +0.000 A 
ATOM     12  C   UNL     1       1.795   7.558  19.750  0.00  0.00    +0.000 A 
BRANCH   7  16
ATOM     13  C   UNL     1      -0.206   9.351  23.512  0.00  0.00    +0.000 C 
ATOM     14  C   UNL     1       0.814   9.283  22.410  0.00  0.00    +0.000 C 
ATOM     15  O   UNL     1       1.962   9.673  22.588  0.00  0.00    +0.000 OA
ATOM     16  N   UNL     1       0.276   8.817  21.224  0.00  0.00    +0.000 N 
ATOM     17  H   UNL     1      -0.689   9.051  21.043  0.00  0.00    +0.000 HD
ENDBRANCH   7  16
ENDBRANCH   6  12
ENDBRANCH   5   6
ENDBRANCH   1   5
BRANCH   3  18
ATOM     18  C   UNL     1       1.119   3.544  18.813  0.00  0.00    +0.000 C 
BRANCH  18  19
ATOM     19  C   UNL     1       2.269   2.885  18.034  0.00  0.00    +0.000 C 
BRANCH  19  20
ATOM     20  O   UNL     1       1.897   1.582  17.573  0.00  0.00    +0.000 OA
ATOM     21  H   UNL     1       1.655   1.669  16.632  0.00  0.00    +0.000 HD
ENDBRANCH  19  20
BRANCH  19  22
ATOM     22  C   UNL     1       2.743   3.769  16.856  0.00  0.00    +0.000 C 
BRANCH  22  23
ATOM     23  N   UNL     1       4.178   4.096  16.931  0.00  0.00    +0.000 NA
ATOM     24  C   UNL     1       4.887   3.357  17.996  0.00  0.00    +0.000 C 
ATOM     25  C   UNL     1       5.368   4.189  19.189  0.00  0.00    +0.000 C 
ATOM     26  C   UNL     1       6.197   5.328  18.670  0.00  0.00    +0.000 A 
ATOM     27  C   UNL     1       7.379   5.727  19.286  0.00  0.00    +0.000 A 
ATOM     28  C   UNL     1       8.122   6.774  18.730  0.00  0.00    +0.000 A 
ATOM     29  C   UNL     1       7.668   7.419  17.577  0.00  0.00    +0.000 A 
ATOM     30  C   UNL     1       6.474   7.029  16.974  0.00  0.00    +0.000 A 
ATOM     31  C   UNL     1       5.731   5.977  17.515  0.00  0.00    +0.000 A 
ATOM     32  C   UNL     1       4.389   5.556  16.959  0.00  0.00    +0.000 C 
ENDBRANCH  22  23
ENDBRANCH  19  22
ENDBRANCH  18  19
ENDBRANCH   3  18
TORSDOF 9
ENDMDL
MODEL 3
REMARK VINA RESULT:      -8.1      2.106      3.828
REMARK  Name = 
REMARK  10 active torsions:
REMARK  status: ('A' for Active; 'I' for Inactive)
REMARK    1  A    between atoms: C_1  and  C_2
REMARK    2  A    between atoms: N_4  and  C_5
REMARK    3  A    between atoms: C_10  and  O_11
REMARK    4  A    between atoms: O_11  and  C_12
REMARK    5  A    between atoms: C_12  and  C_13
REMARK    6  A    between atoms: N_15  and  C_16
REMARK    7  A    between atoms: C_16  and  C_17
REMARK    8  A    between atoms: C_17  and  O_18
REMARK    9  A    between atoms: C_17  and  C_19
REMARK   10  A    between atoms: C_19  and  N_20
REMARK                            x       y       z     vdW  Elec       q    Type
REMARK                         _______ _______ _______ _____ _____    ______ ____
ROOT
ATOM      1  C   UNL     1       2.766   3.858  17.646  0.00  0.00    +0.000 C 
ATOM      2  O   UNL     1       1.973   3.362  16.842  0.00  0.00    +0.000 OA
ATOM      3  N   UNL     1       2.298   4.828  18.497  0.00  0.00    +0.000 N 
ATOM      4  H   UNL     1       1.304   4.998  18.402  0.00  0.00    +0.000 HD
ENDROOT
BRANCH   1   5
ATOM      5  C   UNL     1       4.238   3.449  17.695  0.00  0.00    +0.000 C 
BRANCH   5   6
ATOM      6  O   UNL     1       5.012   4.551  17.255  0.00  0.00    +0.000 OA
BRANCH   6  12
ATOM      7  C   UNL     1       6.922   5.078  15.968  0.00  0.00    +0.000 A 
ATOM      8  N   UNL     1       7.608   5.222  14.812  0.00  0.00    +0.000 NA
ATOM      9  C   UNL     1       7.076   4.638  13.718  0.00  0.00    +0.000 A 
ATOM     10  C   UNL     1       5.854   3.985  13.709  0.00  0.00    +0.000 A 
ATOM     11  C   UNL     1       5.122   3.927  14.892  0.00  0.00    +0.000 A 
ATOM     12  C   UNL     1       5.652   4.483  16.054  0.00  0.00    +0.000 A 
BRANCH   7  16
ATOM     13  C   UNL     1       8.198   7.295  18.690  0.00  0.00    +0.000 C 
ATOM     14  C   UNL     1       7.426   6.957  17.445  0.00  0.00    +0.000 C 
ATOM     15  O   UNL     1       6.710   7.790  16.900  0.00  0.00    +0.000 OA
ATOM     16  N   UNL     1       7.575   5.632  17.079  0.00  0.00    +0.000 N 
ATOM     17  H   UNL     1       7.694   4.966  17.828  0.00  0.00    +0.000 HD
ENDBRANCH   7  16
ENDBRANCH   6  12
ENDBRANCH   5   6
ENDBRANCH   1   5
BRANCH   3  18
ATOM     18  C   UNL     1       3.090   5.715  19.332  0.00  0.00    +0.000 C 
BRANCH  18  19
ATOM     19  C   UNL     1       3.183   7.150  18.787  0.00  0.00    +0.000 C 
BRANCH  19  20
ATOM     20  O   UNL     1       3.746   7.163  17.471  0.00  0.00    +0.000 OA
ATOM     21  H   UNL     1       4.699   6.978  17.566  0.00  0.00    +0.000 HD
ENDBRANCH  19  20
BRANCH  19  22
ATOM     22  C   UNL     1       1.808   7.858  18.804  0.00  0.00    +0.000 C 
BRANCH  22  23
ATOM     23  N   UNL     1       1.665   8.795  19.932  0.00  0.00    +0.000 NA
ATOM     24  C   UNL     1       1.241   8.135  21.185  0.00  0.00    +0.000 C 
ATOM     25  C   UNL     1      -0.175   8.456  21.671  0.00  0.00    +0.000 C 
ATOM     26  C   UNL     1      -0.320   9.947  21.764  0.00  0.00    +0.000 A 
ATOM     27  C   UNL     1      -0.970  10.566  22.827  0.00  0.00    +0.000 A 
ATOM     28  C   UNL     1      -1.038  11.962  22.870  0.00  0.00    +0.000 A 
ATOM     29  C   UNL     1      -0.472  12.722  21.844  0.00  0.00    +0.000 A 
ATOM     30  C   UNL     1       0.161  12.099  20.770  0.00  0.00    +0.000 A 
ATOM     31  C   UNL     1       0.244  10.705  20.725  0.00  0.00    +0.000 A 
ATOM     32  C   UNL     1       0.845   9.962  19.552  0.00  0.00    +0.000 C 
ENDBRANCH  22  23
ENDBRANCH  19  22
ENDBRANCH  18  19
ENDBRANCH   3  18
TORSDOF 9
ENDMDL
MODEL 4
REMARK VINA RESULT:      -8.1      2.106      3.643
REMARK  Name = 
REMARK  10 active torsions:
REMARK  status: ('A' for Active; 'I' for Inactive)
REMARK    1  A    between atoms: C_1  and  C_2
REMARK    2  A    between atoms: N_4  and  C_5
REMARK    3  A    between atoms: C_10  and  O_11
REMARK    4  A    between atoms: O_11  and  C_12
REMARK    5  A    between atoms: C_12  and  C_13
REMARK    6  A    between atoms: N_15  and  C_16
REMARK    7  A    between atoms: C_16  and  C_17
REMARK    8  A    between atoms: C_17  and  O_18
REMARK    9  A    between atoms: C_17  and  C_19
REMARK   10  A    between atoms: C_19  and  N_20
REMARK                            x       y       z     vdW  Elec       q    Type
REMARK                         _______ _______ _______ _____ _____    ______ ____
ROOT
ATOM      1  C   UNL     1       4.532   3.809  18.759  0.00  0.00    +0.000 C 
ATOM      2  O   UNL     1       5.327   3.143  19.426  0.00  0.00    +0.000 OA
ATOM      3  N   UNL     1       3.907   4.867  19.370  0.00  0.00    +0.000 N 
ATOM      4  H   UNL     1       4.221   5.021  20.321  0.00  0.00    +0.000 HD
ENDROOT
BRANCH   1   5
ATOM      5  C   UNL     1       4.206   3.470  17.305  0.00  0.00    +0.000 C 
BRANCH   5   6
ATOM      6  O   UNL     1       4.469   4.619  16.519  0.00  0.00    +0.000 OA
BRANCH   6  12
ATOM      7  C   UNL     1       6.628   5.214  15.764  0.00  0.00    +0.000 A 
ATOM      8  N   UNL     1       7.589   5.365  14.826  0.00  0.00    +0.000 NA
ATOM      9  C   UNL     1       7.393   4.729  13.652  0.00  0.00    +0.000 A 
ATOM     10  C   UNL     1       6.247   4.014  13.344  0.00  0.00    +0.000 A 
ATOM     11  C   UNL     1       5.230   3.947  14.294  0.00  0.00    +0.000 A 
ATOM     12  C   UNL     1       5.408   4.556  15.533  0.00  0.00    +0.000 A 
BRANCH   7  16
ATOM     13  C   UNL     1       7.949   6.098  19.144  0.00  0.00    +0.000 C 
ATOM     14  C   UNL     1       7.738   5.224  17.940  0.00  0.00    +0.000 C 
ATOM     15  O   UNL     1       8.294   4.136  17.844  0.00  0.00    +0.000 OA
ATOM     16  N   UNL     1       6.937   5.826  16.987  0.00  0.00    +0.000 N 
ATOM     17  H   UNL     1       7.004   6.831  16.910  0.00  0.00    +0.000 HD
ENDBRANCH   7  16
ENDBRANCH   6  12
ENDBRANCH   5   6
ENDBRANCH   1   5
BRANCH   3  18
ATOM     18  C   UNL     1       2.767   5.616  18.871  0.00  0.00    +0.000 C 
BRANCH  18  19
ATOM     19  C   UNL     1       1.933   6.276  19.981  0.00  0.00    +0.000 C 
BRANCH  19  20
ATOM     20  O   UNL     1       2.165   5.642  21.243  0.00  0.00    +0.000 OA
ATOM     21  H   UNL     1       3.004   5.152  21.166  0.00  0.00    +0.000 HD
ENDBRANCH  19  20
BRANCH  19  22
ATOM     22  C   UNL     1       2.203   7.797  20.072  0.00  0.00    +0.000 C 
BRANCH  22  23
ATOM     23  N   UNL     1       0.978   8.579  20.317  0.00  0.00    +0.000 NA
ATOM     24  C   UNL     1       0.780   9.671  19.341  0.00  0.00    +0.000 C 
ATOM     25  C   UNL     1       0.938  11.095  19.882  0.00  0.00    +0.000 C 
ATOM     26  C   UNL     1       0.036  11.255  21.070  0.00  0.00    +0.000 A 
ATOM     27  C   UNL     1      -0.716  12.407  21.282  0.00  0.00    +0.000 A 
ATOM     28  C   UNL     1      -1.565  12.477  22.392  0.00  0.00    +0.000 A 
ATOM     29  C   UNL     1      -1.640  11.404  23.284  0.00  0.00    +0.000 A 
ATOM     30  C   UNL     1      -0.870  10.261  23.080  0.00  0.00    +0.000 A 
ATOM     31  C   UNL     1      -0.029  10.177  21.967  0.00  0.00    +0.000 A 
ATOM     32  C   UNL     1       0.892   9.000  21.728  0.00  0.00    +0.000 C 
ENDBRANCH  22  23
ENDBRANCH  19  22
ENDBRANCH  18  19
ENDBRANCH   3  18
TORSDOF 9
ENDMDL
MODEL 5
REMARK VINA RESULT:      -8.0      1.801      3.212
REMARK  Name = 
REMARK  10 active torsions:
REMARK  status: ('A' for Active; 'I' for Inactive)
REMARK    1  A    between atoms: C_1  and  C_2
REMARK    2  A    between atoms: N_4  and  C_5
REMARK    3  A    between atoms: C_10  and  O_11
REMARK    4  A    between atoms: O_11  and  C_12
REMARK    5  A    between atoms: C_12  and  C_13
REMARK    6  A    between atoms: N_15  and  C_16
REMARK    7  A    between atoms: C_16  and  C_17
REMARK    8  A    between atoms: C_17  and  O_18
REMARK    9  A    between atoms: C_17  and  C_19
REMARK   10  A    between atoms: C_19  and  N_20
REMARK                            x       y       z     vdW  Elec       q    Type
REMARK                         _______ _______ _______ _____ _____    ______ ____
ROOT
ATOM      1  C   UNL     1       2.807   3.319  17.627  0.00  0.00    +0.000 C 
ATOM      2  O   UNL     1       2.096   3.255  16.622  0.00  0.00    +0.000 OA
ATOM      3  N   UNL     1       2.221   3.703  18.808  0.00  0.00    +0.000 N 
ATOM      4  H   UNL     1       1.221   3.844  18.730  0.00  0.00    +0.000 HD
ENDROOT
BRANCH   1   5
ATOM      5  C   UNL     1       4.306   3.021  17.585  0.00  0.00    +0.000 C 
BRANCH   5   6
ATOM      6  O   UNL     1       4.980   4.218  17.238  0.00  0.00    +0.000 OA
BRANCH   6  12
ATOM      7  C   UNL     1       6.894   4.940  16.055  0.00  0.00    +0.000 A 
ATOM      8  N   UNL     1       7.596   5.221  14.935  0.00  0.00    +0.000 NA
ATOM      9  C   UNL     1       7.111   4.728  13.778  0.00  0.00    +0.000 A 
ATOM     10  C   UNL     1       5.917   4.034  13.675  0.00  0.00    +0.000 A 
ATOM     11  C   UNL     1       5.163   3.833  14.830  0.00  0.00    +0.000 A 
ATOM     12  C   UNL     1       5.647   4.292  16.052  0.00  0.00    +0.000 A 
BRANCH   7  16
ATOM     13  C   UNL     1       8.200   6.982  18.896  0.00  0.00    +0.000 C 
ATOM     14  C   UNL     1       7.524   6.745  17.575  0.00  0.00    +0.000 C 
ATOM     15  O   UNL     1       7.013   7.669  16.952  0.00  0.00    +0.000 OA
ATOM     16  N   UNL     1       7.501   5.406  17.230  0.00  0.00    +0.000 N 
ATOM     17  H   UNL     1       7.432   4.744  17.990  0.00  0.00    +0.000 HD
ENDBRANCH   7  16
ENDBRANCH   6  12
ENDBRANCH   5   6
ENDBRANCH   1   5
BRANCH   3  18
ATOM     18  C   UNL     1       2.897   4.090  20.034  0.00  0.00    +0.000 C 
BRANCH  18  19
ATOM     19  C   UNL     1       3.251   5.585  20.094  0.00  0.00    +0.000 C 
BRANCH  19  20
ATOM     20  O   UNL     1       4.587   5.813  19.635  0.00  0.00    +0.000 OA
ATOM     21  H   UNL     1       5.006   6.428  20.266  0.00  0.00    +0.000 HD
ENDBRANCH  19  20
BRANCH  19  22
ATOM     22  C   UNL     1       2.242   6.445  19.298  0.00  0.00    +0.000 C 
BRANCH  22  23
ATOM     23  N   UNL     1       2.129   7.819  19.820  0.00  0.00    +0.000 NA
ATOM     24  C   UNL     1       1.432   7.890  21.121  0.00  0.00    +0.000 C 
ATOM     25  C   UNL     1       0.048   8.547  21.110  0.00  0.00    +0.000 C 
ATOM     26  C   UNL     1       0.172   9.905  20.481  0.00  0.00    +0.000 A 
ATOM     27  C   UNL     1      -0.485  11.021  20.989  0.00  0.00    +0.000 A 
ATOM     28  C   UNL     1      -0.298  12.264  20.376  0.00  0.00    +0.000 A 
ATOM     29  C   UNL     1       0.527  12.374  19.254  0.00  0.00    +0.000 A 
ATOM     30  C   UNL     1       1.167  11.250  18.736  0.00  0.00    +0.000 A 
ATOM     31  C   UNL     1       0.996  10.006  19.349  0.00  0.00    +0.000 A 
ATOM     32  C   UNL     1       1.596   8.734  18.793  0.00  0.00    +0.000 C 
ENDBRANCH  22  23
ENDBRANCH  19  22
ENDBRANCH  18  19
ENDBRANCH   3  18
TORSDOF 9
ENDMDL
MODEL 6
REMARK VINA RESULT:      -8.0      1.344      2.575
REMARK  Name = 
REMARK  10 active torsions:
REMARK  status: ('A' for Active; 'I' for Inactive)
REMARK    1  A    between atoms: C_1  and  C_2
REMARK    2  A    between atoms: N_4  and  C_5
REMARK    3  A    between atoms: C_10  and  O_11
REMARK    4  A    between atoms: O_11  and  C_12
REMARK    5  A    between atoms: C_12  and  C_13
REMARK    6  A    between atoms: N_15  and  C_16
REMARK    7  A    between atoms: C_16  and  C_17
REMARK    8  A    between atoms: C_17  and  O_18
REMARK    9  A    between atoms: C_17  and  C_19
REMARK   10  A    between atoms: C_19  and  N_20
REMARK                            x       y       z     vdW  Elec       q    Type
REMARK                         _______ _______ _______ _____ _____    ______ ____
ROOT
ATOM      1  C   UNL     1       3.085   2.523  17.637  0.00  0.00    +0.000 C 
ATOM      2  O   UNL     1       2.362   2.274  16.670  0.00  0.00    +0.000 OA
ATOM      3  N   UNL     1       2.574   2.317  18.894  0.00  0.00    +0.000 N 
ATOM      4  H   UNL     1       1.643   1.918  18.886  0.00  0.00    +0.000 HD
ENDROOT
BRANCH   1   5
ATOM      5  C   UNL     1       4.500   3.077  17.473  0.00  0.00    +0.000 C 
BRANCH   5   6
ATOM      6  O   UNL     1       4.437   4.178  16.583  0.00  0.00    +0.000 OA
BRANCH   6  12
ATOM      7  C   UNL     1       6.511   5.067  15.881  0.00  0.00    +0.000 A 
ATOM      8  N   UNL     1       7.443   5.397  14.960  0.00  0.00    +0.000 NA
ATOM      9  C   UNL     1       7.312   4.835  13.740  0.00  0.00    +0.000 A 
ATOM     10  C   UNL     1       6.252   4.022  13.375  0.00  0.00    +0.000 A 
ATOM     11  C   UNL     1       5.255   3.768  14.314  0.00  0.00    +0.000 A 
ATOM     12  C   UNL     1       5.371   4.296  15.597  0.00  0.00    +0.000 A 
BRANCH   7  16
ATOM     13  C   UNL     1       7.775   5.855  19.306  0.00  0.00    +0.000 C 
ATOM     14  C   UNL     1       7.666   5.063  18.034  0.00  0.00    +0.000 C 
ATOM     15  O   UNL     1       8.377   4.085  17.836  0.00  0.00    +0.000 OA
ATOM     16  N   UNL     1       6.758   5.615  17.148  0.00  0.00    +0.000 N 
ATOM     17  H   UNL     1       6.670   6.621  17.159  0.00  0.00    +0.000 HD
ENDBRANCH   7  16
ENDBRANCH   6  12
ENDBRANCH   5   6
ENDBRANCH   1   5
BRANCH   3  18
ATOM     18  C   UNL     1       3.137   2.774  20.153  0.00  0.00    +0.000 C 
BRANCH  18  19
ATOM     19  C   UNL     1       2.497   4.070  20.676  0.00  0.00    +0.000 C 
BRANCH  19  20
ATOM     20  O   UNL     1       2.582   4.144  22.103  0.00  0.00    +0.000 OA
ATOM     21  H   UNL     1       2.271   5.031  22.362  0.00  0.00    +0.000 HD
ENDBRANCH  19  20
BRANCH  19  22
ATOM     22  C   UNL     1       3.126   5.324  20.023  0.00  0.00    +0.000 C 
BRANCH  22  23
ATOM     23  N   UNL     1       2.115   6.275  19.528  0.00  0.00    +0.000 NA
ATOM     24  C   UNL     1       2.357   6.708  18.136  0.00  0.00    +0.000 C 
ATOM     25  C   UNL     1       2.782   8.168  17.948  0.00  0.00    +0.000 C 
ATOM     26  C   UNL     1       1.773   9.048  18.625  0.00  0.00    +0.000 A 
ATOM     27  C   UNL     1       1.312  10.229  18.052  0.00  0.00    +0.000 A 
ATOM     28  C   UNL     1       0.345  10.985  18.721  0.00  0.00    +0.000 A 
ATOM     29  C   UNL     1      -0.139  10.562  19.962  0.00  0.00    +0.000 A 
ATOM     30  C   UNL     1       0.340   9.389  20.543  0.00  0.00    +0.000 A 
ATOM     31  C   UNL     1       1.297   8.621  19.876  0.00  0.00    +0.000 A 
ATOM     32  C   UNL     1       1.917   7.382  20.484  0.00  0.00    +0.000 C 
ENDBRANCH  22  23
ENDBRANCH  19  22
ENDBRANCH  18  19
ENDBRANCH   3  18
TORSDOF 9
ENDMDL
MODEL 7
REMARK VINA RESULT:      -7.9      5.840      8.233
REMARK  Name = 
REMARK  10 active torsions:
REMARK  status: ('A' for Active; 'I' for Inactive)
REMARK    1  A    between atoms: C_1  and  C_2
REMARK    2  A    between atoms: N_4  and  C_5
REMARK    3  A    between atoms: C_10  and  O_11
REMARK    4  A    between atoms: O_11  and  C_12
REMARK    5  A    between atoms: C_12  and  C_13
REMARK    6  A    between atoms: N_15  and  C_16
REMARK    7  A    between atoms: C_16  and  C_17
REMARK    8  A    between atoms: C_17  and  O_18
REMARK    9  A    between atoms: C_17  and  C_19
REMARK   10  A    between atoms: C_19  and  N_20
REMARK                            x       y       z     vdW  Elec       q    Type
REMARK                         _______ _______ _______ _____ _____    ______ ____
ROOT
ATOM      1  C   UNL     1       8.243   9.522  17.995  0.00  0.00    +0.000 C 
ATOM      2  O   UNL     1       8.049  10.619  17.466  0.00  0.00    +0.000 OA
ATOM      3  N   UNL     1       7.743   8.407  17.369  0.00  0.00    +0.000 N 
ATOM      4  H   UNL     1       7.300   8.613  16.481  0.00  0.00    +0.000 HD
ENDROOT
BRANCH   1   5
ATOM      5  C   UNL     1       8.985   9.380  19.324  0.00  0.00    +0.000 C 
BRANCH   5   6
ATOM      6  O   UNL     1       9.953  10.412  19.396  0.00  0.00    +0.000 OA
BRANCH   6  12
ATOM      7  C   UNL     1      10.466  12.639  19.997  0.00  0.00    +0.000 A 
ATOM      8  N   UNL     1      10.492  13.696  20.839  0.00  0.00    +0.000 NA
ATOM      9  C   UNL     1       9.684  13.629  21.917  0.00  0.00    +0.000 A 
ATOM     10  C   UNL     1       8.910  12.525  22.235  0.00  0.00    +0.000 A 
ATOM     11  C   UNL     1       8.968  11.411  21.400  0.00  0.00    +0.000 A 
ATOM     12  C   UNL     1       9.759  11.453  20.255  0.00  0.00    +0.000 A 
BRANCH   7  16
ATOM     13  C   UNL     1      11.869  13.580  16.666  0.00  0.00    +0.000 C 
ATOM     14  C   UNL     1      10.820  13.501  17.739  0.00  0.00    +0.000 C 
ATOM     15  O   UNL     1       9.737  14.060  17.606  0.00  0.00    +0.000 OA
ATOM     16  N   UNL     1      11.260  12.813  18.855  0.00  0.00    +0.000 N 
ATOM     17  H   UNL     1      12.243  12.891  19.076  0.00  0.00    +0.000 HD
ENDBRANCH   7  16
ENDBRANCH   6  12
ENDBRANCH   5   6
ENDBRANCH   1   5
BRANCH   3  18
ATOM     18  C   UNL     1       7.629   7.070  17.925  0.00  0.00    +0.000 C 
BRANCH  18  19
ATOM     19  C   UNL     1       6.869   6.091  17.016  0.00  0.00    +0.000 C 
BRANCH  19  20
ATOM     20  O   UNL     1       7.471   6.022  15.719  0.00  0.00    +0.000 OA
ATOM     21  H   UNL     1       7.534   6.936  15.384  0.00  0.00    +0.000 HD
ENDBRANCH  19  20
BRANCH  19  22
ATOM     22  C   UNL     1       6.767   4.683  17.649  0.00  0.00    +0.000 C 
BRANCH  22  23
ATOM     23  N   UNL     1       5.373   4.242  17.836  0.00  0.00    +0.000 NA
ATOM     24  C   UNL     1       4.383   5.228  17.355  0.00  0.00    +0.000 C 
ATOM     25  C   UNL     1       3.551   5.928  18.434  0.00  0.00    +0.000 C 
ATOM     26  C   UNL     1       2.905   4.880  19.292  0.00  0.00    +0.000 A 
ATOM     27  C   UNL     1       1.587   4.982  19.725  0.00  0.00    +0.000 A 
ATOM     28  C   UNL     1       1.035   3.952  20.492  0.00  0.00    +0.000 A 
ATOM     29  C   UNL     1       1.810   2.841  20.832  0.00  0.00    +0.000 A 
ATOM     30  C   UNL     1       3.136   2.750  20.414  0.00  0.00    +0.000 A 
ATOM     31  C   UNL     1       3.693   3.769  19.636  0.00  0.00    +0.000 A 
ATOM     32  C   UNL     1       5.146   3.774  19.216  0.00  0.00    +0.000 C 
ENDBRANCH  22  23
ENDBRANCH  19  22
ENDBRANCH  18  19
ENDBRANCH   3  18
TORSDOF 9
ENDMDL
MODEL 8
REMARK VINA RESULT:      -7.8      4.364      6.565
REMARK  Name = 
REMARK  10 active torsions:
REMARK  status: ('A' for Active; 'I' for Inactive)
REMARK    1  A    between atoms: C_1  and  C_2
REMARK    2  A    between atoms: N_4  and  C_5
REMARK    3  A    between atoms: C_10  and  O_11
REMARK    4  A    between atoms: O_11  and  C_12
REMARK    5  A    between atoms: C_12  and  C_13
REMARK    6  A    between atoms: N_15  and  C_16
REMARK    7  A    between atoms: C_16  and  C_17
REMARK    8  A    between atoms: C_17  and  O_18
REMARK    9  A    between atoms: C_17  and  C_19
REMARK   10  A    between atoms: C_19  and  N_20
REMARK                            x       y       z     vdW  Elec       q    Type
REMARK                         _______ _______ _______ _____ _____    ______ ____
ROOT
ATOM      1  C   UNL     1       2.283   8.171  18.538  0.00  0.00    +0.000 C 
ATOM      2  O   UNL     1       3.056   7.802  17.651  0.00  0.00    +0.000 OA
ATOM      3  N   UNL     1       1.608   9.352  18.353  0.00  0.00    +0.000 N 
ATOM      4  H   UNL     1       1.787   9.777  17.451  0.00  0.00    +0.000 HD
ENDROOT
BRANCH   1   5
ATOM      5  C   UNL     1       2.088   7.378  19.829  0.00  0.00    +0.000 C 
BRANCH   5   6
ATOM      6  O   UNL     1       2.917   6.231  19.767  0.00  0.00    +0.000 OA
BRANCH   6  12
ATOM      7  C   UNL     1       2.746   4.246  18.497  0.00  0.00    +0.000 A 
ATOM      8  N   UNL     1       2.163   3.082  18.133  0.00  0.00    +0.000 NA
ATOM      9  C   UNL     1       1.240   2.579  18.977  0.00  0.00    +0.000 A 
ATOM     10  C   UNL     1       0.815   3.222  20.128  0.00  0.00    +0.000 A 
ATOM     11  C   UNL     1       1.364   4.464  20.438  0.00  0.00    +0.000 A 
ATOM     12  C   UNL     1       2.350   5.001  19.613  0.00  0.00    +0.000 A 
BRANCH   7  16
ATOM     13  C   UNL     1       5.980   4.969  16.774  0.00  0.00    +0.000 C 
ATOM     14  C   UNL     1       5.100   4.464  17.883  0.00  0.00    +0.000 C 
ATOM     15  O   UNL     1       5.576   3.890  18.855  0.00  0.00    +0.000 OA
ATOM     16  N   UNL     1       3.757   4.665  17.621  0.00  0.00    +0.000 N 
ATOM     17  H   UNL     1       3.474   4.617  16.652  0.00  0.00    +0.000 HD
ENDBRANCH   7  16
ENDBRANCH   6  12
ENDBRANCH   5   6
ENDBRANCH   1   5
BRANCH   3  18
ATOM     18  C   UNL     1       0.861  10.097  19.351  0.00  0.00    +0.000 C 
BRANCH  18  19
ATOM     19  C   UNL     1      -0.149  11.088  18.749  0.00  0.00    +0.000 C 
BRANCH  19  20
ATOM     20  O   UNL     1       0.521  12.212  18.168  0.00  0.00    +0.000 OA
ATOM     21  H   UNL     1       0.256  12.249  17.230  0.00  0.00    +0.000 HD
ENDBRANCH  19  20
BRANCH  19  22
ATOM     22  C   UNL     1      -1.074  10.405  17.714  0.00  0.00    +0.000 C 
BRANCH  22  23
ATOM     23  N   UNL     1      -2.486  10.394  18.135  0.00  0.00    +0.000 NA
ATOM     24  C   UNL     1      -3.411   9.988  17.056  0.00  0.00    +0.000 C 
ATOM     25  C   UNL     1      -4.329  11.085  16.507  0.00  0.00    +0.000 C 
ATOM     26  C   UNL     1      -5.070  11.704  17.656  0.00  0.00    +0.000 A 
ATOM     27  C   UNL     1      -6.421  12.028  17.582  0.00  0.00    +0.000 A 
ATOM     28  C   UNL     1      -7.059  12.570  18.702  0.00  0.00    +0.000 A 
ATOM     29  C   UNL     1      -6.337  12.798  19.876  0.00  0.00    +0.000 A 
ATOM     30  C   UNL     1      -4.979  12.492  19.941  0.00  0.00    +0.000 A 
ATOM     31  C   UNL     1      -4.336  11.938  18.831  0.00  0.00    +0.000 A 
ATOM     32  C   UNL     1      -2.850  11.656  18.806  0.00  0.00    +0.000 C 
ENDBRANCH  22  23
ENDBRANCH  19  22
ENDBRANCH  18  19
ENDBRANCH   3  18
TORSDOF 9
ENDMDL
MODEL 9
REMARK VINA RESULT:      -7.8      3.291      7.836
REMARK  Name = 
REMARK  10 active torsions:
REMARK  status: ('A' for Active; 'I' for Inactive)
REMARK    1  A    between atoms: C_1  and  C_2
REMARK    2  A    between atoms: N_4  and  C_5
REMARK    3  A    between atoms: C_10  and  O_11
REMARK    4  A    between atoms: O_11  and  C_12
REMARK    5  A    between atoms: C_12  and  C_13
REMARK    6  A    between atoms: N_15  and  C_16
REMARK    7  A    between atoms: C_16  and  C_17
REMARK    8  A    between atoms: C_17  and  O_18
REMARK    9  A    between atoms: C_17  and  C_19
REMARK   10  A    between atoms: C_19  and  N_20
REMARK                            x       y       z     vdW  Elec       q    Type
REMARK                         _______ _______ _______ _____ _____    ______ ____
ROOT
ATOM      1  C   UNL     1       2.165   7.050  19.523  0.00  0.00    +0.000 C 
ATOM      2  O   UNL     1       2.606   7.672  18.554  0.00  0.00    +0.000 OA
ATOM      3  N   UNL     1       2.084   5.683  19.428  0.00  0.00    +0.000 N 
ATOM      4  H   UNL     1       2.460   5.319  18.561  0.00  0.00    +0.000 HD
ENDROOT
BRANCH   1   5
ATOM      5  C   UNL     1       1.683   7.754  20.790  0.00  0.00    +0.000 C 
BRANCH   5   6
ATOM      6  O   UNL     1       1.360   9.092  20.451  0.00  0.00    +0.000 OA
BRANCH   6  12
ATOM      7  C   UNL     1       0.426  11.188  21.013  0.00  0.00    +0.000 A 
ATOM      8  N   UNL     1      -0.224  12.051  21.825  0.00  0.00    +0.000 NA
ATOM      9  C   UNL     1      -0.895  11.514  22.864  0.00  0.00    +0.000 A 
ATOM     10  C   UNL     1      -0.884  10.164  23.174  0.00  0.00    +0.000 A 
ATOM     11  C   UNL     1      -0.134   9.304  22.376  0.00  0.00    +0.000 A 
ATOM     12  C   UNL     1       0.542   9.812  21.269  0.00  0.00    +0.000 A 
BRANCH   7  16
ATOM     13  C   UNL     1       2.545  13.215  18.699  0.00  0.00    +0.000 C 
ATOM     14  C   UNL     1       2.046  12.731  20.031  0.00  0.00    +0.000 C 
ATOM     15  O   UNL     1       2.570  13.103  21.075  0.00  0.00    +0.000 OA
ATOM     16  N   UNL     1       1.027  11.805  19.906  0.00  0.00    +0.000 N 
ATOM     17  H   UNL     1       1.063  11.199  19.098  0.00  0.00    +0.000 HD
ENDBRANCH   7  16
ENDBRANCH   6  12
ENDBRANCH   5   6
ENDBRANCH   1   5
BRANCH   3  18
ATOM     18  C   UNL     1       1.373   4.785  20.323  0.00  0.00    +0.000 C 
BRANCH  18  19
ATOM     19  C   UNL     1       2.018   3.395  20.437  0.00  0.00    +0.000 C 
BRANCH  19  20
ATOM     20  O   UNL     1       1.335   2.591  21.404  0.00  0.00    +0.000 OA
ATOM     21  H   UNL     1       0.701   2.033  20.917  0.00  0.00    +0.000 HD
ENDBRANCH  19  20
BRANCH  19  22
ATOM     22  C   UNL     1       2.076   2.676  19.068  0.00  0.00    +0.000 C 
BRANCH  22  23
ATOM     23  N   UNL     1       3.421   2.705  18.467  0.00  0.00    +0.000 NA
ATOM     24  C   UNL     1       4.482   3.061  19.432  0.00  0.00    +0.000 C 
ATOM     25  C   UNL     1       5.145   4.427  19.233  0.00  0.00    +0.000 C 
ATOM     26  C   UNL     1       5.643   4.512  17.820  0.00  0.00    +0.000 A 
ATOM     27  C   UNL     1       6.881   5.062  17.500  0.00  0.00    +0.000 A 
ATOM     28  C   UNL     1       7.300   5.078  16.166  0.00  0.00    +0.000 A 
ATOM     29  C   UNL     1       6.472   4.560  15.166  0.00  0.00    +0.000 A 
ATOM     30  C   UNL     1       5.225   4.028  15.488  0.00  0.00    +0.000 A 
ATOM     31  C   UNL     1       4.803   3.997  16.819  0.00  0.00    +0.000 A 
ATOM     32  C   UNL     1       3.431   3.508  17.229  0.00  0.00    +0.000 C 
ENDBRANCH  22  23
ENDBRANCH  19  22
ENDBRANCH  18  19
ENDBRANCH   3  18
TORSDOF 9
ENDMDL
