MODEL 1
REMARK VINA RESULT:      -8.6      0.000      0.000
REMARK  Name = 
REMARK  5 active torsions:
REMARK  status: ('A' for Active; 'I' for Inactive)
REMARK    1  A    between atoms: C_1  and  O_2
REMARK    2  A    between atoms: O_2  and  C_3
REMARK    3  A    between atoms: C_8  and  C_9
REMARK    4  A    between atoms: C_9  and  N_10
REMARK    5  A    between atoms: C_11  and  C_13
REMARK                            x       y       z     vdW  Elec       q    Type
REMARK                         _______ _______ _______ _____ _____    ______ ____
ROOT
ATOM      1  C   UNL     1       2.485   6.775  19.440  0.00  0.00    +0.000 A 
ATOM      2  C   UNL     1       1.863   6.822  20.709  0.00  0.00    +0.000 A 
ATOM      3  C   UNL     1       1.224   7.970  21.180  0.00  0.00    +0.000 A 
ATOM      4  C   UNL     1       1.111   9.055  20.328  0.00  0.00    +0.000 A 
ATOM      5  C   UNL     1       0.798  10.416  20.819  0.00  0.00    +0.000 A 
ATOM      6  O   UNL     1       0.681  10.648  22.018  0.00  0.00    +0.000 OA
ATOM      7  N   UNL     1       0.651  11.371  19.853  0.00  0.00    +0.000 N 
ATOM      8  C   UNL     1       0.201  10.908  18.640  0.00  0.00    +0.000 A 
ATOM      9  N   UNL     1       0.668   9.818  18.083  0.00  0.00    +0.000 NA
ATOM     10  C   UNL     1       1.409   8.946  18.966  0.00  0.00    +0.000 A 
ATOM     11  C   UNL     1       2.206   7.837  18.539  0.00  0.00    +0.000 A 
ATOM     12  C   UNL     1      -1.005  11.710  18.163  0.00  0.00    +0.000 C 
ATOM     13  C   UNL     1      -1.235  13.047  18.901  0.00  0.00    +0.000 C 
ATOM     14  C   UNL     1      -0.140  14.103  18.754  0.00  0.00    +0.000 C 
ATOM     15  C   UNL     1       1.312  13.662  18.921  0.00  0.00    +0.000 C 
ATOM     16  C   UNL     1       1.673  12.392  19.708  0.00  0.00    +0.000 C 
ENDROOT
BRANCH   1  18
ATOM     17  N   UNL     1       3.159   4.648  18.177  0.00  0.00    +0.000 N 
ATOM     18  C   UNL     1       3.348   5.533  19.237  0.00  0.00    +0.000 C 
ATOM     19  O   UNL     1       4.293   5.367  20.009  0.00  0.00    +0.000 OA
ATOM     20  H   UNL     1       2.508   4.868  17.436  0.00  0.00    +0.000 HD
BRANCH  17  21
ATOM     21  C   UNL     1       4.234   3.687  17.848  0.00  0.00    +0.000 C 
BRANCH  21  27
ATOM     22  C   UNL     1       6.535   4.568  17.115  0.00  0.00    +0.000 A 
ATOM     23  C   UNL     1       7.394   5.023  16.101  0.00  0.00    +0.000 A 
ATOM     24  C   UNL     1       7.018   4.952  14.761  0.00  0.00    +0.000 A 
ATOM     25  C   UNL     1       5.782   4.428  14.422  0.00  0.00    +0.000 A 
ATOM     26  C   UNL     1       4.899   4.027  15.428  0.00  0.00    +0.000 A 
ATOM     27  C   UNL     1       5.236   4.135  16.797  0.00  0.00    +0.000 A 
BRANCH  22  29
ATOM     28  C   UNL     1       7.681   5.621  18.882  0.00  0.00    +0.000 C 
ATOM     29  O   UNL     1       6.907   4.510  18.435  0.00  0.00    +0.000 OA
ENDBRANCH  22  29
ENDBRANCH  21  27
ENDBRANCH  17  21
ENDBRANCH   1  18
TORSDOF 4
ENDMDL
MODEL 2
REMARK VINA RESULT:      -8.5      2.500      9.036
REMARK  Name = 
REMARK  5 active torsions:
REMARK  status: ('A' for Active; 'I' for Inactive)
REMARK    1  A    between atoms: C_1  and  O_2
REMARK    2  A    between atoms: O_2  and  C_3
REMARK    3  A    between atoms: C_8  and  C_9
REMARK    4  A    between atoms: C_9  and  N_10
REMARK    5  A    between atoms: C_11  and  C_13
REMARK                            x       y       z     vdW  Elec       q    Type
REMARK                         _______ _______ _______ _____ _____    ______ ____
ROOT
ATOM      1  C   UNL     1       0.925   9.684  19.515  0.00  0.00    +0.000 A 
ATOM      2  C   UNL     1       1.007   9.166  20.828  0.00  0.00    +0.000 A 
ATOM      3  C   UNL     1       1.487   7.882  21.090  0.00  0.00    +0.000 A 
ATOM      4  C   UNL     1       1.997   7.144  20.035  0.00  0.00    +0.000 A 
ATOM      5  C   UNL     1       2.185   5.678  20.116  0.00  0.00    +0.000 A 
ATOM      6  O   UNL     1       1.841   5.046  21.110  0.00  0.00    +0.000 OA
ATOM      7  N   UNL     1       2.760   5.097  19.021  0.00  0.00    +0.000 N 
ATOM      8  C   UNL     1       3.614   5.908  18.313  0.00  0.00    +0.000 A 
ATOM      9  N   UNL     1       3.328   7.153  18.025  0.00  0.00    +0.000 NA
ATOM     10  C   UNL     1       2.245   7.728  18.789  0.00  0.00    +0.000 A 
ATOM     11  C   UNL     1       1.604   8.972  18.491  0.00  0.00    +0.000 A 
ATOM     12  C   UNL     1       4.962   5.227  18.100  0.00  0.00    +0.000 C 
ATOM     13  C   UNL     1       4.976   3.706  18.368  0.00  0.00    +0.000 C 
ATOM     14  C   UNL     1       4.099   2.846  17.459  0.00  0.00    +0.000 C 
ATOM     15  C   UNL     1       2.670   3.311  17.189  0.00  0.00    +0.000 C 
ATOM     16  C   UNL     1       1.946   4.264  18.154  0.00  0.00    +0.000 C 
ENDROOT
BRANCH   1  18
ATOM     17  N   UNL     1      -0.412  11.458  18.234  0.00  0.00    +0.000 N 
ATOM     18  C   UNL     1       0.128  10.983  19.428  0.00  0.00    +0.000 C 
ATOM     19  O   UNL     1      -0.101  11.579  20.481  0.00  0.00    +0.000 OA
ATOM     20  H   UNL     1      -0.388  10.889  17.399  0.00  0.00    +0.000 HD
BRANCH  17  21
ATOM     21  C   UNL     1      -1.451  12.509  18.287  0.00  0.00    +0.000 C 
BRANCH  21  27
ATOM     22  C   UNL     1      -3.380  11.346  17.048  0.00  0.00    +0.000 A 
ATOM     23  C   UNL     1      -4.736  10.986  16.978  0.00  0.00    +0.000 A 
ATOM     24  C   UNL     1      -5.590  11.206  18.058  0.00  0.00    +0.000 A 
ATOM     25  C   UNL     1      -5.098  11.787  19.214  0.00  0.00    +0.000 A 
ATOM     26  C   UNL     1      -3.765  12.200  19.270  0.00  0.00    +0.000 A 
ATOM     27  C   UNL     1      -2.890  12.035  18.170  0.00  0.00    +0.000 A 
BRANCH  22  29
ATOM     28  C   UNL     1      -3.031  10.346  14.945  0.00  0.00    +0.000 C 
ATOM     29  O   UNL     1      -2.478  11.046  16.057  0.00  0.00    +0.000 OA
ENDBRANCH  22  29
ENDBRANCH  21  27
ENDBRANCH  17  21
ENDBRANCH   1  18
TORSDOF 4
ENDMDL
MODEL 3
REMARK VINA RESULT:      -8.4      6.337      7.796
REMARK  Name = 
REMARK  5 active torsions:
REMARK  status: ('A' for Active; 'I' for Inactive)
REMARK    1  A    between atoms: C_1  and  O_2
REMARK    2  A    between atoms: O_2  and  C_3
REMARK    3  A    between atoms: C_8  and  C_9
REMARK    4  A    between atoms: C_9  and  N_10
REMARK    5  A    between atoms: C_11  and  C_13
REMARK                            x       y       z     vdW  Elec       q    Type
REMARK                         _______ _______ _______ _____ _____    ______ ____
ROOT
ATOM      1  C   UNL     1       8.504   9.768  18.388  0.00  0.00    +0.000 A 
ATOM      2  C   UNL     1       9.235   9.885  19.592  0.00  0.00    +0.000 A 
ATOM      3  C   UNL     1       9.919  11.053  19.935  0.00  0.00    +0.000 A 
ATOM      4  C   UNL     1       9.780  12.159  19.115  0.00  0.00    +0.000 A 
ATOM      5  C   UNL     1      10.719  13.302  19.165  0.00  0.00    +0.000 A 
ATOM      6  O   UNL     1      11.699  13.288  19.904  0.00  0.00    +0.000 OA
ATOM      7  N   UNL     1      10.415  14.351  18.344  0.00  0.00    +0.000 N 
ATOM      8  C   UNL     1       9.076  14.513  18.078  0.00  0.00    +0.000 A 
ATOM      9  N   UNL     1       8.288  13.508  17.784  0.00  0.00    +0.000 NA
ATOM     10  C   UNL     1       8.814  12.200  18.104  0.00  0.00    +0.000 A 
ATOM     11  C   UNL     1       8.249  10.962  17.663  0.00  0.00    +0.000 A 
ATOM     12  C   UNL     1       8.633  15.944  18.360  0.00  0.00    +0.000 C 
ATOM     13  C   UNL     1       9.781  16.966  18.512  0.00  0.00    +0.000 C 
ATOM     14  C   UNL     1      10.654  17.198  17.279  0.00  0.00    +0.000 C 
ATOM     15  C   UNL     1      11.146  15.977  16.506  0.00  0.00    +0.000 C 
ATOM     16  C   UNL     1      11.241  14.596  17.175  0.00  0.00    +0.000 C 
ENDROOT
BRANCH   1  18
ATOM     17  N   UNL     1       7.230   8.015  17.018  0.00  0.00    +0.000 N 
ATOM     18  C   UNL     1       8.067   8.337  18.084  0.00  0.00    +0.000 C 
ATOM     19  O   UNL     1       8.547   7.439  18.776  0.00  0.00    +0.000 OA
ATOM     20  H   UNL     1       6.976   8.716  16.335  0.00  0.00    +0.000 HD
BRANCH  17  21
ATOM     21  C   UNL     1       7.141   6.605  16.579  0.00  0.00    +0.000 C 
BRANCH  21  27
ATOM     22  C   UNL     1       5.542   4.601  16.402  0.00  0.00    +0.000 A 
ATOM     23  C   UNL     1       4.293   4.017  16.669  0.00  0.00    +0.000 A 
ATOM     24  C   UNL     1       3.370   4.654  17.498  0.00  0.00    +0.000 A 
ATOM     25  C   UNL     1       3.685   5.876  18.065  0.00  0.00    +0.000 A 
ATOM     26  C   UNL     1       4.903   6.489  17.758  0.00  0.00    +0.000 A 
ATOM     27  C   UNL     1       5.835   5.889  16.880  0.00  0.00    +0.000 A 
BRANCH  22  29
ATOM     28  C   UNL     1       6.303   3.916  14.281  0.00  0.00    +0.000 C 
ATOM     29  O   UNL     1       6.525   3.960  15.689  0.00  0.00    +0.000 OA
ENDBRANCH  22  29
ENDBRANCH  21  27
ENDBRANCH  17  21
ENDBRANCH   1  18
TORSDOF 4
ENDMDL
MODEL 4
REMARK VINA RESULT:      -8.3      2.556      9.505
REMARK  Name = 
REMARK  5 active torsions:
REMARK  status: ('A' for Active; 'I' for Inactive)
REMARK    1  A    between atoms: C_1  and  O_2
REMARK    2  A    between atoms: O_2  and  C_3
REMARK    3  A    between atoms: C_8  and  C_9
REMARK    4  A    between atoms: C_9  and  N_10
REMARK    5  A    between atoms: C_11  and  C_13
REMARK                            x       y       z     vdW  Elec       q    Type
REMARK                         _______ _______ _______ _____ _____    ______ ____
ROOT
ATOM      1  C   UNL     1       0.785   9.945  19.212  0.00  0.00    +0.000 A 
ATOM      2  C   UNL     1       0.894   9.464  20.537  0.00  0.00    +0.000 A 
ATOM      3  C   UNL     1       1.440   8.213  20.830  0.00  0.00    +0.000 A 
ATOM      4  C   UNL     1       1.985   7.476  19.793  0.00  0.00    +0.000 A 
ATOM      5  C   UNL     1       2.248   6.024  19.909  0.00  0.00    +0.000 A 
ATOM      6  O   UNL     1       1.938   5.401  20.920  0.00  0.00    +0.000 OA
ATOM      7  N   UNL     1       2.851   5.446  18.828  0.00  0.00    +0.000 N 
ATOM      8  C   UNL     1       3.662   6.282  18.098  0.00  0.00    +0.000 A 
ATOM      9  N   UNL     1       3.312   7.504  17.780  0.00  0.00    +0.000 NA
ATOM     10  C   UNL     1       2.202   8.042  18.532  0.00  0.00    +0.000 A 
ATOM     11  C   UNL     1       1.498   9.243  18.204  0.00  0.00    +0.000 A 
ATOM     12  C   UNL     1       5.042   5.666  17.899  0.00  0.00    +0.000 C 
ATOM     13  C   UNL     1       5.134   4.155  18.204  0.00  0.00    +0.000 C 
ATOM     14  C   UNL     1       4.301   3.229  17.319  0.00  0.00    +0.000 C 
ATOM     15  C   UNL     1       2.850   3.613  17.040  0.00  0.00    +0.000 C 
ATOM     16  C   UNL     1       2.080   4.552  17.983  0.00  0.00    +0.000 C 
ENDROOT
BRANCH   1  18
ATOM     17  N   UNL     1      -1.361  11.285  19.630  0.00  0.00    +0.000 N 
ATOM     18  C   UNL     1      -0.078  11.199  19.094  0.00  0.00    +0.000 C 
ATOM     19  O   UNL     1       0.431  12.188  18.566  0.00  0.00    +0.000 OA
ATOM     20  H   UNL     1      -1.720  10.548  20.222  0.00  0.00    +0.000 HD
BRANCH  17  21
ATOM     21  C   UNL     1      -1.983  12.618  19.787  0.00  0.00    +0.000 C 
BRANCH  21  27
ATOM     22  C   UNL     1      -2.679  12.509  22.259  0.00  0.00    +0.000 A 
ATOM     23  C   UNL     1      -3.675  12.603  23.245  0.00  0.00    +0.000 A 
ATOM     24  C   UNL     1      -4.957  13.048  22.924  0.00  0.00    +0.000 A 
ATOM     25  C   UNL     1      -5.256  13.401  21.620  0.00  0.00    +0.000 A 
ATOM     26  C   UNL     1      -4.287  13.256  20.624  0.00  0.00    +0.000 A 
ATOM     27  C   UNL     1      -2.994  12.759  20.912  0.00  0.00    +0.000 A 
BRANCH  22  29
ATOM     28  C   UNL     1      -1.198  10.903  23.137  0.00  0.00    +0.000 C 
ATOM     29  O   UNL     1      -1.376  12.189  22.546  0.00  0.00    +0.000 OA
ENDBRANCH  22  29
ENDBRANCH  21  27
ENDBRANCH  17  21
ENDBRANCH   1  18
TORSDOF 4
ENDMDL
MODEL 5
REMARK VINA RESULT:      -8.2      2.794      9.681
REMARK  Name = 
REMARK  5 active torsions:
REMARK  status: ('A' for Active; 'I' for Inactive)
REMARK    1  A    between atoms: C_1  and  O_2
REMARK    2  A    between atoms: O_2  and  C_3
REMARK    3  A    between atoms: C_8  and  C_9
REMARK    4  A    between atoms: C_9  and  N_10
REMARK    5  A    between atoms: C_11  and  C_13
REMARK                            x       y       z     vdW  Elec       q    Type
REMARK                         _______ _______ _______ _____ _____    ______ ____
ROOT
ATOM      1  C   UNL     1       0.708   9.982  19.239  0.00  0.00    +0.000 A 
ATOM      2  C   UNL     1       0.860   9.501  20.559  0.00  0.00    +0.000 A 
ATOM      3  C   UNL     1       1.448   8.266  20.836  0.00  0.00    +0.000 A 
ATOM      4  C   UNL     1       1.991   7.547  19.785  0.00  0.00    +0.000 A 
ATOM      5  C   UNL     1       2.297   6.103  19.891  0.00  0.00    +0.000 A 
ATOM      6  O   UNL     1       2.028   5.468  20.906  0.00  0.00    +0.000 OA
ATOM      7  N   UNL     1       2.892   5.545  18.795  0.00  0.00    +0.000 N 
ATOM      8  C   UNL     1       3.663   6.406  18.050  0.00  0.00    +0.000 A 
ATOM      9  N   UNL     1       3.272   7.618  17.743  0.00  0.00    +0.000 NA
ATOM     10  C   UNL     1       2.164   8.122  18.522  0.00  0.00    +0.000 A 
ATOM     11  C   UNL     1       1.419   9.303  18.213  0.00  0.00    +0.000 A 
ATOM     12  C   UNL     1       5.055   5.830  17.818  0.00  0.00    +0.000 C 
ATOM     13  C   UNL     1       5.198   4.321  18.117  0.00  0.00    +0.000 C 
ATOM     14  C   UNL     1       4.372   3.374  17.247  0.00  0.00    +0.000 C 
ATOM     15  C   UNL     1       2.904   3.717  17.001  0.00  0.00    +0.000 C 
ATOM     16  C   UNL     1       2.129   4.631  17.964  0.00  0.00    +0.000 C 
ENDROOT
BRANCH   1  18
ATOM     17  N   UNL     1      -1.428  11.293  19.782  0.00  0.00    +0.000 N 
ATOM     18  C   UNL     1      -0.192  11.211  19.144  0.00  0.00    +0.000 C 
ATOM     19  O   UNL     1       0.246  12.188  18.535  0.00  0.00    +0.000 OA
ATOM     20  H   UNL     1      -1.717  10.573  20.432  0.00  0.00    +0.000 HD
BRANCH  17  21
ATOM     21  C   UNL     1      -2.067  12.617  19.937  0.00  0.00    +0.000 C 
BRANCH  21  27
ATOM     22  C   UNL     1      -4.455  12.099  19.138  0.00  0.00    +0.000 A 
ATOM     23  C   UNL     1      -5.844  12.182  19.329  0.00  0.00    +0.000 A 
ATOM     24  C   UNL     1      -6.372  12.677  20.520  0.00  0.00    +0.000 A 
ATOM     25  C   UNL     1      -5.521  13.093  21.528  0.00  0.00    +0.000 A 
ATOM     26  C   UNL     1      -4.139  13.068  21.323  0.00  0.00    +0.000 A 
ATOM     27  C   UNL     1      -3.578  12.618  20.105  0.00  0.00    +0.000 A 
BRANCH  22  29
ATOM     28  C   UNL     1      -4.642  11.665  16.831  0.00  0.00    +0.000 C 
ATOM     29  O   UNL     1      -3.889  11.513  18.032  0.00  0.00    +0.000 OA
ENDBRANCH  22  29
ENDBRANCH  21  27
ENDBRANCH  17  21
ENDBRANCH   1  18
TORSDOF 4
ENDMDL
MODEL 6
REMARK VINA RESULT:      -8.1      2.524      9.375
REMARK  Name = 
REMARK  5 active torsions:
REMARK  status: ('A' for Active; 'I' for Inactive)
REMARK    1  A    between atoms: C_1  and  O_2
REMARK    2  A    between atoms: O_2  and  C_3
REMARK    3  A    between atoms: C_8  and  C_9
REMARK    4  A    between atoms: C_9  and  N_10
REMARK    5  A    between atoms: C_11  and  C_13
REMARK                            x       y       z     vdW  Elec       q    Type
REMARK                         _______ _______ _______ _____ _____    ______ ____
ROOT
ATOM      1  C   UNL     1       1.420   9.248  18.953  0.00  0.00    +0.000 A 
ATOM      2  C   UNL     1       1.243   8.896  20.310  0.00  0.00    +0.000 A 
ATOM      3  C   UNL     1       1.471   7.600  20.777  0.00  0.00    +0.000 A 
ATOM      4  C   UNL     1       1.989   6.667  19.896  0.00  0.00    +0.000 A 
ATOM      5  C   UNL     1       1.925   5.212  20.159  0.00  0.00    +0.000 A 
ATOM      6  O   UNL     1       1.356   4.769  21.153  0.00  0.00    +0.000 OA
ATOM      7  N   UNL     1       2.538   4.418  19.232  0.00  0.00    +0.000 N 
ATOM      8  C   UNL     1       3.598   4.999  18.577  0.00  0.00    +0.000 A 
ATOM      9  N   UNL     1       3.557   6.225  18.118  0.00  0.00    +0.000 NA
ATOM     10  C   UNL     1       2.490   7.044  18.646  0.00  0.00    +0.000 A 
ATOM     11  C   UNL     1       2.103   8.319  18.124  0.00  0.00    +0.000 A 
ATOM     12  C   UNL     1       4.834   4.109  18.642  0.00  0.00    +0.000 C 
ATOM     13  C   UNL     1       4.567   2.649  19.070  0.00  0.00    +0.000 C 
ATOM     14  C   UNL     1       3.690   1.815  18.137  0.00  0.00    +0.000 C 
ATOM     15  C   UNL     1       2.403   2.443  17.607  0.00  0.00    +0.000 C 
ATOM     16  C   UNL     1       1.722   3.607  18.346  0.00  0.00    +0.000 C 
ENDROOT
BRANCH   1  18
ATOM     17  N   UNL     1      -0.402  10.810  18.051  0.00  0.00    +0.000 N 
ATOM     18  C   UNL     1       0.861  10.626  18.608  0.00  0.00    +0.000 C 
ATOM     19  O   UNL     1       1.542  11.605  18.915  0.00  0.00    +0.000 OA
ATOM     20  H   UNL     1      -1.042  10.032  17.963  0.00  0.00    +0.000 HD
BRANCH  17  21
ATOM     21  C   UNL     1      -1.005  12.160  18.077  0.00  0.00    +0.000 C 
BRANCH  21  27
ATOM     22  C   UNL     1      -3.453  11.898  18.817  0.00  0.00    +0.000 A 
ATOM     23  C   UNL     1      -4.480  12.170  19.737  0.00  0.00    +0.000 A 
ATOM     24  C   UNL     1      -4.204  12.809  20.945  0.00  0.00    +0.000 A 
ATOM     25  C   UNL     1      -2.905  13.181  21.244  0.00  0.00    +0.000 A 
ATOM     26  C   UNL     1      -1.889  12.965  20.310  0.00  0.00    +0.000 A 
ATOM     27  C   UNL     1      -2.150  12.366  19.056  0.00  0.00    +0.000 A 
BRANCH  22  29
ATOM     28  C   UNL     1      -4.693  11.667  16.828  0.00  0.00    +0.000 C 
ATOM     29  O   UNL     1      -3.655  11.170  17.670  0.00  0.00    +0.000 OA
ENDBRANCH  22  29
ENDBRANCH  21  27
ENDBRANCH  17  21
ENDBRANCH   1  18
TORSDOF 4
ENDMDL
MODEL 7
REMARK VINA RESULT:      -8.1      2.377      3.504
REMARK  Name = 
REMARK  5 active torsions:
REMARK  status: ('A' for Active; 'I' for Inactive)
REMARK    1  A    between atoms: C_1  and  O_2
REMARK    2  A    between atoms: O_2  and  C_3
REMARK    3  A    between atoms: C_8  and  C_9
REMARK    4  A    between atoms: C_9  and  N_10
REMARK    5  A    between atoms: C_11  and  C_13
REMARK                            x       y       z     vdW  Elec       q    Type
REMARK                         _______ _______ _______ _____ _____    ______ ____
ROOT
ATOM      1  C   UNL     1       1.244   9.107  19.225  0.00  0.00    +0.000 A 
ATOM      2  C   UNL     1       0.999   8.489  20.473  0.00  0.00    +0.000 A 
ATOM      3  C   UNL     1       0.285   9.126  21.489  0.00  0.00    +0.000 A 
ATOM      4  C   UNL     1      -0.287  10.357  21.217  0.00  0.00    +0.000 A 
ATOM      5  C   UNL     1      -0.735  11.273  22.290  0.00  0.00    +0.000 A 
ATOM      6  O   UNL     1      -0.565  10.999  23.474  0.00  0.00    +0.000 OA
ATOM      7  N   UNL     1      -1.342  12.422  21.867  0.00  0.00    +0.000 N 
ATOM      8  C   UNL     1      -1.999  12.325  20.663  0.00  0.00    +0.000 A 
ATOM      9  N   UNL     1      -1.481  11.718  19.625  0.00  0.00    +0.000 NA
ATOM     10  C   UNL     1      -0.358  10.855  19.913  0.00  0.00    +0.000 A 
ATOM     11  C   UNL     1       0.508  10.285  18.927  0.00  0.00    +0.000 A 
ATOM     12  C   UNL     1      -3.431  12.834  20.781  0.00  0.00    +0.000 C 
ATOM     13  C   UNL     1      -3.729  13.664  22.049  0.00  0.00    +0.000 C 
ATOM     14  C   UNL     1      -2.968  14.981  22.195  0.00  0.00    +0.000 C 
ATOM     15  C   UNL     1      -1.467  14.979  21.918  0.00  0.00    +0.000 C 
ATOM     16  C   UNL     1      -0.641  13.685  22.011  0.00  0.00    +0.000 C 
ENDROOT
BRANCH   1  18
ATOM     17  N   UNL     1       2.941   7.229  18.821  0.00  0.00    +0.000 N 
ATOM     18  C   UNL     1       2.262   8.358  18.370  0.00  0.00    +0.000 C 
ATOM     19  O   UNL     1       2.416   8.740  17.209  0.00  0.00    +0.000 OA
ATOM     20  H   UNL     1       2.692   6.798  19.702  0.00  0.00    +0.000 HD
BRANCH  17  21
ATOM     21  C   UNL     1       3.628   6.365  17.836  0.00  0.00    +0.000 C 
BRANCH  21  27
ATOM     22  C   UNL     1       4.132   3.858  17.581  0.00  0.00    +0.000 A 
ATOM     23  C   UNL     1       3.684   2.527  17.534  0.00  0.00    +0.000 A 
ATOM     24  C   UNL     1       2.361   2.209  17.841  0.00  0.00    +0.000 A 
ATOM     25  C   UNL     1       1.478   3.213  18.195  0.00  0.00    +0.000 A 
ATOM     26  C   UNL     1       1.902   4.545  18.188  0.00  0.00    +0.000 A 
ATOM     27  C   UNL     1       3.224   4.900  17.831  0.00  0.00    +0.000 A 
BRANCH  22  29
ATOM     28  C   UNL     1       5.922   4.061  16.063  0.00  0.00    +0.000 C 
ATOM     29  O   UNL     1       5.448   4.206  17.401  0.00  0.00    +0.000 OA
ENDBRANCH  22  29
ENDBRANCH  21  27
ENDBRANCH  17  21
ENDBRANCH   1  18
TORSDOF 4
ENDMDL
MODEL 8
REMARK VINA RESULT:      -8.1      1.272      1.300
REMARK  Name = 
REMARK  5 active torsions:
REMARK  status: ('A' for Active; 'I' for Inactive)
REMARK    1  A    between atoms: C_1  and  O_2
REMARK    2  A    between atoms: O_2  and  C_3
REMARK    3  A    between atoms: C_8  and  C_9
REMARK    4  A    between atoms: C_9  and  N_10
REMARK    5  A    between atoms: C_11  and  C_13
REMARK                            x       y       z     vdW  Elec       q    Type
REMARK                         _______ _______ _______ _____ _____    ______ ____
ROOT
ATOM      1  C   UNL     1       2.215   7.381  19.128  0.00  0.00    +0.000 A 
ATOM      2  C   UNL     1       1.751   7.114  20.435  0.00  0.00    +0.000 A 
ATOM      3  C   UNL     1       1.133   8.090  21.218  0.00  0.00    +0.000 A 
ATOM      4  C   UNL     1       0.876   9.324  20.645  0.00  0.00    +0.000 A 
ATOM      5  C   UNL     1       0.575  10.524  21.458  0.00  0.00    +0.000 A 
ATOM      6  O   UNL     1       0.597  10.484  22.684  0.00  0.00    +0.000 OA
ATOM      7  N   UNL     1       0.276  11.654  20.751  0.00  0.00    +0.000 N 
ATOM      8  C   UNL     1      -0.301  11.437  19.522  0.00  0.00    +0.000 A 
ATOM      9  N   UNL     1       0.135  10.525  18.690  0.00  0.00    +0.000 NA
ATOM     10  C   UNL     1       1.010   9.531  19.269  0.00  0.00    +0.000 A 
ATOM     11  C   UNL     1       1.789   8.593  18.521  0.00  0.00    +0.000 A 
ATOM     12  C   UNL     1      -1.585  12.245  19.372  0.00  0.00    +0.000 C 
ATOM     13  C   UNL     1      -1.772  13.374  20.409  0.00  0.00    +0.000 C 
ATOM     14  C   UNL     1      -0.744  14.504  20.380  0.00  0.00    +0.000 C 
ATOM     15  C   UNL     1       0.734  14.130  20.283  0.00  0.00    +0.000 C 
ATOM     16  C   UNL     1       1.235  12.745  20.723  0.00  0.00    +0.000 C 
ENDROOT
BRANCH   1  18
ATOM     17  N   UNL     1       4.433   6.114  18.904  0.00  0.00    +0.000 N 
ATOM     18  C   UNL     1       3.092   6.269  18.559  0.00  0.00    +0.000 C 
ATOM     19  O   UNL     1       2.551   5.440  17.826  0.00  0.00    +0.000 OA
ATOM     20  H   UNL     1       4.840   6.674  19.641  0.00  0.00    +0.000 HD
BRANCH  17  21
ATOM     21  C   UNL     1       5.107   4.833  18.600  0.00  0.00    +0.000 C 
BRANCH  21  27
ATOM     22  C   UNL     1       6.919   5.411  16.871  0.00  0.00    +0.000 A 
ATOM     23  C   UNL     1       7.429   5.308  15.566  0.00  0.00    +0.000 A 
ATOM     24  C   UNL     1       6.850   4.441  14.640  0.00  0.00    +0.000 A 
ATOM     25  C   UNL     1       5.760   3.673  15.007  0.00  0.00    +0.000 A 
ATOM     26  C   UNL     1       5.212   3.812  16.284  0.00  0.00    +0.000 A 
ATOM     27  C   UNL     1       5.747   4.721  17.226  0.00  0.00    +0.000 A 
BRANCH  22  29
ATOM     28  C   UNL     1       7.604   7.555  17.563  0.00  0.00    +0.000 C 
ATOM     29  O   UNL     1       7.523   6.161  17.849  0.00  0.00    +0.000 OA
ENDBRANCH  22  29
ENDBRANCH  21  27
ENDBRANCH  17  21
ENDBRANCH   1  18
TORSDOF 4
ENDMDL
MODEL 9
REMARK VINA RESULT:      -8.1      2.594      9.370
REMARK  Name = 
REMARK  5 active torsions:
REMARK  status: ('A' for Active; 'I' for Inactive)
REMARK    1  A    between atoms: C_1  and  O_2
REMARK    2  A    between atoms: O_2  and  C_3
REMARK    3  A    between atoms: C_8  and  C_9
REMARK    4  A    between atoms: C_9  and  N_10
REMARK    5  A    between atoms: C_11  and  C_13
REMARK                            x       y       z     vdW  Elec       q    Type
REMARK                         _______ _______ _______ _____ _____    ______ ____
ROOT
ATOM      1  C   UNL     1       1.334   8.855  20.483  0.00  0.00    +0.000 A 
ATOM      2  C   UNL     1       1.633   9.124  19.128  0.00  0.00    +0.000 A 
ATOM      3  C   UNL     1       2.169   8.153  18.280  0.00  0.00    +0.000 A 
ATOM      4  C   UNL     1       2.306   6.863  18.762  0.00  0.00    +0.000 A 
ATOM      5  C   UNL     1       3.179   5.864  18.106  0.00  0.00    +0.000 A 
ATOM      6  O   UNL     1       3.864   6.160  17.132  0.00  0.00    +0.000 OA
ATOM      7  N   UNL     1       3.161   4.614  18.657  0.00  0.00    +0.000 N 
ATOM      8  C   UNL     1       1.982   4.266  19.273  0.00  0.00    +0.000 A 
ATOM      9  N   UNL     1       1.332   5.083  20.065  0.00  0.00    +0.000 NA
ATOM     10  C   UNL     1       1.723   6.471  19.971  0.00  0.00    +0.000 A 
ATOM     11  C   UNL     1       1.331   7.494  20.891  0.00  0.00    +0.000 A 
ATOM     12  C   UNL     1       1.473   2.924  18.759  0.00  0.00    +0.000 C 
ATOM     13  C   UNL     1       2.510   2.086  17.979  0.00  0.00    +0.000 C 
ATOM     14  C   UNL     1       3.737   1.621  18.762  0.00  0.00    +0.000 C 
ATOM     15  C   UNL     1       4.454   2.638  19.648  0.00  0.00    +0.000 C 
ATOM     16  C   UNL     1       4.323   4.149  19.392  0.00  0.00    +0.000 C 
ENDROOT
BRANCH   1  18
ATOM     17  N   UNL     1       0.703  11.330  20.700  0.00  0.00    +0.000 N 
ATOM     18  C   UNL     1       1.018  10.109  21.293  0.00  0.00    +0.000 C 
ATOM     19  O   UNL     1       0.971   9.996  22.518  0.00  0.00    +0.000 OA
ATOM     20  H   UNL     1       0.560  11.393  19.701  0.00  0.00    +0.000 HD
BRANCH  17  21
ATOM     21  C   UNL     1       0.073  12.384  21.524  0.00  0.00    +0.000 C 
BRANCH  21  27
ATOM     22  C   UNL     1      -2.131  12.589  20.217  0.00  0.00    +0.000 A 
ATOM     23  C   UNL     1      -3.528  12.740  20.208  0.00  0.00    +0.000 A 
ATOM     24  C   UNL     1      -4.259  12.684  21.393  0.00  0.00    +0.000 A 
ATOM     25  C   UNL     1      -3.605  12.478  22.595  0.00  0.00    +0.000 A 
ATOM     26  C   UNL     1      -2.211  12.385  22.619  0.00  0.00    +0.000 A 
ATOM     27  C   UNL     1      -1.441  12.489  21.437  0.00  0.00    +0.000 A 
BRANCH  22  29
ATOM     28  C   UNL     1      -1.934  11.689  18.050  0.00  0.00    +0.000 C 
ATOM     29  O   UNL     1      -1.382  12.521  19.068  0.00  0.00    +0.000 OA
ENDBRANCH  22  29
ENDBRANCH  21  27
ENDBRANCH  17  21
ENDBRANCH   1  18
TORSDOF 4
ENDMDL
