MODEL 1
REMARK VINA RESULT:      -8.8      0.000      0.000
REMARK  Name = 
REMARK  4 active torsions:
REMARK  status: ('A' for Active; 'I' for Inactive)
REMARK    1  A    between atoms: C_1  and  C_2
REMARK    2  A    between atoms: C_2  and  C_3
REMARK    3  A    between atoms: C_18  and  C_19
REMARK    4  A    between atoms: C_19  and  O_20
REMARK                            x       y       z     vdW  Elec       q    Type
REMARK                         _______ _______ _______ _____ _____    ______ ____
ROOT
ATOM      1  C   UNL     1      -0.830  10.216  18.940  0.00  0.00    +0.000 C 
ATOM      2  C   UNL     1       0.611  10.325  19.539  0.00  0.00    +0.000 C 
ATOM      3  C   UNL     1       1.116  11.726  19.114  0.00  0.00    +0.000 C 
ATOM      4  C   UNL     1       0.378  10.386  21.085  0.00  0.00    +0.000 C 
ATOM      5  C   UNL     1       0.963   9.304  21.959  0.00  0.00    +0.000 C 
ATOM      6  C   UNL     1       1.270   7.986  21.307  0.00  0.00    +0.000 C 
ATOM      7  C   UNL     1       1.622   7.989  19.854  0.00  0.00    +0.000 A 
ATOM      8  C   UNL     1       1.533   9.153  19.079  0.00  0.00    +0.000 A 
ATOM      9  C   UNL     1       2.309   9.130  17.892  0.00  0.00    +0.000 A 
ATOM     10  C   UNL     1       3.043   7.971  17.450  0.00  0.00    +0.000 A 
ATOM     11  C   UNL     1       2.918   6.754  18.122  0.00  0.00    +0.000 A 
ATOM     12  C   UNL     1       2.179   6.792  19.322  0.00  0.00    +0.000 A 
ATOM     13  C   UNL     1       1.976   5.493  20.061  0.00  0.00    +0.000 C 
ATOM     14  O   UNL     1       1.993   5.365  21.275  0.00  0.00    +0.000 OA
ATOM     15  C   UNL     1       1.928   4.255  19.205  0.00  0.00    +0.000 C 
ATOM     16  O   UNL     1       1.130   3.334  19.422  0.00  0.00    +0.000 OA
ATOM     17  C   UNL     1       2.925   4.228  18.196  0.00  0.00    +0.000 A 
ATOM     18  C   UNL     1       3.672   3.160  17.672  0.00  0.00    +0.000 A 
ATOM     19  C   UNL     1       4.666   3.795  16.946  0.00  0.00    +0.000 A 
ATOM     20  O   UNL     1       4.502   5.171  16.947  0.00  0.00    +0.000 OA
ATOM     21  C   UNL     1       3.416   5.422  17.729  0.00  0.00    +0.000 A 
ENDROOT
BRANCH  18  22
ATOM     22  C   UNL     1       3.424   1.722  17.987  0.00  0.00    +0.000 C 
BRANCH  22  23
ATOM     23  O   UNL     1       4.423   1.217  18.871  0.00  0.00    +0.000 OA
ATOM     24  H   UNL     1       5.284   1.549  18.543  0.00  0.00    +0.000 HD
ENDBRANCH  22  23
ENDBRANCH  18  22
TORSDOF 2
ENDMDL
MODEL 2
REMARK VINA RESULT:      -8.0      2.921      7.006
REMARK  Name = 
REMARK  4 active torsions:
REMARK  status: ('A' for Active; 'I' for Inactive)
REMARK    1  A    between atoms: C_1  and  C_2
REMARK    2  A    between atoms: C_2  and  C_3
REMARK    3  A    between atoms: C_18  and  C_19
REMARK    4  A    between atoms: C_19  and  O_20
REMARK                            x       y       z     vdW  Elec       q    Type
REMARK                         _______ _______ _______ _____ _____    ______ ____
ROOT
ATOM      1  C   UNL     1       2.195   3.748  17.436  0.00  0.00    +0.000 C 
ATOM      2  C   UNL     1       3.328   4.502  18.207  0.00  0.00    +0.000 C 
ATOM      3  C   UNL     1       4.045   3.407  19.035  0.00  0.00    +0.000 C 
ATOM      4  C   UNL     1       4.328   4.939  17.086  0.00  0.00    +0.000 C 
ATOM      5  C   UNL     1       4.597   6.408  16.874  0.00  0.00    +0.000 C 
ATOM      6  C   UNL     1       3.550   7.373  17.350  0.00  0.00    +0.000 C 
ATOM      7  C   UNL     1       2.704   6.970  18.515  0.00  0.00    +0.000 A 
ATOM      8  C   UNL     1       2.776   5.683  19.064  0.00  0.00    +0.000 A 
ATOM      9  C   UNL     1       2.293   5.583  20.394  0.00  0.00    +0.000 A 
ATOM     10  C   UNL     1       1.674   6.680  21.095  0.00  0.00    +0.000 A 
ATOM     11  C   UNL     1       1.404   7.880  20.435  0.00  0.00    +0.000 A 
ATOM     12  C   UNL     1       1.921   7.989  19.127  0.00  0.00    +0.000 A 
ATOM     13  C   UNL     1       1.616   9.248  18.356  0.00  0.00    +0.000 C 
ATOM     14  O   UNL     1       2.395   9.821  17.610  0.00  0.00    +0.000 OA
ATOM     15  C   UNL     1       0.310   9.919  18.690  0.00  0.00    +0.000 C 
ATOM     16  O   UNL     1      -0.417  10.416  17.821  0.00  0.00    +0.000 OA
ATOM     17  C   UNL     1       0.050   9.984  20.084  0.00  0.00    +0.000 A 
ATOM     18  C   UNL     1      -0.569  10.981  20.856  0.00  0.00    +0.000 A 
ATOM     19  C   UNL     1      -0.265  10.610  22.155  0.00  0.00    +0.000 A 
ATOM     20  O   UNL     1       0.429   9.410  22.196  0.00  0.00    +0.000 OA
ATOM     21  C   UNL     1       0.615   9.037  20.901  0.00  0.00    +0.000 A 
ENDROOT
BRANCH  18  22
ATOM     22  C   UNL     1      -1.266  12.175  20.292  0.00  0.00    +0.000 C 
BRANCH  22  23
ATOM     23  O   UNL     1      -2.411  11.784  19.537  0.00  0.00    +0.000 OA
ATOM     24  H   UNL     1      -3.089  11.496  20.182  0.00  0.00    +0.000 HD
ENDBRANCH  22  23
ENDBRANCH  18  22
TORSDOF 2
ENDMDL
MODEL 3
REMARK VINA RESULT:      -7.9      2.400      6.421
REMARK  Name = 
REMARK  4 active torsions:
REMARK  status: ('A' for Active; 'I' for Inactive)
REMARK    1  A    between atoms: C_1  and  C_2
REMARK    2  A    between atoms: C_2  and  C_3
REMARK    3  A    between atoms: C_18  and  C_19
REMARK    4  A    between atoms: C_19  and  O_20
REMARK                            x       y       z     vdW  Elec       q    Type
REMARK                         _______ _______ _______ _____ _____    ______ ____
ROOT
ATOM      1  C   UNL     1       6.651   5.405  19.034  0.00  0.00    +0.000 C 
ATOM      2  C   UNL     1       5.393   4.892  18.258  0.00  0.00    +0.000 C 
ATOM      3  C   UNL     1       5.925   4.483  16.862  0.00  0.00    +0.000 C 
ATOM      4  C   UNL     1       5.006   3.566  18.993  0.00  0.00    +0.000 C 
ATOM      5  C   UNL     1       3.651   3.459  19.649  0.00  0.00    +0.000 C 
ATOM      6  C   UNL     1       2.968   4.742  20.025  0.00  0.00    +0.000 C 
ATOM      7  C   UNL     1       3.264   5.959  19.208  0.00  0.00    +0.000 A 
ATOM      8  C   UNL     1       4.251   5.953  18.214  0.00  0.00    +0.000 A 
ATOM      9  C   UNL     1       4.112   6.976  17.241  0.00  0.00    +0.000 A 
ATOM     10  C   UNL     1       3.110   8.011  17.319  0.00  0.00    +0.000 A 
ATOM     11  C   UNL     1       2.296   8.124  18.447  0.00  0.00    +0.000 A 
ATOM     12  C   UNL     1       2.410   7.083  19.391  0.00  0.00    +0.000 A 
ATOM     13  C   UNL     1       1.585   7.184  20.649  0.00  0.00    +0.000 C 
ATOM     14  O   UNL     1       1.036   6.247  21.207  0.00  0.00    +0.000 OA
ATOM     15  C   UNL     1       1.289   8.582  21.126  0.00  0.00    +0.000 C 
ATOM     16  O   UNL     1       1.314   8.889  22.324  0.00  0.00    +0.000 OA
ATOM     17  C   UNL     1       0.913   9.466  20.082  0.00  0.00    +0.000 A 
ATOM     18  C   UNL     1      -0.018  10.518  20.060  0.00  0.00    +0.000 A 
ATOM     19  C   UNL     1      -0.147  10.800  18.711  0.00  0.00    +0.000 A 
ATOM     20  O   UNL     1       0.711  10.029  17.942  0.00  0.00    +0.000 OA
ATOM     21  C   UNL     1       1.361   9.207  18.810  0.00  0.00    +0.000 A 
ENDROOT
BRANCH  18  22
ATOM     22  C   UNL     1      -0.721  11.048  21.267  0.00  0.00    +0.000 C 
BRANCH  22  23
ATOM     23  O   UNL     1       0.189  11.738  22.121  0.00  0.00    +0.000 OA
ATOM     24  H   UNL     1      -0.210  11.740  23.015  0.00  0.00    +0.000 HD
ENDBRANCH  22  23
ENDBRANCH  18  22
TORSDOF 2
ENDMDL
MODEL 4
REMARK VINA RESULT:      -7.7      1.590      3.497
REMARK  Name = 
REMARK  4 active torsions:
REMARK  status: ('A' for Active; 'I' for Inactive)
REMARK    1  A    between atoms: C_1  and  C_2
REMARK    2  A    between atoms: C_2  and  C_3
REMARK    3  A    between atoms: C_18  and  C_19
REMARK    4  A    between atoms: C_19  and  O_20
REMARK                            x       y       z     vdW  Elec       q    Type
REMARK                         _______ _______ _______ _____ _____    ______ ____
ROOT
ATOM      1  C   UNL     1       1.796   9.414  22.312  0.00  0.00    +0.000 C 
ATOM      2  C   UNL     1       0.766   8.834  21.287  0.00  0.00    +0.000 C 
ATOM      3  C   UNL     1      -0.463   8.431  22.139  0.00  0.00    +0.000 C 
ATOM      4  C   UNL     1       0.332  10.074  20.438  0.00  0.00    +0.000 C 
ATOM      5  C   UNL     1       0.597  10.076  18.952  0.00  0.00    +0.000 C 
ATOM      6  C   UNL     1       1.692   9.181  18.449  0.00  0.00    +0.000 C 
ATOM      7  C   UNL     1       1.983   7.931  19.217  0.00  0.00    +0.000 A 
ATOM      8  C   UNL     1       1.363   7.664  20.446  0.00  0.00    +0.000 A 
ATOM      9  C   UNL     1       1.367   6.295  20.820  0.00  0.00    +0.000 A 
ATOM     10  C   UNL     1       2.047   5.271  20.067  0.00  0.00    +0.000 A 
ATOM     11  C   UNL     1       2.852   5.609  18.978  0.00  0.00    +0.000 A 
ATOM     12  C   UNL     1       2.813   6.963  18.585  0.00  0.00    +0.000 A 
ATOM     13  C   UNL     1       3.702   7.388  17.444  0.00  0.00    +0.000 C 
ATOM     14  O   UNL     1       3.396   8.190  16.576  0.00  0.00    +0.000 OA
ATOM     15  C   UNL     1       4.985   6.614  17.291  0.00  0.00    +0.000 C 
ATOM     16  O   UNL     1       6.055   7.161  16.998  0.00  0.00    +0.000 OA
ATOM     17  C   UNL     1       4.819   5.212  17.441  0.00  0.00    +0.000 A 
ATOM     18  C   UNL     1       5.446   4.138  16.788  0.00  0.00    +0.000 A 
ATOM     19  C   UNL     1       4.667   3.051  17.146  0.00  0.00    +0.000 A 
ATOM     20  O   UNL     1       3.665   3.409  18.034  0.00  0.00    +0.000 OA
ATOM     21  C   UNL     1       3.775   4.755  18.206  0.00  0.00    +0.000 A 
ENDROOT
BRANCH  18  22
ATOM     22  C   UNL     1       6.607   4.278  15.859  0.00  0.00    +0.000 C 
BRANCH  22  23
ATOM     23  O   UNL     1       7.805   4.547  16.584  0.00  0.00    +0.000 OA
ATOM     24  H   UNL     1       8.173   5.379  16.222  0.00  0.00    +0.000 HD
ENDBRANCH  22  23
ENDBRANCH  18  22
TORSDOF 2
ENDMDL
MODEL 5
REMARK VINA RESULT:      -7.6      2.654      6.651
REMARK  Name = 
REMARK  4 active torsions:
REMARK  status: ('A' for Active; 'I' for Inactive)
REMARK    1  A    between atoms: C_1  and  C_2
REMARK    2  A    between atoms: C_2  and  C_3
REMARK    3  A    between atoms: C_18  and  C_19
REMARK    4  A    between atoms: C_19  and  O_20
REMARK                            x       y       z     vdW  Elec       q    Type
REMARK                         _______ _______ _______ _____ _____    ______ ____
ROOT
ATOM      1  C   UNL     1       5.728   5.451  19.314  0.00  0.00    +0.000 C 
ATOM      2  C   UNL     1       4.359   5.075  18.658  0.00  0.00    +0.000 C 
ATOM      3  C   UNL     1       4.728   4.470  17.281  0.00  0.00    +0.000 C 
ATOM      4  C   UNL     1       3.827   3.893  19.535  0.00  0.00    +0.000 C 
ATOM      5  C   UNL     1       2.519   4.054  20.270  0.00  0.00    +0.000 C 
ATOM      6  C   UNL     1       2.063   5.455  20.559  0.00  0.00    +0.000 C 
ATOM      7  C   UNL     1       2.483   6.537  19.616  0.00  0.00    +0.000 A 
ATOM      8  C   UNL     1       3.388   6.293  18.575  0.00  0.00    +0.000 A 
ATOM      9  C   UNL     1       3.338   7.239  17.519  0.00  0.00    +0.000 A 
ATOM     10  C   UNL     1       2.511   8.420  17.553  0.00  0.00    +0.000 A 
ATOM     11  C   UNL     1       1.801   8.754  18.707  0.00  0.00    +0.000 A 
ATOM     12  C   UNL     1       1.822   7.791  19.738  0.00  0.00    +0.000 A 
ATOM     13  C   UNL     1       1.108   8.127  21.023  0.00  0.00    +0.000 C 
ATOM     14  O   UNL     1       0.463   7.337  21.695  0.00  0.00    +0.000 OA
ATOM     15  C   UNL     1       1.058   9.589  21.381  0.00  0.00    +0.000 C 
ATOM     16  O   UNL     1       1.209   9.989  22.542  0.00  0.00    +0.000 OA
ATOM     17  C   UNL     1       0.749  10.429  20.279  0.00  0.00    +0.000 A 
ATOM     18  C   UNL     1      -0.013  11.607  20.209  0.00  0.00    +0.000 A 
ATOM     19  C   UNL     1      -0.190  11.789  18.847  0.00  0.00    +0.000 A 
ATOM     20  O   UNL     1       0.489  10.831  18.110  0.00  0.00    +0.000 OA
ATOM     21  C   UNL     1       1.066   9.995  19.016  0.00  0.00    +0.000 A 
ENDROOT
BRANCH  18  22
ATOM     22  C   UNL     1      -0.546  12.340  21.396  0.00  0.00    +0.000 C 
BRANCH  22  23
ATOM     23  O   UNL     1       0.497  13.045  22.065  0.00  0.00    +0.000 OA
ATOM     24  H   UNL     1       1.339  12.620  21.802  0.00  0.00    +0.000 HD
ENDBRANCH  22  23
ENDBRANCH  18  22
TORSDOF 2
ENDMDL
MODEL 6
REMARK VINA RESULT:      -7.5      3.227      5.690
REMARK  Name = 
REMARK  4 active torsions:
REMARK  status: ('A' for Active; 'I' for Inactive)
REMARK    1  A    between atoms: C_1  and  C_2
REMARK    2  A    between atoms: C_2  and  C_3
REMARK    3  A    between atoms: C_18  and  C_19
REMARK    4  A    between atoms: C_19  and  O_20
REMARK                            x       y       z     vdW  Elec       q    Type
REMARK                         _______ _______ _______ _____ _____    ______ ____
ROOT
ATOM      1  C   UNL     1       2.886   3.159  21.201  0.00  0.00    +0.000 C 
ATOM      2  C   UNL     1       1.963   3.805  20.117  0.00  0.00    +0.000 C 
ATOM      3  C   UNL     1       0.664   2.962  20.144  0.00  0.00    +0.000 C 
ATOM      4  C   UNL     1       1.598   5.206  20.712  0.00  0.00    +0.000 C 
ATOM      5  C   UNL     1       2.000   6.451  19.960  0.00  0.00    +0.000 C 
ATOM      6  C   UNL     1       3.146   6.331  18.997  0.00  0.00    +0.000 C 
ATOM      7  C   UNL     1       3.376   5.005  18.345  0.00  0.00    +0.000 A 
ATOM      8  C   UNL     1       2.648   3.867  18.717  0.00  0.00    +0.000 A 
ATOM      9  C   UNL     1       2.631   2.836  17.743  0.00  0.00    +0.000 A 
ATOM     10  C   UNL     1       3.388   2.893  16.517  0.00  0.00    +0.000 A 
ATOM     11  C   UNL     1       4.288   3.935  16.289  0.00  0.00    +0.000 A 
ATOM     12  C   UNL     1       4.272   4.977  17.239  0.00  0.00    +0.000 A 
ATOM     13  C   UNL     1       5.259   6.103  17.061  0.00  0.00    +0.000 C 
ATOM     14  O   UNL     1       5.027   7.281  17.280  0.00  0.00    +0.000 OA
ATOM     15  C   UNL     1       6.558   5.734  16.395  0.00  0.00    +0.000 C 
ATOM     16  O   UNL     1       7.645   6.188  16.772  0.00  0.00    +0.000 OA
ATOM     17  C   UNL     1       6.393   4.889  15.267  0.00  0.00    +0.000 A 
ATOM     18  C   UNL     1       7.089   4.839  14.048  0.00  0.00    +0.000 A 
ATOM     19  C   UNL     1       6.291   4.027  13.260  0.00  0.00    +0.000 A 
ATOM     20  O   UNL     1       5.207   3.532  13.968  0.00  0.00    +0.000 OA
ATOM     21  C   UNL     1       5.287   4.078  15.212  0.00  0.00    +0.000 A 
ENDROOT
BRANCH  18  22
ATOM     22  C   UNL     1       8.331   5.615  13.752  0.00  0.00    +0.000 C 
BRANCH  22  23
ATOM     23  O   UNL     1       8.294   6.146  12.429  0.00  0.00    +0.000 OA
ATOM     24  H   UNL     1       9.208   6.419  12.209  0.00  0.00    +0.000 HD
ENDBRANCH  22  23
ENDBRANCH  18  22
TORSDOF 2
ENDMDL
MODEL 7
REMARK VINA RESULT:      -7.5      3.275      7.279
REMARK  Name = 
REMARK  4 active torsions:
REMARK  status: ('A' for Active; 'I' for Inactive)
REMARK    1  A    between atoms: C_1  and  C_2
REMARK    2  A    between atoms: C_2  and  C_3
REMARK    3  A    between atoms: C_18  and  C_19
REMARK    4  A    between atoms: C_19  and  O_20
REMARK                            x       y       z     vdW  Elec       q    Type
REMARK                         _______ _______ _______ _____ _____    ______ ____
ROOT
ATOM      1  C   UNL     1       1.727   4.321  18.050  0.00  0.00    +0.000 C 
ATOM      2  C   UNL     1       2.840   5.159  18.761  0.00  0.00    +0.000 C 
ATOM      3  C   UNL     1       3.541   4.162  19.717  0.00  0.00    +0.000 C 
ATOM      4  C   UNL     1       3.864   5.478  17.621  0.00  0.00    +0.000 C 
ATOM      5  C   UNL     1       4.135   6.917  17.258  0.00  0.00    +0.000 C 
ATOM      6  C   UNL     1       3.075   7.923  17.604  0.00  0.00    +0.000 C 
ATOM      7  C   UNL     1       2.204   7.643  18.787  0.00  0.00    +0.000 A 
ATOM      8  C   UNL     1       2.266   6.422  19.473  0.00  0.00    +0.000 A 
ATOM      9  C   UNL     1       1.755   6.464  20.795  0.00  0.00    +0.000 A 
ATOM     10  C   UNL     1       1.117   7.627  21.361  0.00  0.00    +0.000 A 
ATOM     11  C   UNL     1       0.860   8.748  20.570  0.00  0.00    +0.000 A 
ATOM     12  C   UNL     1       1.405   8.718  19.269  0.00  0.00    +0.000 A 
ATOM     13  C   UNL     1       1.115   9.886  18.361  0.00  0.00    +0.000 C 
ATOM     14  O   UNL     1       1.908  10.379  17.575  0.00  0.00    +0.000 OA
ATOM     15  C   UNL     1      -0.200  10.583  18.592  0.00  0.00    +0.000 C 
ATOM     16  O   UNL     1      -0.909  10.980  17.659  0.00  0.00    +0.000 OA
ATOM     17  C   UNL     1      -0.492  10.796  19.964  0.00  0.00    +0.000 A 
ATOM     18  C   UNL     1      -1.129  11.867  20.611  0.00  0.00    +0.000 A 
ATOM     19  C   UNL     1      -0.854  11.639  21.949  0.00  0.00    +0.000 A 
ATOM     20  O   UNL     1      -0.159  10.454  22.134  0.00  0.00    +0.000 OA
ATOM     21  C   UNL     1       0.058   9.944  20.891  0.00  0.00    +0.000 A 
ENDROOT
BRANCH  18  22
ATOM     22  C   UNL     1      -1.817  12.990  19.907  0.00  0.00    +0.000 C 
BRANCH  22  23
ATOM     23  O   UNL     1      -0.921  13.654  19.018  0.00  0.00    +0.000 OA
ATOM     24  H   UNL     1      -0.326  12.968  18.653  0.00  0.00    +0.000 HD
ENDBRANCH  22  23
ENDBRANCH  18  22
TORSDOF 2
ENDMDL
MODEL 8
REMARK VINA RESULT:      -7.2      2.590      4.872
REMARK  Name = 
REMARK  4 active torsions:
REMARK  status: ('A' for Active; 'I' for Inactive)
REMARK    1  A    between atoms: C_1  and  C_2
REMARK    2  A    between atoms: C_2  and  C_3
REMARK    3  A    between atoms: C_18  and  C_19
REMARK    4  A    between atoms: C_19  and  O_20
REMARK                            x       y       z     vdW  Elec       q    Type
REMARK                         _______ _______ _______ _____ _____    ______ ____
ROOT
ATOM      1  C   UNL     1      -0.492  13.820  22.395  0.00  0.00    +0.000 C 
ATOM      2  C   UNL     1      -1.572  12.699  22.237  0.00  0.00    +0.000 C 
ATOM      3  C   UNL     1      -2.338  12.690  23.582  0.00  0.00    +0.000 C 
ATOM      4  C   UNL     1      -2.559  13.268  21.165  0.00  0.00    +0.000 C 
ATOM      5  C   UNL     1      -2.748  12.520  19.869  0.00  0.00    +0.000 C 
ATOM      6  C   UNL     1      -1.643  11.598  19.442  0.00  0.00    +0.000 C 
ATOM      7  C   UNL     1      -0.807  10.966  20.508  0.00  0.00    +0.000 A 
ATOM      8  C   UNL     1      -0.944  11.323  21.856  0.00  0.00    +0.000 A 
ATOM      9  C   UNL     1      -0.451  10.358  22.773  0.00  0.00    +0.000 A 
ATOM     10  C   UNL     1       0.237   9.158  22.365  0.00  0.00    +0.000 A 
ATOM     11  C   UNL     1       0.565   8.952  21.024  0.00  0.00    +0.000 A 
ATOM     12  C   UNL     1       0.039   9.892  20.113  0.00  0.00    +0.000 A 
ATOM     13  C   UNL     1       0.404   9.737  18.659  0.00  0.00    +0.000 C 
ATOM     14  O   UNL     1      -0.350   9.937  17.720  0.00  0.00    +0.000 OA
ATOM     15  C   UNL     1       1.750   9.119  18.384  0.00  0.00    +0.000 C 
ATOM     16  O   UNL     1       2.493   9.529  17.484  0.00  0.00    +0.000 OA
ATOM     17  C   UNL     1       2.031   7.994  19.202  0.00  0.00    +0.000 A 
ATOM     18  C   UNL     1       2.713   6.799  18.917  0.00  0.00    +0.000 A 
ATOM     19  C   UNL     1       2.406   5.992  19.999  0.00  0.00    +0.000 A 
ATOM     20  O   UNL     1       1.646   6.667  20.942  0.00  0.00    +0.000 OA
ATOM     21  C   UNL     1       1.423   7.909  20.430  0.00  0.00    +0.000 A 
ENDROOT
BRANCH  18  22
ATOM     22  C   UNL     1       3.469   6.540  17.655  0.00  0.00    +0.000 C 
BRANCH  22  23
ATOM     23  O   UNL     1       3.558   5.140  17.397  0.00  0.00    +0.000 OA
ATOM     24  H   UNL     1       2.731   4.884  16.940  0.00  0.00    +0.000 HD
ENDBRANCH  22  23
ENDBRANCH  18  22
TORSDOF 2
ENDMDL
MODEL 9
REMARK VINA RESULT:      -6.6      1.701      3.619
REMARK  Name = 
REMARK  4 active torsions:
REMARK  status: ('A' for Active; 'I' for Inactive)
REMARK    1  A    between atoms: C_1  and  C_2
REMARK    2  A    between atoms: C_2  and  C_3
REMARK    3  A    between atoms: C_18  and  C_19
REMARK    4  A    between atoms: C_19  and  O_20
REMARK                            x       y       z     vdW  Elec       q    Type
REMARK                         _______ _______ _______ _____ _____    ______ ____
ROOT
ATOM      1  C   UNL     1       1.472  12.937  21.229  0.00  0.00    +0.000 C 
ATOM      2  C   UNL     1       0.192  12.071  20.981  0.00  0.00    +0.000 C 
ATOM      3  C   UNL     1      -0.769  12.439  22.138  0.00  0.00    +0.000 C 
ATOM      4  C   UNL     1      -0.429  12.673  19.677  0.00  0.00    +0.000 C 
ATOM      5  C   UNL     1      -0.574  11.794  18.460  0.00  0.00    +0.000 C 
ATOM      6  C   UNL     1       0.326  10.596  18.367  0.00  0.00    +0.000 C 
ATOM      7  C   UNL     1       0.788   9.967  19.642  0.00  0.00    +0.000 A 
ATOM      8  C   UNL     1       0.517  10.549  20.888  0.00  0.00    +0.000 A 
ATOM      9  C   UNL     1       0.595   9.652  21.985  0.00  0.00    +0.000 A 
ATOM     10  C   UNL     1       1.025   8.282  21.857  0.00  0.00    +0.000 A 
ATOM     11  C   UNL     1       1.514   7.803  20.641  0.00  0.00    +0.000 A 
ATOM     12  C   UNL     1       1.398   8.685  19.545  0.00  0.00    +0.000 A 
ATOM     13  C   UNL     1       1.954   8.231  18.219  0.00  0.00    +0.000 C 
ATOM     14  O   UNL     1       1.443   8.446  17.132  0.00  0.00    +0.000 OA
ATOM     15  C   UNL     1       3.133   7.296  18.291  0.00  0.00    +0.000 C 
ATOM     16  O   UNL     1       4.095   7.388  17.518  0.00  0.00    +0.000 OA
ATOM     17  C   UNL     1       2.985   6.276  19.266  0.00  0.00    +0.000 A 
ATOM     18  C   UNL     1       3.391   4.931  19.257  0.00  0.00    +0.000 A 
ATOM     19  C   UNL     1       2.716   4.389  20.337  0.00  0.00    +0.000 A 
ATOM     20  O   UNL     1       1.998   5.352  21.029  0.00  0.00    +0.000 OA
ATOM     21  C   UNL     1       2.177   6.518  20.349  0.00  0.00    +0.000 A 
ENDROOT
BRANCH  18  22
ATOM     22  C   UNL     1       4.262   4.320  18.209  0.00  0.00    +0.000 C 
BRANCH  22  23
ATOM     23  O   UNL     1       5.353   3.620  18.803  0.00  0.00    +0.000 OA
ATOM     24  H   UNL     1       5.611   2.915  18.174  0.00  0.00    +0.000 HD
ENDBRANCH  22  23
ENDBRANCH  18  22
TORSDOF 2
ENDMDL
