MODEL 1
REMARK VINA RESULT:      -6.8      0.000      0.000
REMARK  Name = 
REMARK  13 active torsions:
REMARK  status: ('A' for Active; 'I' for Inactive)
REMARK    1  A    between atoms: C_1  and  C_2
REMARK    2  A    between atoms: C_2  and  N_3
REMARK    3  A    between atoms: N_3  and  C_4
REMARK    4  A    between atoms: N_3  and  S_6
REMARK    5  A    between atoms: C_4  and  C_5
REMARK    6  A    between atoms: S_6  and  C_9
REMARK    7  A    between atoms: C_12  and  O_13
REMARK    8  A    between atoms: O_13  and  C_14
REMARK    9  A    between atoms: C_15  and  N_16
REMARK   10  A    between atoms: C_17  and  S_18
REMARK   11  A    between atoms: N_19  and  C_20
REMARK   12  A    between atoms: C_24  and  C_25
REMARK   13  A    between atoms: C_26  and  C_27
REMARK                            x       y       z     vdW  Elec       q    Type
REMARK                         _______ _______ _______ _____ _____    ______ ____
ROOT
ATOM      1  C   UNL     1       4.104   5.956  17.527  0.00  0.00    +0.000 A 
ATOM      2  C   UNL     1       3.547   4.708  17.281  0.00  0.00    +0.000 A 
ATOM      3  C   UNL     1       2.523   4.254  18.113  0.00  0.00    +0.000 A 
ATOM      4  C   UNL     1       2.063   5.021  19.201  0.00  0.00    +0.000 A 
ATOM      5  C   UNL     1       2.638   6.284  19.469  0.00  0.00    +0.000 A 
ATOM      6  C   UNL     1       3.658   6.728  18.605  0.00  0.00    +0.000 A 
ENDROOT
BRANCH   5   7
ATOM      7  N   UNL     1       2.152   7.125  20.485  0.00  0.00    +0.000 N 
ATOM      8  C   UNL     1       1.504   8.330  20.395  0.00  0.00    +0.000 C 
ATOM      9  N   UNL     1       1.061   8.854  19.298  0.00  0.00    +0.000 NA
ATOM     10  H   UNL     1       2.380   6.869  21.426  0.00  0.00    +0.000 HD
BRANCH   9  11
ATOM     11  C   UNL     1       0.341  10.050  19.161  0.00  0.00    +0.000 A 
ATOM     12  C   UNL     1      -0.970  10.196  19.625  0.00  0.00    +0.000 A 
ATOM     13  C   UNL     1      -1.651  11.401  19.492  0.00  0.00    +0.000 A 
ATOM     14  C   UNL     1      -0.994  12.514  18.984  0.00  0.00    +0.000 A 
ATOM     15  C   UNL     1       0.353  12.436  18.602  0.00  0.00    +0.000 A 
ATOM     16  C   UNL     1       1.050  13.702  18.185  0.00  0.00    +0.000 C 
ATOM     17  C   UNL     1       1.022  11.190  18.665  0.00  0.00    +0.000 A 
ATOM     18  C   UNL     1       2.471  11.050  18.261  0.00  0.00    +0.000 C 
ENDBRANCH   9  11
BRANCH   8  19
ATOM     19  S   UNL     1       1.346   9.022  22.007  0.00  0.00    +0.000 S 
ATOM     20  H   UNL     1       0.053   9.354  21.871  0.00  0.00    +0.000 HD
ENDBRANCH   8  19
ENDBRANCH   5   7
BRANCH   1  21
ATOM     21  S   UNL     1       5.450   6.543  16.525  0.00  0.00    +0.000 S 
ATOM     22  O   UNL     1       6.192   7.483  17.346  0.00  0.00    +0.000 OA
ATOM     23  O   UNL     1       4.924   6.938  15.237  0.00  0.00    +0.000 OA
BRANCH  21  24
ATOM     24  N   UNL     1       6.443   5.159  16.271  0.00  0.00    +0.000 NA
BRANCH  24  26
ATOM     25  C   UNL     1       6.092   3.855  14.150  0.00  0.00    +0.000 C 
ATOM     26  C   UNL     1       6.875   4.955  14.855  0.00  0.00    +0.000 C 
ENDBRANCH  24  26
BRANCH  24  27
ATOM     27  C   UNL     1       7.531   5.024  17.292  0.00  0.00    +0.000 C 
ATOM     28  C   UNL     1       7.036   4.611  18.670  0.00  0.00    +0.000 C 
ENDBRANCH  24  27
ENDBRANCH  21  24
ENDBRANCH   1  21
BRANCH   4  29
ATOM     29  O   UNL     1       0.978   4.443  19.814  0.00  0.00    +0.000 OA
ATOM     30  C   UNL     1       0.856   3.031  19.834  0.00  0.00    +0.000 C 
ENDBRANCH   4  29
TORSDOF 8
ENDMDL
MODEL 2
REMARK VINA RESULT:      -6.7      1.229      1.752
REMARK  Name = 
REMARK  13 active torsions:
REMARK  status: ('A' for Active; 'I' for Inactive)
REMARK    1  A    between atoms: C_1  and  C_2
REMARK    2  A    between atoms: C_2  and  N_3
REMARK    3  A    between atoms: N_3  and  C_4
REMARK    4  A    between atoms: N_3  and  S_6
REMARK    5  A    between atoms: C_4  and  C_5
REMARK    6  A    between atoms: S_6  and  C_9
REMARK    7  A    between atoms: C_12  and  O_13
REMARK    8  A    between atoms: O_13  and  C_14
REMARK    9  A    between atoms: C_15  and  N_16
REMARK   10  A    between atoms: C_17  and  S_18
REMARK   11  A    between atoms: N_19  and  C_20
REMARK   12  A    between atoms: C_24  and  C_25
REMARK   13  A    between atoms: C_26  and  C_27
REMARK                            x       y       z     vdW  Elec       q    Type
REMARK                         _______ _______ _______ _____ _____    ______ ____
ROOT
ATOM      1  C   UNL     1       3.932   5.623  17.612  0.00  0.00    +0.000 A 
ATOM      2  C   UNL     1       3.322   4.388  17.431  0.00  0.00    +0.000 A 
ATOM      3  C   UNL     1       2.319   3.998  18.319  0.00  0.00    +0.000 A 
ATOM      4  C   UNL     1       1.931   4.816  19.399  0.00  0.00    +0.000 A 
ATOM      5  C   UNL     1       2.560   6.066  19.599  0.00  0.00    +0.000 A 
ATOM      6  C   UNL     1       3.557   6.445  18.680  0.00  0.00    +0.000 A 
ENDROOT
BRANCH   5   7
ATOM      7  N   UNL     1       2.146   6.957  20.605  0.00  0.00    +0.000 N 
ATOM      8  C   UNL     1       1.554   8.190  20.499  0.00  0.00    +0.000 C 
ATOM      9  N   UNL     1       1.103   8.704  19.401  0.00  0.00    +0.000 NA
ATOM     10  H   UNL     1       2.390   6.716  21.546  0.00  0.00    +0.000 HD
BRANCH   9  11
ATOM     11  C   UNL     1       0.437   9.929  19.251  0.00  0.00    +0.000 A 
ATOM     12  C   UNL     1      -0.847  10.155  19.758  0.00  0.00    +0.000 A 
ATOM     13  C   UNL     1      -1.473  11.388  19.611  0.00  0.00    +0.000 A 
ATOM     14  C   UNL     1      -0.783  12.450  19.042  0.00  0.00    +0.000 A 
ATOM     15  C   UNL     1       0.543  12.294  18.613  0.00  0.00    +0.000 A 
ATOM     16  C   UNL     1       1.285  13.510  18.129  0.00  0.00    +0.000 C 
ATOM     17  C   UNL     1       1.153  11.019  18.693  0.00  0.00    +0.000 A 
ATOM     18  C   UNL     1       2.577  10.794  18.241  0.00  0.00    +0.000 C 
ENDBRANCH   9  11
BRANCH   8  19
ATOM     19  S   UNL     1       1.477   8.932  22.095  0.00  0.00    +0.000 S 
ATOM     20  H   UNL     1       0.624   9.903  21.737  0.00  0.00    +0.000 HD
ENDBRANCH   8  19
ENDBRANCH   5   7
BRANCH   1  21
ATOM     21  S   UNL     1       5.253   6.128  16.537  0.00  0.00    +0.000 S 
ATOM     22  O   UNL     1       4.831   7.376  15.927  0.00  0.00    +0.000 OA
ATOM     23  O   UNL     1       5.639   4.998  15.722  0.00  0.00    +0.000 OA
BRANCH  21  24
ATOM     24  N   UNL     1       6.571   6.472  17.593  0.00  0.00    +0.000 NA
BRANCH  24  26
ATOM     25  C   UNL     1       7.889   5.628  19.561  0.00  0.00    +0.000 C 
ATOM     26  C   UNL     1       7.147   5.275  18.279  0.00  0.00    +0.000 C 
ENDBRANCH  24  26
BRANCH  24  27
ATOM     27  C   UNL     1       7.577   7.404  16.989  0.00  0.00    +0.000 C 
ATOM     28  C   UNL     1       7.761   8.699  17.764  0.00  0.00    +0.000 C 
ENDBRANCH  24  27
ENDBRANCH  21  24
ENDBRANCH   1  21
BRANCH   4  29
ATOM     29  O   UNL     1       0.854   4.298  20.074  0.00  0.00    +0.000 OA
ATOM     30  C   UNL     1       1.012   3.118  20.844  0.00  0.00    +0.000 C 
ENDBRANCH   4  29
TORSDOF 8
ENDMDL
MODEL 3
REMARK VINA RESULT:      -6.6      6.347      9.107
REMARK  Name = 
REMARK  13 active torsions:
REMARK  status: ('A' for Active; 'I' for Inactive)
REMARK    1  A    between atoms: C_1  and  C_2
REMARK    2  A    between atoms: C_2  and  N_3
REMARK    3  A    between atoms: N_3  and  C_4
REMARK    4  A    between atoms: N_3  and  S_6
REMARK    5  A    between atoms: C_4  and  C_5
REMARK    6  A    between atoms: S_6  and  C_9
REMARK    7  A    between atoms: C_12  and  O_13
REMARK    8  A    between atoms: O_13  and  C_14
REMARK    9  A    between atoms: C_15  and  N_16
REMARK   10  A    between atoms: C_17  and  S_18
REMARK   11  A    between atoms: N_19  and  C_20
REMARK   12  A    between atoms: C_24  and  C_25
REMARK   13  A    between atoms: C_26  and  C_27
REMARK                            x       y       z     vdW  Elec       q    Type
REMARK                         _______ _______ _______ _____ _____    ______ ____
ROOT
ATOM      1  C   UNL     1      -1.265  11.347  19.180  0.00  0.00    +0.000 A 
ATOM      2  C   UNL     1      -0.893  10.408  18.226  0.00  0.00    +0.000 A 
ATOM      3  C   UNL     1      -1.803  10.073  17.223  0.00  0.00    +0.000 A 
ATOM      4  C   UNL     1      -3.088  10.648  17.172  0.00  0.00    +0.000 A 
ATOM      5  C   UNL     1      -3.480  11.590  18.150  0.00  0.00    +0.000 A 
ATOM      6  C   UNL     1      -2.538  11.926  19.142  0.00  0.00    +0.000 A 
ENDROOT
BRANCH   5   7
ATOM      7  N   UNL     1      -4.714  12.259  18.089  0.00  0.00    +0.000 N 
ATOM      8  C   UNL     1      -5.576  12.610  19.097  0.00  0.00    +0.000 C 
ATOM      9  N   UNL     1      -5.312  12.525  20.361  0.00  0.00    +0.000 NA
ATOM     10  H   UNL     1      -5.083  12.438  17.175  0.00  0.00    +0.000 HD
BRANCH   9  11
ATOM     11  C   UNL     1      -6.133  12.927  21.425  0.00  0.00    +0.000 A 
ATOM     12  C   UNL     1      -7.132  12.105  21.957  0.00  0.00    +0.000 A 
ATOM     13  C   UNL     1      -7.917  12.524  23.027  0.00  0.00    +0.000 A 
ATOM     14  C   UNL     1      -7.645  13.735  23.650  0.00  0.00    +0.000 A 
ATOM     15  C   UNL     1      -6.585  14.543  23.212  0.00  0.00    +0.000 A 
ATOM     16  C   UNL     1      -6.253  15.777  24.007  0.00  0.00    +0.000 C 
ATOM     17  C   UNL     1      -5.837  14.151  22.076  0.00  0.00    +0.000 A 
ATOM     18  C   UNL     1      -4.688  14.987  21.560  0.00  0.00    +0.000 C 
ENDBRANCH   9  11
BRANCH   8  19
ATOM     19  S   UNL     1      -7.070  13.222  18.392  0.00  0.00    +0.000 S 
ATOM     20  H   UNL     1      -6.466  13.945  17.437  0.00  0.00    +0.000 HD
ENDBRANCH   8  19
ENDBRANCH   5   7
BRANCH   1  21
ATOM     21  S   UNL     1      -0.154  11.756  20.506  0.00  0.00    +0.000 S 
ATOM     22  O   UNL     1      -0.057  13.204  20.528  0.00  0.00    +0.000 OA
ATOM     23  O   UNL     1       1.030  10.935  20.381  0.00  0.00    +0.000 OA
BRANCH  21  24
ATOM     24  N   UNL     1      -0.976  11.257  21.936  0.00  0.00    +0.000 NA
BRANCH  24  26
ATOM     25  C   UNL     1      -0.556   8.809  22.328  0.00  0.00    +0.000 C 
ATOM     26  C   UNL     1      -0.245  10.238  22.750  0.00  0.00    +0.000 C 
ENDBRANCH  24  26
BRANCH  24  27
ATOM     27  C   UNL     1      -1.545  12.404  22.714  0.00  0.00    +0.000 C 
ATOM     28  C   UNL     1      -2.911  12.121  23.319  0.00  0.00    +0.000 C 
ENDBRANCH  24  27
ENDBRANCH  21  24
ENDBRANCH   1  21
BRANCH   4  29
ATOM     29  O   UNL     1      -3.776  10.270  16.046  0.00  0.00    +0.000 OA
ATOM     30  C   UNL     1      -3.086  10.150  14.813  0.00  0.00    +0.000 C 
ENDBRANCH   4  29
TORSDOF 8
ENDMDL
MODEL 4
REMARK VINA RESULT:      -6.6      1.317      2.282
REMARK  Name = 
REMARK  13 active torsions:
REMARK  status: ('A' for Active; 'I' for Inactive)
REMARK    1  A    between atoms: C_1  and  C_2
REMARK    2  A    between atoms: C_2  and  N_3
REMARK    3  A    between atoms: N_3  and  C_4
REMARK    4  A    between atoms: N_3  and  S_6
REMARK    5  A    between atoms: C_4  and  C_5
REMARK    6  A    between atoms: S_6  and  C_9
REMARK    7  A    between atoms: C_12  and  O_13
REMARK    8  A    between atoms: O_13  and  C_14
REMARK    9  A    between atoms: C_15  and  N_16
REMARK   10  A    between atoms: C_17  and  S_18
REMARK   11  A    between atoms: N_19  and  C_20
REMARK   12  A    between atoms: C_24  and  C_25
REMARK   13  A    between atoms: C_26  and  C_27
REMARK                            x       y       z     vdW  Elec       q    Type
REMARK                         _______ _______ _______ _____ _____    ______ ____
ROOT
ATOM      1  C   UNL     1       3.989   5.557  17.470  0.00  0.00    +0.000 A 
ATOM      2  C   UNL     1       3.426   4.296  17.320  0.00  0.00    +0.000 A 
ATOM      3  C   UNL     1       2.410   3.906  18.193  0.00  0.00    +0.000 A 
ATOM      4  C   UNL     1       1.962   4.752  19.227  0.00  0.00    +0.000 A 
ATOM      5  C   UNL     1       2.543   6.029  19.397  0.00  0.00    +0.000 A 
ATOM      6  C   UNL     1       3.555   6.407  18.493  0.00  0.00    +0.000 A 
ENDROOT
BRANCH   5   7
ATOM      7  N   UNL     1       2.069   6.943  20.353  0.00  0.00    +0.000 N 
ATOM      8  C   UNL     1       1.719   8.262  20.213  0.00  0.00    +0.000 C 
ATOM      9  N   UNL     1       1.606   8.883  19.084  0.00  0.00    +0.000 NA
ATOM     10  H   UNL     1       2.061   6.632  21.306  0.00  0.00    +0.000 HD
BRANCH   9  11
ATOM     11  C   UNL     1       1.194  10.209  18.885  0.00  0.00    +0.000 A 
ATOM     12  C   UNL     1       2.096  11.247  18.632  0.00  0.00    +0.000 A 
ATOM     13  C   UNL     1       1.654  12.549  18.418  0.00  0.00    +0.000 A 
ATOM     14  C   UNL     1       0.293  12.815  18.353  0.00  0.00    +0.000 A 
ATOM     15  C   UNL     1      -0.646  11.783  18.500  0.00  0.00    +0.000 A 
ATOM     16  C   UNL     1      -2.100  12.105  18.288  0.00  0.00    +0.000 C 
ATOM     17  C   UNL     1      -0.196  10.473  18.794  0.00  0.00    +0.000 A 
ATOM     18  C   UNL     1      -1.164   9.325  18.967  0.00  0.00    +0.000 C 
ENDBRANCH   9  11
BRANCH   8  19
ATOM     19  S   UNL     1       1.419   8.952  21.806  0.00  0.00    +0.000 S 
ATOM     20  H   UNL     1       2.667   9.415  21.976  0.00  0.00    +0.000 HD
ENDBRANCH   8  19
ENDBRANCH   5   7
BRANCH   1  21
ATOM     21  S   UNL     1       5.325   6.066  16.414  0.00  0.00    +0.000 S 
ATOM     22  O   UNL     1       4.888   7.284  15.757  0.00  0.00    +0.000 OA
ATOM     23  O   UNL     1       5.761   4.923  15.643  0.00  0.00    +0.000 OA
BRANCH  21  24
ATOM     24  N   UNL     1       6.605   6.474  17.494  0.00  0.00    +0.000 NA
BRANCH  24  26
ATOM     25  C   UNL     1       7.626   5.593  19.616  0.00  0.00    +0.000 C 
ATOM     26  C   UNL     1       7.245   5.305  18.170  0.00  0.00    +0.000 C 
ENDBRANCH  24  26
BRANCH  24  27
ATOM     27  C   UNL     1       7.560   7.475  16.917  0.00  0.00    +0.000 C 
ATOM     28  C   UNL     1       7.879   8.632  17.851  0.00  0.00    +0.000 C 
ENDBRANCH  24  27
ENDBRANCH  21  24
ENDBRANCH   1  21
BRANCH   4  29
ATOM     29  O   UNL     1       0.883   4.223  19.891  0.00  0.00    +0.000 OA
ATOM     30  C   UNL     1       1.082   3.184  20.835  0.00  0.00    +0.000 C 
ENDBRANCH   4  29
TORSDOF 8
ENDMDL
MODEL 5
REMARK VINA RESULT:      -6.5      0.438      1.517
REMARK  Name = 
REMARK  13 active torsions:
REMARK  status: ('A' for Active; 'I' for Inactive)
REMARK    1  A    between atoms: C_1  and  C_2
REMARK    2  A    between atoms: C_2  and  N_3
REMARK    3  A    between atoms: N_3  and  C_4
REMARK    4  A    between atoms: N_3  and  S_6
REMARK    5  A    between atoms: C_4  and  C_5
REMARK    6  A    between atoms: S_6  and  C_9
REMARK    7  A    between atoms: C_12  and  O_13
REMARK    8  A    between atoms: O_13  and  C_14
REMARK    9  A    between atoms: C_15  and  N_16
REMARK   10  A    between atoms: C_17  and  S_18
REMARK   11  A    between atoms: N_19  and  C_20
REMARK   12  A    between atoms: C_24  and  C_25
REMARK   13  A    between atoms: C_26  and  C_27
REMARK                            x       y       z     vdW  Elec       q    Type
REMARK                         _______ _______ _______ _____ _____    ______ ____
ROOT
ATOM      1  C   UNL     1       4.106   5.998  17.617  0.00  0.00    +0.000 A 
ATOM      2  C   UNL     1       3.546   4.756  17.345  0.00  0.00    +0.000 A 
ATOM      3  C   UNL     1       2.507   4.296  18.156  0.00  0.00    +0.000 A 
ATOM      4  C   UNL     1       2.035   5.051  19.247  0.00  0.00    +0.000 A 
ATOM      5  C   UNL     1       2.612   6.307  19.540  0.00  0.00    +0.000 A 
ATOM      6  C   UNL     1       3.647   6.758  18.698  0.00  0.00    +0.000 A 
ENDROOT
BRANCH   5   7
ATOM      7  N   UNL     1       2.115   7.137  20.559  0.00  0.00    +0.000 N 
ATOM      8  C   UNL     1       1.476   8.348  20.475  0.00  0.00    +0.000 C 
ATOM      9  N   UNL     1       1.054   8.889  19.378  0.00  0.00    +0.000 NA
ATOM     10  H   UNL     1       2.326   6.868  21.501  0.00  0.00    +0.000 HD
BRANCH   9  11
ATOM     11  C   UNL     1       0.343  10.091  19.246  0.00  0.00    +0.000 A 
ATOM     12  C   UNL     1      -0.952  10.259  19.747  0.00  0.00    +0.000 A 
ATOM     13  C   UNL     1      -1.624  11.470  19.619  0.00  0.00    +0.000 A 
ATOM     14  C   UNL     1      -0.969  12.568  19.075  0.00  0.00    +0.000 A 
ATOM     15  C   UNL     1       0.365  12.470  18.654  0.00  0.00    +0.000 A 
ATOM     16  C   UNL     1       1.063  13.722  18.198  0.00  0.00    +0.000 C 
ATOM     17  C   UNL     1       1.021  11.217  18.715  0.00  0.00    +0.000 A 
ATOM     18  C   UNL     1       2.456  11.055  18.270  0.00  0.00    +0.000 C 
ENDBRANCH   9  11
BRANCH   8  19
ATOM     19  S   UNL     1       1.295   9.019  22.094  0.00  0.00    +0.000 S 
ATOM     20  H   UNL     1       1.029   7.844  22.684  0.00  0.00    +0.000 HD
ENDBRANCH   8  19
ENDBRANCH   5   7
BRANCH   1  21
ATOM     21  S   UNL     1       5.469   6.591  16.643  0.00  0.00    +0.000 S 
ATOM     22  O   UNL     1       5.962   7.782  17.310  0.00  0.00    +0.000 OA
ATOM     23  O   UNL     1       5.059   6.634  15.257  0.00  0.00    +0.000 OA
BRANCH  21  24
ATOM     24  N   UNL     1       6.674   5.366  16.784  0.00  0.00    +0.000 NA
BRANCH  24  26
ATOM     25  C   UNL     1       7.844   5.667  18.989  0.00  0.00    +0.000 C 
ATOM     26  C   UNL     1       6.865   4.838  18.169  0.00  0.00    +0.000 C 
ENDBRANCH  24  26
BRANCH  24  27
ATOM     27  C   UNL     1       6.574   4.322  15.714  0.00  0.00    +0.000 C 
ATOM     28  C   UNL     1       7.194   4.736  14.389  0.00  0.00    +0.000 C 
ENDBRANCH  24  27
ENDBRANCH  21  24
ENDBRANCH   1  21
BRANCH   4  29
ATOM     29  O   UNL     1       0.938   4.471  19.836  0.00  0.00    +0.000 OA
ATOM     30  C   UNL     1       1.088   3.254  20.547  0.00  0.00    +0.000 C 
ENDBRANCH   4  29
TORSDOF 8
ENDMDL
MODEL 6
REMARK VINA RESULT:      -6.5      0.700      1.540
REMARK  Name = 
REMARK  13 active torsions:
REMARK  status: ('A' for Active; 'I' for Inactive)
REMARK    1  A    between atoms: C_1  and  C_2
REMARK    2  A    between atoms: C_2  and  N_3
REMARK    3  A    between atoms: N_3  and  C_4
REMARK    4  A    between atoms: N_3  and  S_6
REMARK    5  A    between atoms: C_4  and  C_5
REMARK    6  A    between atoms: S_6  and  C_9
REMARK    7  A    between atoms: C_12  and  O_13
REMARK    8  A    between atoms: O_13  and  C_14
REMARK    9  A    between atoms: C_15  and  N_16
REMARK   10  A    between atoms: C_17  and  S_18
REMARK   11  A    between atoms: N_19  and  C_20
REMARK   12  A    between atoms: C_24  and  C_25
REMARK   13  A    between atoms: C_26  and  C_27
REMARK                            x       y       z     vdW  Elec       q    Type
REMARK                         _______ _______ _______ _____ _____    ______ ____
ROOT
ATOM      1  C   UNL     1       3.982   5.835  17.548  0.00  0.00    +0.000 A 
ATOM      2  C   UNL     1       3.455   4.560  17.385  0.00  0.00    +0.000 A 
ATOM      3  C   UNL     1       2.442   4.136  18.246  0.00  0.00    +0.000 A 
ATOM      4  C   UNL     1       1.962   4.962  19.282  0.00  0.00    +0.000 A 
ATOM      5  C   UNL     1       2.506   6.253  19.465  0.00  0.00    +0.000 A 
ATOM      6  C   UNL     1       3.516   6.665  18.573  0.00  0.00    +0.000 A 
ENDROOT
BRANCH   5   7
ATOM      7  N   UNL     1       1.999   7.147  20.423  0.00  0.00    +0.000 N 
ATOM      8  C   UNL     1       1.589   8.449  20.284  0.00  0.00    +0.000 C 
ATOM      9  N   UNL     1       1.440   9.062  19.154  0.00  0.00    +0.000 NA
ATOM     10  H   UNL     1       2.012   6.838  21.376  0.00  0.00    +0.000 HD
BRANCH   9  11
ATOM     11  C   UNL     1       0.967  10.367  18.956  0.00  0.00    +0.000 A 
ATOM     12  C   UNL     1       1.823  11.463  18.807  0.00  0.00    +0.000 A 
ATOM     13  C   UNL     1       1.324  12.744  18.591  0.00  0.00    +0.000 A 
ATOM     14  C   UNL     1      -0.041  12.933  18.418  0.00  0.00    +0.000 A 
ATOM     15  C   UNL     1      -0.925  11.844  18.458  0.00  0.00    +0.000 A 
ATOM     16  C   UNL     1      -2.373  12.089  18.131  0.00  0.00    +0.000 C 
ATOM     17  C   UNL     1      -0.424  10.554  18.754  0.00  0.00    +0.000 A 
ATOM     18  C   UNL     1      -1.333   9.348  18.814  0.00  0.00    +0.000 C 
ENDBRANCH   9  11
BRANCH   8  19
ATOM     19  S   UNL     1       1.270   9.128  21.878  0.00  0.00    +0.000 S 
ATOM     20  H   UNL     1       1.190   7.943  22.501  0.00  0.00    +0.000 HD
ENDBRANCH   8  19
ENDBRANCH   5   7
BRANCH   1  21
ATOM     21  S   UNL     1       5.313   6.388  16.509  0.00  0.00    +0.000 S 
ATOM     22  O   UNL     1       6.222   7.128  17.365  0.00  0.00    +0.000 OA
ATOM     23  O   UNL     1       4.749   6.997  15.325  0.00  0.00    +0.000 OA
BRANCH  21  24
ATOM     24  N   UNL     1       6.110   4.943  16.012  0.00  0.00    +0.000 NA
BRANCH  24  26
ATOM     25  C   UNL     1       7.104   4.766  13.709  0.00  0.00    +0.000 C 
ATOM     26  C   UNL     1       5.875   4.562  14.585  0.00  0.00    +0.000 C 
ENDBRANCH  24  26
BRANCH  24  27
ATOM     27  C   UNL     1       7.539   4.879  16.459  0.00  0.00    +0.000 C 
ATOM     28  C   UNL     1       7.708   4.552  17.935  0.00  0.00    +0.000 C 
ENDBRANCH  24  27
ENDBRANCH  21  24
ENDBRANCH   1  21
BRANCH   4  29
ATOM     29  O   UNL     1       0.892   4.400  19.932  0.00  0.00    +0.000 OA
ATOM     30  C   UNL     1       1.020   3.108  20.502  0.00  0.00    +0.000 C 
ENDBRANCH   4  29
TORSDOF 8
ENDMDL
MODEL 7
REMARK VINA RESULT:      -6.4      2.373      3.477
REMARK  Name = 
REMARK  13 active torsions:
REMARK  status: ('A' for Active; 'I' for Inactive)
REMARK    1  A    between atoms: C_1  and  C_2
REMARK    2  A    between atoms: C_2  and  N_3
REMARK    3  A    between atoms: N_3  and  C_4
REMARK    4  A    between atoms: N_3  and  S_6
REMARK    5  A    between atoms: C_4  and  C_5
REMARK    6  A    between atoms: S_6  and  C_9
REMARK    7  A    between atoms: C_12  and  O_13
REMARK    8  A    between atoms: O_13  and  C_14
REMARK    9  A    between atoms: C_15  and  N_16
REMARK   10  A    between atoms: C_17  and  S_18
REMARK   11  A    between atoms: N_19  and  C_20
REMARK   12  A    between atoms: C_24  and  C_25
REMARK   13  A    between atoms: C_26  and  C_27
REMARK                            x       y       z     vdW  Elec       q    Type
REMARK                         _______ _______ _______ _____ _____    ______ ____
ROOT
ATOM      1  C   UNL     1       2.858   5.150  18.943  0.00  0.00    +0.000 A 
ATOM      2  C   UNL     1       2.198   4.780  20.109  0.00  0.00    +0.000 A 
ATOM      3  C   UNL     1       1.587   5.770  20.878  0.00  0.00    +0.000 A 
ATOM      4  C   UNL     1       1.644   7.129  20.510  0.00  0.00    +0.000 A 
ATOM      5  C   UNL     1       2.330   7.515  19.335  0.00  0.00    +0.000 A 
ATOM      6  C   UNL     1       2.924   6.495  18.566  0.00  0.00    +0.000 A 
ENDROOT
BRANCH   5   7
ATOM      7  N   UNL     1       2.337   8.844  18.878  0.00  0.00    +0.000 N 
ATOM      8  C   UNL     1       1.296   9.640  18.472  0.00  0.00    +0.000 C 
ATOM      9  N   UNL     1       0.043   9.345  18.599  0.00  0.00    +0.000 NA
ATOM     10  H   UNL     1       3.235   9.264  18.734  0.00  0.00    +0.000 HD
BRANCH   9  11
ATOM     11  C   UNL     1      -1.054  10.149  18.257  0.00  0.00    +0.000 A 
ATOM     12  C   UNL     1      -1.750  10.000  17.053  0.00  0.00    +0.000 A 
ATOM     13  C   UNL     1      -2.848  10.799  16.751  0.00  0.00    +0.000 A 
ATOM     14  C   UNL     1      -3.331  11.694  17.697  0.00  0.00    +0.000 A 
ATOM     15  C   UNL     1      -2.725  11.801  18.957  0.00  0.00    +0.000 A 
ATOM     16  C   UNL     1      -3.370  12.687  19.987  0.00  0.00    +0.000 C 
ATOM     17  C   UNL     1      -1.562  11.043  19.233  0.00  0.00    +0.000 A 
ATOM     18  C   UNL     1      -0.866  11.124  20.572  0.00  0.00    +0.000 C 
ENDBRANCH   9  11
BRANCH   8  19
ATOM     19  S   UNL     1       1.943  11.131  17.790  0.00  0.00    +0.000 S 
ATOM     20  H   UNL     1       1.698  11.878  18.877  0.00  0.00    +0.000 HD
ENDBRANCH   8  19
ENDBRANCH   5   7
BRANCH   1  21
ATOM     21  S   UNL     1       3.698   3.924  17.969  0.00  0.00    +0.000 S 
ATOM     22  O   UNL     1       2.810   3.595  16.869  0.00  0.00    +0.000 OA
ATOM     23  O   UNL     1       4.193   2.893  18.856  0.00  0.00    +0.000 OA
BRANCH  21  24
ATOM     24  N   UNL     1       5.069   4.743  17.320  0.00  0.00    +0.000 NA
BRANCH  24  26
ATOM     25  C   UNL     1       6.511   5.533  19.222  0.00  0.00    +0.000 C 
ATOM     26  C   UNL     1       6.336   4.536  18.085  0.00  0.00    +0.000 C 
ENDBRANCH  24  26
BRANCH  24  27
ATOM     27  C   UNL     1       5.191   4.591  15.835  0.00  0.00    +0.000 C 
ATOM     28  C   UNL     1       6.625   4.618  15.329  0.00  0.00    +0.000 C 
ENDBRANCH  24  27
ENDBRANCH  21  24
ENDBRANCH   1  21
BRANCH   4  29
ATOM     29  O   UNL     1       0.883   7.918  21.337  0.00  0.00    +0.000 OA
ATOM     30  C   UNL     1       1.516   8.884  22.159  0.00  0.00    +0.000 C 
ENDBRANCH   4  29
TORSDOF 8
ENDMDL
MODEL 8
REMARK VINA RESULT:      -6.4      3.004      4.933
REMARK  Name = 
REMARK  13 active torsions:
REMARK  status: ('A' for Active; 'I' for Inactive)
REMARK    1  A    between atoms: C_1  and  C_2
REMARK    2  A    between atoms: C_2  and  N_3
REMARK    3  A    between atoms: N_3  and  C_4
REMARK    4  A    between atoms: N_3  and  S_6
REMARK    5  A    between atoms: C_4  and  C_5
REMARK    6  A    between atoms: S_6  and  C_9
REMARK    7  A    between atoms: C_12  and  O_13
REMARK    8  A    between atoms: O_13  and  C_14
REMARK    9  A    between atoms: C_15  and  N_16
REMARK   10  A    between atoms: C_17  and  S_18
REMARK   11  A    between atoms: N_19  and  C_20
REMARK   12  A    between atoms: C_24  and  C_25
REMARK   13  A    between atoms: C_26  and  C_27
REMARK                            x       y       z     vdW  Elec       q    Type
REMARK                         _______ _______ _______ _____ _____    ______ ____
ROOT
ATOM      1  C   UNL     1       1.942   7.717  19.475  0.00  0.00    +0.000 A 
ATOM      2  C   UNL     1       1.644   7.380  20.790  0.00  0.00    +0.000 A 
ATOM      3  C   UNL     1       1.032   8.332  21.605  0.00  0.00    +0.000 A 
ATOM      4  C   UNL     1       0.731   9.625  21.130  0.00  0.00    +0.000 A 
ATOM      5  C   UNL     1       1.048   9.980  19.800  0.00  0.00    +0.000 A 
ATOM      6  C   UNL     1       1.650   8.997  18.991  0.00  0.00    +0.000 A 
ENDROOT
BRANCH   5   7
ATOM      7  N   UNL     1       0.686  11.223  19.253  0.00  0.00    +0.000 N 
ATOM      8  C   UNL     1      -0.531  11.665  18.800  0.00  0.00    +0.000 C 
ATOM      9  N   UNL     1      -1.652  11.037  18.954  0.00  0.00    +0.000 NA
ATOM     10  H   UNL     1       1.431  11.870  19.076  0.00  0.00    +0.000 HD
BRANCH   9  11
ATOM     11  C   UNL     1      -2.927  11.473  18.565  0.00  0.00    +0.000 A 
ATOM     12  C   UNL     1      -3.511  11.102  17.349  0.00  0.00    +0.000 A 
ATOM     13  C   UNL     1      -4.786  11.535  17.001  0.00  0.00    +0.000 A 
ATOM     14  C   UNL     1      -5.540  12.264  17.910  0.00  0.00    +0.000 A 
ATOM     15  C   UNL     1      -5.031  12.570  19.181  0.00  0.00    +0.000 A 
ATOM     16  C   UNL     1      -5.940  13.245  20.171  0.00  0.00    +0.000 C 
ATOM     17  C   UNL     1      -3.705  12.195  19.504  0.00  0.00    +0.000 A 
ATOM     18  C   UNL     1      -3.105  12.504  20.857  0.00  0.00    +0.000 C 
ENDBRANCH   9  11
BRANCH   8  19
ATOM     19  S   UNL     1      -0.323  13.228  18.016  0.00  0.00    +0.000 S 
ATOM     20  H   UNL     1       0.712  13.611  18.779  0.00  0.00    +0.000 HD
ENDBRANCH   8  19
ENDBRANCH   5   7
BRANCH   1  21
ATOM     21  S   UNL     1       2.775   6.551  18.425  0.00  0.00    +0.000 S 
ATOM     22  O   UNL     1       3.801   7.296  17.717  0.00  0.00    +0.000 OA
ATOM     23  O   UNL     1       1.779   5.792  17.701  0.00  0.00    +0.000 OA
BRANCH  21  24
ATOM     24  N   UNL     1       3.559   5.466  19.510  0.00  0.00    +0.000 NA
BRANCH  24  26
ATOM     25  C   UNL     1       2.338   3.891  21.044  0.00  0.00    +0.000 C 
ATOM     26  C   UNL     1       2.894   4.134  19.647  0.00  0.00    +0.000 C 
ENDBRANCH  24  26
BRANCH  24  27
ATOM     27  C   UNL     1       5.044   5.416  19.317  0.00  0.00    +0.000 C 
ATOM     28  C   UNL     1       5.503   4.345  18.339  0.00  0.00    +0.000 C 
ENDBRANCH  24  27
ENDBRANCH  21  24
ENDBRANCH   1  21
BRANCH   4  29
ATOM     29  O   UNL     1       0.029  10.360  22.053  0.00  0.00    +0.000 OA
ATOM     30  C   UNL     1      -0.346   9.763  23.284  0.00  0.00    +0.000 C 
ENDBRANCH   4  29
TORSDOF 8
ENDMDL
MODEL 9
REMARK VINA RESULT:      -6.3      6.499      9.313
REMARK  Name = 
REMARK  13 active torsions:
REMARK  status: ('A' for Active; 'I' for Inactive)
REMARK    1  A    between atoms: C_1  and  C_2
REMARK    2  A    between atoms: C_2  and  N_3
REMARK    3  A    between atoms: N_3  and  C_4
REMARK    4  A    between atoms: N_3  and  S_6
REMARK    5  A    between atoms: C_4  and  C_5
REMARK    6  A    between atoms: S_6  and  C_9
REMARK    7  A    between atoms: C_12  and  O_13
REMARK    8  A    between atoms: O_13  and  C_14
REMARK    9  A    between atoms: C_15  and  N_16
REMARK   10  A    between atoms: C_17  and  S_18
REMARK   11  A    between atoms: N_19  and  C_20
REMARK   12  A    between atoms: C_24  and  C_25
REMARK   13  A    between atoms: C_26  and  C_27
REMARK                            x       y       z     vdW  Elec       q    Type
REMARK                         _______ _______ _______ _____ _____    ______ ____
ROOT
ATOM      1  C   UNL     1      -1.367  11.002  19.181  0.00  0.00    +0.000 A 
ATOM      2  C   UNL     1      -1.066  10.128  18.143  0.00  0.00    +0.000 A 
ATOM      3  C   UNL     1      -1.974   9.998  17.092  0.00  0.00    +0.000 A 
ATOM      4  C   UNL     1      -3.188  10.713  17.073  0.00  0.00    +0.000 A 
ATOM      5  C   UNL     1      -3.508  11.589  18.135  0.00  0.00    +0.000 A 
ATOM      6  C   UNL     1      -2.569  11.717  19.176  0.00  0.00    +0.000 A 
ENDROOT
BRANCH   5   7
ATOM      7  N   UNL     1      -4.661  12.392  18.117  0.00  0.00    +0.000 N 
ATOM      8  C   UNL     1      -5.498  12.754  19.142  0.00  0.00    +0.000 C 
ATOM      9  N   UNL     1      -5.269  12.539  20.397  0.00  0.00    +0.000 NA
ATOM     10  H   UNL     1      -4.992  12.683  17.217  0.00  0.00    +0.000 HD
BRANCH   9  11
ATOM     11  C   UNL     1      -6.060  12.942  21.483  0.00  0.00    +0.000 A 
ATOM     12  C   UNL     1      -7.054  12.125  22.034  0.00  0.00    +0.000 A 
ATOM     13  C   UNL     1      -7.809  12.544  23.124  0.00  0.00    +0.000 A 
ATOM     14  C   UNL     1      -7.512  13.750  23.747  0.00  0.00    +0.000 A 
ATOM     15  C   UNL     1      -6.457  14.551  23.289  0.00  0.00    +0.000 A 
ATOM     16  C   UNL     1      -6.096  15.778  24.082  0.00  0.00    +0.000 C 
ATOM     17  C   UNL     1      -5.740  14.160  22.133  0.00  0.00    +0.000 A 
ATOM     18  C   UNL     1      -4.596  14.989  21.594  0.00  0.00    +0.000 C 
ENDBRANCH   9  11
BRANCH   8  19
ATOM     19  S   UNL     1      -6.904  13.581  18.475  0.00  0.00    +0.000 S 
ATOM     20  H   UNL     1      -6.293  13.965  17.344  0.00  0.00    +0.000 HD
ENDBRANCH   8  19
ENDBRANCH   5   7
BRANCH   1  21
ATOM     21  S   UNL     1      -0.263  11.150  20.567  0.00  0.00    +0.000 S 
ATOM     22  O   UNL     1       1.016  11.576  20.028  0.00  0.00    +0.000 OA
ATOM     23  O   UNL     1      -0.367   9.949  21.366  0.00  0.00    +0.000 OA
BRANCH  21  24
ATOM     24  N   UNL     1      -0.905  12.447  21.502  0.00  0.00    +0.000 NA
BRANCH  24  26
ATOM     25  C   UNL     1      -2.765  12.126  23.164  0.00  0.00    +0.000 C 
ATOM     26  C   UNL     1      -1.264  12.083  22.907  0.00  0.00    +0.000 C 
ENDBRANCH  24  26
BRANCH  24  27
ATOM     27  C   UNL     1      -0.123  13.717  21.356  0.00  0.00    +0.000 C 
ATOM     28  C   UNL     1      -0.956  14.904  20.896  0.00  0.00    +0.000 C 
ENDBRANCH  24  27
ENDBRANCH  21  24
ENDBRANCH   1  21
BRANCH   4  29
ATOM     29  O   UNL     1      -3.874  10.528  15.898  0.00  0.00    +0.000 OA
ATOM     30  C   UNL     1      -3.159  10.244  14.708  0.00  0.00    +0.000 C 
ENDBRANCH   4  29
TORSDOF 8
ENDMDL
