MODEL 1
REMARK VINA RESULT:      -8.4      0.000      0.000
REMARK  Name = 
REMARK  3 active torsions:
REMARK  status: ('A' for Active; 'I' for Inactive)
REMARK    1  A    between atoms: C_7  and  N_8
REMARK    2  A    between atoms: C_10  and  C_11
REMARK    3  A    between atoms: C_22  and  C_23
REMARK                            x       y       z     vdW  Elec       q    Type
REMARK                         _______ _______ _______ _____ _____    ______ ____
ROOT
ATOM      1  N   UNL     1       0.239  10.808  19.322  0.00  0.00    +0.000 N 
ATOM      2  N   UNL     1       0.483   9.490  19.583  0.00  0.00    +0.000 NA
ATOM      3  C   UNL     1       1.560   9.147  18.943  0.00  0.00    +0.000 C 
ATOM      4  C   UNL     1       2.197  10.238  18.138  0.00  0.00    +0.000 C 
ATOM      5  C   UNL     1       1.205  11.373  18.373  0.00  0.00    +0.000 C 
ENDROOT
BRANCH   3   6
ATOM      6  C   UNL     1       2.142   7.794  18.992  0.00  0.00    +0.000 A 
ATOM      7  C   UNL     1       3.003   7.385  17.971  0.00  0.00    +0.000 A 
ATOM      8  C   UNL     1       3.533   6.096  17.982  0.00  0.00    +0.000 A 
ATOM      9  C   UNL     1       3.210   5.196  19.010  0.00  0.00    +0.000 A 
ATOM     10  C   UNL     1       3.725   3.896  19.017  0.00  0.00    +0.000 A 
ATOM     11  C   UNL     1       3.394   3.001  20.036  0.00  0.00    +0.000 A 
ATOM     12  C   UNL     1       2.538   3.403  21.059  0.00  0.00    +0.000 A 
ATOM     13  C   UNL     1       2.018   4.697  21.070  0.00  0.00    +0.000 A 
ATOM     14  C   UNL     1       2.345   5.609  20.050  0.00  0.00    +0.000 A 
ATOM     15  C   UNL     1       1.827   6.912  20.034  0.00  0.00    +0.000 A 
ENDBRANCH   3   6
BRANCH   1  22
ATOM     16  O   UNL     1      -4.917  11.570  16.687  0.00  0.00    +0.000 OA
ATOM     17  C   UNL     1      -4.112  11.623  17.600  0.00  0.00    +0.000 C 
ATOM     18  N   UNL     1      -4.336  12.170  18.823  0.00  0.00    +0.000 N 
ATOM     19  C   UNL     1      -3.260  12.365  19.651  0.00  0.00    +0.000 C 
ATOM     20  S   UNL     1      -3.407  13.311  21.017  0.00  0.00    +0.000 S 
ATOM     21  C   UNL     1      -2.072  11.661  19.088  0.00  0.00    +0.000 C 
ATOM     22  C   UNL     1      -0.927  11.433  19.748  0.00  0.00    +0.000 C 
ATOM     23  S   UNL     1      -2.459  11.088  17.495  0.00  0.00    +0.000 S 
ATOM     24  H   UNL     1      -5.235  12.583  19.016  0.00  0.00    +0.000 HD
ENDBRANCH   1  22
BRANCH   5  25
ATOM     25  C   UNL     1       1.874  12.617  18.933  0.00  0.00    +0.000 A 
ATOM     26  C   UNL     1       2.279  13.648  18.071  0.00  0.00    +0.000 A 
ATOM     27  C   UNL     1       2.881  14.804  18.579  0.00  0.00    +0.000 A 
ATOM     28  C   UNL     1       3.089  14.934  19.950  0.00  0.00    +0.000 A 
ATOM     29 CL   UNL     1       3.829  16.358  20.572  0.00  0.00    +0.000 Cl
ATOM     30  C   UNL     1       2.703  13.918  20.820  0.00  0.00    +0.000 A 
ATOM     31  C   UNL     1       2.095  12.768  20.314  0.00  0.00    +0.000 A 
ENDBRANCH   5  25
TORSDOF 3
ENDMDL
MODEL 2
REMARK VINA RESULT:      -8.2      0.586      1.806
REMARK  Name = 
REMARK  3 active torsions:
REMARK  status: ('A' for Active; 'I' for Inactive)
REMARK    1  A    between atoms: C_7  and  N_8
REMARK    2  A    between atoms: C_10  and  C_11
REMARK    3  A    between atoms: C_22  and  C_23
REMARK                            x       y       z     vdW  Elec       q    Type
REMARK                         _______ _______ _______ _____ _____    ______ ____
ROOT
ATOM      1  N   UNL     1       0.203  10.920  19.370  0.00  0.00    +0.000 N 
ATOM      2  N   UNL     1       0.448   9.602  19.627  0.00  0.00    +0.000 NA
ATOM      3  C   UNL     1       1.519   9.258  18.976  0.00  0.00    +0.000 C 
ATOM      4  C   UNL     1       2.149  10.350  18.166  0.00  0.00    +0.000 C 
ATOM      5  C   UNL     1       1.161  11.486  18.412  0.00  0.00    +0.000 C 
ENDROOT
BRANCH   3   6
ATOM      6  C   UNL     1       2.099   7.905  19.017  0.00  0.00    +0.000 A 
ATOM      7  C   UNL     1       1.847   7.088  20.122  0.00  0.00    +0.000 A 
ATOM      8  C   UNL     1       2.418   5.819  20.195  0.00  0.00    +0.000 A 
ATOM      9  C   UNL     1       3.251   5.347  19.168  0.00  0.00    +0.000 A 
ATOM     10  C   UNL     1       3.841   4.081  19.243  0.00  0.00    +0.000 A 
ATOM     11  C   UNL     1       4.677   3.620  18.225  0.00  0.00    +0.000 A 
ATOM     12  C   UNL     1       4.930   4.427  17.119  0.00  0.00    +0.000 A 
ATOM     13  C   UNL     1       4.347   5.690  17.025  0.00  0.00    +0.000 A 
ATOM     14  C   UNL     1       3.503   6.167  18.043  0.00  0.00    +0.000 A 
ATOM     15  C   UNL     1       2.913   7.438  17.976  0.00  0.00    +0.000 A 
ENDBRANCH   3   6
BRANCH   1  22
ATOM     16  O   UNL     1      -4.991  11.653  16.803  0.00  0.00    +0.000 OA
ATOM     17  C   UNL     1      -4.173  11.715  17.704  0.00  0.00    +0.000 C 
ATOM     18  N   UNL     1      -4.381  12.271  18.926  0.00  0.00    +0.000 N 
ATOM     19  C   UNL     1      -3.294  12.474  19.737  0.00  0.00    +0.000 C 
ATOM     20  S   UNL     1      -3.423  13.430  21.097  0.00  0.00    +0.000 S 
ATOM     21  C   UNL     1      -2.112  11.768  19.162  0.00  0.00    +0.000 C 
ATOM     22  C   UNL     1      -0.957  11.547  19.807  0.00  0.00    +0.000 C 
ATOM     23  S   UNL     1      -2.521  11.182  17.579  0.00  0.00    +0.000 S 
ATOM     24  H   UNL     1      -5.278  12.684  19.128  0.00  0.00    +0.000 HD
ENDBRANCH   1  22
BRANCH   5  25
ATOM     25  C   UNL     1       1.837  12.728  18.968  0.00  0.00    +0.000 A 
ATOM     26  C   UNL     1       1.951  12.908  20.356  0.00  0.00    +0.000 A 
ATOM     27  C   UNL     1       2.587  14.040  20.875  0.00  0.00    +0.000 A 
ATOM     28  C   UNL     1       3.106  15.003  20.014  0.00  0.00    +0.000 A 
ATOM     29 CL   UNL     1       3.888  16.394  20.657  0.00  0.00    +0.000 Cl
ATOM     30  C   UNL     1       2.994  14.848  18.635  0.00  0.00    +0.000 A 
ATOM     31  C   UNL     1       2.367  13.714  18.115  0.00  0.00    +0.000 A 
ENDBRANCH   5  25
TORSDOF 3
ENDMDL
MODEL 3
REMARK VINA RESULT:      -8.2      3.425      4.923
REMARK  Name = 
REMARK  3 active torsions:
REMARK  status: ('A' for Active; 'I' for Inactive)
REMARK    1  A    between atoms: C_7  and  N_8
REMARK    2  A    between atoms: C_10  and  C_11
REMARK    3  A    between atoms: C_22  and  C_23
REMARK                            x       y       z     vdW  Elec       q    Type
REMARK                         _______ _______ _______ _____ _____    ______ ____
ROOT
ATOM      1  N   UNL     1       1.712  10.670  18.488  0.00  0.00    +0.000 N 
ATOM      2  N   UNL     1       2.538   9.679  18.042  0.00  0.00    +0.000 NA
ATOM      3  C   UNL     1       2.037   8.540  18.417  0.00  0.00    +0.000 C 
ATOM      4  C   UNL     1       0.760   8.632  19.195  0.00  0.00    +0.000 C 
ATOM      5  C   UNL     1       0.596  10.146  19.284  0.00  0.00    +0.000 C 
ENDROOT
BRANCH   3   6
ATOM      6  C   UNL     1       2.652   7.237  18.108  0.00  0.00    +0.000 A 
ATOM      7  C   UNL     1       3.915   7.203  17.514  0.00  0.00    +0.000 A 
ATOM      8  C   UNL     1       4.495   5.981  17.181  0.00  0.00    +0.000 A 
ATOM      9  C   UNL     1       3.822   4.774  17.434  0.00  0.00    +0.000 A 
ATOM     10  C   UNL     1       4.392   3.545  17.086  0.00  0.00    +0.000 A 
ATOM     11  C   UNL     1       3.716   2.349  17.330  0.00  0.00    +0.000 A 
ATOM     12  C   UNL     1       2.457   2.374  17.926  0.00  0.00    +0.000 A 
ATOM     13  C   UNL     1       1.875   3.591  18.283  0.00  0.00    +0.000 A 
ATOM     14  C   UNL     1       2.546   4.803  18.043  0.00  0.00    +0.000 A 
ATOM     15  C   UNL     1       1.978   6.039  18.384  0.00  0.00    +0.000 A 
ENDBRANCH   3   6
BRANCH   1  22
ATOM     16  O   UNL     1       1.976  14.948  22.456  0.00  0.00    +0.000 OA
ATOM     17  C   UNL     1       2.107  14.434  21.358  0.00  0.00    +0.000 C 
ATOM     18  N   UNL     1       2.540  15.063  20.235  0.00  0.00    +0.000 N 
ATOM     19  C   UNL     1       2.403  14.412  19.036  0.00  0.00    +0.000 C 
ATOM     20  S   UNL     1       2.611  15.234  17.600  0.00  0.00    +0.000 S 
ATOM     21  C   UNL     1       2.027  12.990  19.288  0.00  0.00    +0.000 C 
ATOM     22  C   UNL     1       2.052  12.012  18.371  0.00  0.00    +0.000 C 
ATOM     23  S   UNL     1       1.672  12.792  20.976  0.00  0.00    +0.000 S 
ATOM     24  H   UNL     1       2.771  16.043  20.283  0.00  0.00    +0.000 HD
ENDBRANCH   1  22
BRANCH   5  25
ATOM     25  C   UNL     1      -0.744  10.614  18.742  0.00  0.00    +0.000 A 
ATOM     26  C   UNL     1      -1.238  10.090  17.537  0.00  0.00    +0.000 A 
ATOM     27  C   UNL     1      -2.478  10.502  17.038  0.00  0.00    +0.000 A 
ATOM     28  C   UNL     1      -3.229  11.446  17.735  0.00  0.00    +0.000 A 
ATOM     29 CL   UNL     1      -4.754  11.951  17.120  0.00  0.00    +0.000 Cl
ATOM     30  C   UNL     1      -2.751  11.985  18.927  0.00  0.00    +0.000 A 
ATOM     31  C   UNL     1      -1.518  11.567  19.429  0.00  0.00    +0.000 A 
ENDBRANCH   5  25
TORSDOF 3
ENDMDL
MODEL 4
REMARK VINA RESULT:      -8.2      3.550      5.288
REMARK  Name = 
REMARK  3 active torsions:
REMARK  status: ('A' for Active; 'I' for Inactive)
REMARK    1  A    between atoms: C_7  and  N_8
REMARK    2  A    between atoms: C_10  and  C_11
REMARK    3  A    between atoms: C_22  and  C_23
REMARK                            x       y       z     vdW  Elec       q    Type
REMARK                         _______ _______ _______ _____ _____    ______ ____
ROOT
ATOM      1  N   UNL     1       1.796  10.809  18.393  0.00  0.00    +0.000 N 
ATOM      2  N   UNL     1       2.625   9.861  17.866  0.00  0.00    +0.000 NA
ATOM      3  C   UNL     1       2.180   8.695  18.225  0.00  0.00    +0.000 C 
ATOM      4  C   UNL     1       0.946   8.718  19.074  0.00  0.00    +0.000 C 
ATOM      5  C   UNL     1       0.742  10.222  19.228  0.00  0.00    +0.000 C 
ENDROOT
BRANCH   3   6
ATOM      6  C   UNL     1       2.816   7.424  17.835  0.00  0.00    +0.000 A 
ATOM      7  C   UNL     1       2.246   6.219  18.254  0.00  0.00    +0.000 A 
ATOM      8  C   UNL     1       2.855   5.010  17.926  0.00  0.00    +0.000 A 
ATOM      9  C   UNL     1       4.042   4.984  17.176  0.00  0.00    +0.000 A 
ATOM     10  C   UNL     1       4.667   3.774  16.858  0.00  0.00    +0.000 A 
ATOM     11  C   UNL     1       5.852   3.753  16.122  0.00  0.00    +0.000 A 
ATOM     12  C   UNL     1       6.425   4.950  15.698  0.00  0.00    +0.000 A 
ATOM     13  C   UNL     1       5.814   6.166  16.003  0.00  0.00    +0.000 A 
ATOM     14  C   UNL     1       4.619   6.201  16.743  0.00  0.00    +0.000 A 
ATOM     15  C   UNL     1       3.991   7.411  17.070  0.00  0.00    +0.000 A 
ENDBRANCH   3   6
BRANCH   1  22
ATOM     16  O   UNL     1       2.204  14.939  22.502  0.00  0.00    +0.000 OA
ATOM     17  C   UNL     1       2.275  14.472  21.379  0.00  0.00    +0.000 C 
ATOM     18  N   UNL     1       2.613  15.157  20.255  0.00  0.00    +0.000 N 
ATOM     19  C   UNL     1       2.414  14.547  19.043  0.00  0.00    +0.000 C 
ATOM     20  S   UNL     1       2.501  15.430  17.630  0.00  0.00    +0.000 S 
ATOM     21  C   UNL     1       2.097  13.106  19.262  0.00  0.00    +0.000 C 
ATOM     22  C   UNL     1       2.089  12.165  18.307  0.00  0.00    +0.000 C 
ATOM     23  S   UNL     1       1.863  12.833  20.961  0.00  0.00    +0.000 S 
ATOM     24  H   UNL     1       2.818  16.141  20.327  0.00  0.00    +0.000 HD
ENDBRANCH   1  22
BRANCH   5  25
ATOM     25  C   UNL     1      -0.639  10.665  18.777  0.00  0.00    +0.000 A 
ATOM     26  C   UNL     1      -1.202  10.136  17.605  0.00  0.00    +0.000 A 
ATOM     27  C   UNL     1      -2.479  10.526  17.191  0.00  0.00    +0.000 A 
ATOM     28  C   UNL     1      -3.201  11.452  17.940  0.00  0.00    +0.000 A 
ATOM     29 CL   UNL     1      -4.772  11.929  17.428  0.00  0.00    +0.000 Cl
ATOM     30  C   UNL     1      -2.656  11.997  19.100  0.00  0.00    +0.000 A 
ATOM     31  C   UNL     1      -1.384  11.601  19.518  0.00  0.00    +0.000 A 
ENDBRANCH   5  25
TORSDOF 3
ENDMDL
MODEL 5
REMARK VINA RESULT:      -8.2      3.603      5.309
REMARK  Name = 
REMARK  3 active torsions:
REMARK  status: ('A' for Active; 'I' for Inactive)
REMARK    1  A    between atoms: C_7  and  N_8
REMARK    2  A    between atoms: C_10  and  C_11
REMARK    3  A    between atoms: C_22  and  C_23
REMARK                            x       y       z     vdW  Elec       q    Type
REMARK                         _______ _______ _______ _____ _____    ______ ____
ROOT
ATOM      1  N   UNL     1      -0.100  12.305  19.017  0.00  0.00    +0.000 N 
ATOM      2  N   UNL     1       0.887  11.434  18.658  0.00  0.00    +0.000 NA
ATOM      3  C   UNL     1       0.606  10.274  19.172  0.00  0.00    +0.000 C 
ATOM      4  C   UNL     1      -0.658  10.224  19.974  0.00  0.00    +0.000 C 
ATOM      5  C   UNL     1      -1.094  11.684  19.901  0.00  0.00    +0.000 C 
ENDROOT
BRANCH   3   6
ATOM      6  C   UNL     1       1.445   9.076  18.990  0.00  0.00    +0.000 A 
ATOM      7  C   UNL     1       2.282   8.993  17.875  0.00  0.00    +0.000 A 
ATOM      8  C   UNL     1       3.053   7.852  17.668  0.00  0.00    +0.000 A 
ATOM      9  C   UNL     1       3.000   6.775  18.568  0.00  0.00    +0.000 A 
ATOM     10  C   UNL     1       3.760   5.620  18.356  0.00  0.00    +0.000 A 
ATOM     11  C   UNL     1       3.696   4.549  19.248  0.00  0.00    +0.000 A 
ATOM     12  C   UNL     1       2.866   4.626  20.365  0.00  0.00    +0.000 A 
ATOM     13  C   UNL     1       2.104   5.772  20.594  0.00  0.00    +0.000 A 
ATOM     14  C   UNL     1       2.160   6.859  19.703  0.00  0.00    +0.000 A 
ATOM     15  C   UNL     1       1.397   8.017  19.907  0.00  0.00    +0.000 A 
ENDBRANCH   3   6
BRANCH   1  22
ATOM     16  O   UNL     1       4.059  16.225  20.218  0.00  0.00    +0.000 OA
ATOM     17  C   UNL     1       3.019  15.814  19.734  0.00  0.00    +0.000 C 
ATOM     18  N   UNL     1       2.129  16.556  19.024  0.00  0.00    +0.000 N 
ATOM     19  C   UNL     1       0.901  16.007  18.755  0.00  0.00    +0.000 C 
ATOM     20  S   UNL     1      -0.340  16.960  18.178  0.00  0.00    +0.000 S 
ATOM     21  C   UNL     1       0.923  14.556  19.100  0.00  0.00    +0.000 C 
ATOM     22  C   UNL     1      -0.012  13.664  18.741  0.00  0.00    +0.000 C 
ATOM     23  S   UNL     1       2.405  14.198  19.931  0.00  0.00    +0.000 S 
ATOM     24  H   UNL     1       2.315  17.536  18.879  0.00  0.00    +0.000 HD
ENDBRANCH   1  22
BRANCH   5  25
ATOM     25  C   UNL     1      -2.502  11.838  19.352  0.00  0.00    +0.000 A 
ATOM     26  C   UNL     1      -2.837  11.287  18.105  0.00  0.00    +0.000 A 
ATOM     27  C   UNL     1      -4.135  11.409  17.599  0.00  0.00    +0.000 A 
ATOM     28  C   UNL     1      -5.105  12.089  18.331  0.00  0.00    +0.000 A 
ATOM     29 CL   UNL     1      -6.701  12.238  17.707  0.00  0.00    +0.000 Cl
ATOM     30  C   UNL     1      -4.790  12.652  19.566  0.00  0.00    +0.000 A 
ATOM     31  C   UNL     1      -3.497  12.522  20.074  0.00  0.00    +0.000 A 
ENDBRANCH   5  25
TORSDOF 3
ENDMDL
MODEL 6
REMARK VINA RESULT:      -8.1      1.517      1.653
REMARK  Name = 
REMARK  3 active torsions:
REMARK  status: ('A' for Active; 'I' for Inactive)
REMARK    1  A    between atoms: C_7  and  N_8
REMARK    2  A    between atoms: C_10  and  C_11
REMARK    3  A    between atoms: C_22  and  C_23
REMARK                            x       y       z     vdW  Elec       q    Type
REMARK                         _______ _______ _______ _____ _____    ______ ____
ROOT
ATOM      1  N   UNL     1       0.346  10.944  20.115  0.00  0.00    +0.000 N 
ATOM      2  N   UNL     1       0.816   9.687  20.365  0.00  0.00    +0.000 NA
ATOM      3  C   UNL     1       1.378   9.246  19.279  0.00  0.00    +0.000 C 
ATOM      4  C   UNL     1       1.350  10.192  18.119  0.00  0.00    +0.000 C 
ATOM      5  C   UNL     1       0.558  11.349  18.721  0.00  0.00    +0.000 C 
ENDROOT
BRANCH   3   6
ATOM      6  C   UNL     1       2.011   7.920  19.170  0.00  0.00    +0.000 A 
ATOM      7  C   UNL     1       2.805   7.633  18.057  0.00  0.00    +0.000 A 
ATOM      8  C   UNL     1       3.380   6.372  17.919  0.00  0.00    +0.000 A 
ATOM      9  C   UNL     1       3.171   5.377  18.888  0.00  0.00    +0.000 A 
ATOM     10  C   UNL     1       3.732   4.104  18.746  0.00  0.00    +0.000 A 
ATOM     11  C   UNL     1       3.513   3.115  19.706  0.00  0.00    +0.000 A 
ATOM     12  C   UNL     1       2.725   3.394  20.821  0.00  0.00    +0.000 A 
ATOM     13  C   UNL     1       2.161   4.660  20.980  0.00  0.00    +0.000 A 
ATOM     14  C   UNL     1       2.374   5.666  20.020  0.00  0.00    +0.000 A 
ATOM     15  C   UNL     1       1.809   6.942  20.154  0.00  0.00    +0.000 A 
ENDBRANCH   3   6
BRANCH   1  22
ATOM     16  O   UNL     1      -5.088  13.055  19.766  0.00  0.00    +0.000 OA
ATOM     17  C   UNL     1      -4.031  12.779  20.305  0.00  0.00    +0.000 C 
ATOM     18  N   UNL     1      -3.698  13.066  21.591  0.00  0.00    +0.000 N 
ATOM     19  C   UNL     1      -2.391  12.904  21.972  0.00  0.00    +0.000 C 
ATOM     20  S   UNL     1      -1.849  13.532  23.419  0.00  0.00    +0.000 S 
ATOM     21  C   UNL     1      -1.654  12.172  20.902  0.00  0.00    +0.000 C 
ATOM     22  C   UNL     1      -0.435  11.629  21.039  0.00  0.00    +0.000 C 
ATOM     23  S   UNL     1      -2.676  12.035  19.505  0.00  0.00    +0.000 S 
ATOM     24  H   UNL     1      -4.362  13.558  22.169  0.00  0.00    +0.000 HD
ENDBRANCH   1  22
BRANCH   5  25
ATOM     25  C   UNL     1       1.307  12.668  18.631  0.00  0.00    +0.000 A 
ATOM     26  C   UNL     1       2.684  12.680  18.359  0.00  0.00    +0.000 A 
ATOM     27  C   UNL     1       3.378  13.891  18.258  0.00  0.00    +0.000 A 
ATOM     28  C   UNL     1       2.703  15.096  18.436  0.00  0.00    +0.000 A 
ATOM     29 CL   UNL     1       3.560  16.583  18.310  0.00  0.00    +0.000 Cl
ATOM     30  C   UNL     1       1.340  15.104  18.717  0.00  0.00    +0.000 A 
ATOM     31  C   UNL     1       0.645  13.897  18.809  0.00  0.00    +0.000 A 
ENDBRANCH   5  25
TORSDOF 3
ENDMDL
MODEL 7
REMARK VINA RESULT:      -8.1      3.777      5.192
REMARK  Name = 
REMARK  3 active torsions:
REMARK  status: ('A' for Active; 'I' for Inactive)
REMARK    1  A    between atoms: C_7  and  N_8
REMARK    2  A    between atoms: C_10  and  C_11
REMARK    3  A    between atoms: C_22  and  C_23
REMARK                            x       y       z     vdW  Elec       q    Type
REMARK                         _______ _______ _______ _____ _____    ______ ____
ROOT
ATOM      1  N   UNL     1       0.044  12.852  19.882  0.00  0.00    +0.000 N 
ATOM      2  N   UNL     1       0.628  11.876  19.127  0.00  0.00    +0.000 NA
ATOM      3  C   UNL     1       0.794  10.832  19.882  0.00  0.00    +0.000 C 
ATOM      4  C   UNL     1       0.324  10.986  21.295  0.00  0.00    +0.000 C 
ATOM      5  C   UNL     1      -0.136  12.440  21.279  0.00  0.00    +0.000 C 
ENDROOT
BRANCH   3   6
ATOM      6  C   UNL     1       1.391   9.570  19.408  0.00  0.00    +0.000 A 
ATOM      7  C   UNL     1       1.902   9.502  18.110  0.00  0.00    +0.000 A 
ATOM      8  C   UNL     1       2.436   8.307  17.633  0.00  0.00    +0.000 A 
ATOM      9  C   UNL     1       2.466   7.161  18.443  0.00  0.00    +0.000 A 
ATOM     10  C   UNL     1       2.986   5.954  17.965  0.00  0.00    +0.000 A 
ATOM     11  C   UNL     1       3.005   4.814  18.770  0.00  0.00    +0.000 A 
ATOM     12  C   UNL     1       2.500   4.874  20.067  0.00  0.00    +0.000 A 
ATOM     13  C   UNL     1       1.982   6.071  20.562  0.00  0.00    +0.000 A 
ATOM     14  C   UNL     1       1.957   7.227  19.762  0.00  0.00    +0.000 A 
ATOM     15  C   UNL     1       1.433   8.438  20.234  0.00  0.00    +0.000 A 
ENDBRANCH   3   6
BRANCH   1  22
ATOM     16  O   UNL     1       3.901  17.002  18.463  0.00  0.00    +0.000 OA
ATOM     17  C   UNL     1       2.799  16.493  18.571  0.00  0.00    +0.000 C 
ATOM     18  N   UNL     1       1.619  17.080  18.243  0.00  0.00    +0.000 N 
ATOM     19  C   UNL     1       0.459  16.469  18.647  0.00  0.00    +0.000 C 
ATOM     20  S   UNL     1      -0.995  17.281  18.564  0.00  0.00    +0.000 S 
ATOM     21  C   UNL     1       0.774  15.103  19.156  0.00  0.00    +0.000 C 
ATOM     22  C   UNL     1      -0.132  14.143  19.398  0.00  0.00    +0.000 C 
ATOM     23  S   UNL     1       2.498  14.924  19.264  0.00  0.00    +0.000 S 
ATOM     24  H   UNL     1       1.625  18.022  17.886  0.00  0.00    +0.000 HD
ENDBRANCH   1  22
BRANCH   5  25
ATOM     25  C   UNL     1      -1.581  12.593  21.723  0.00  0.00    +0.000 A 
ATOM     26  C   UNL     1      -2.607  12.677  20.769  0.00  0.00    +0.000 A 
ATOM     27  C   UNL     1      -3.942  12.801  21.169  0.00  0.00    +0.000 A 
ATOM     28  C   UNL     1      -4.259  12.851  22.524  0.00  0.00    +0.000 A 
ATOM     29 CL   UNL     1      -5.902  13.003  23.013  0.00  0.00    +0.000 Cl
ATOM     30  C   UNL     1      -3.255  12.780  23.486  0.00  0.00    +0.000 A 
ATOM     31  C   UNL     1      -1.924  12.648  23.087  0.00  0.00    +0.000 A 
ENDBRANCH   5  25
TORSDOF 3
ENDMDL
MODEL 8
REMARK VINA RESULT:      -8.1      3.473      4.934
REMARK  Name = 
REMARK  3 active torsions:
REMARK  status: ('A' for Active; 'I' for Inactive)
REMARK    1  A    between atoms: C_7  and  N_8
REMARK    2  A    between atoms: C_10  and  C_11
REMARK    3  A    between atoms: C_22  and  C_23
REMARK                            x       y       z     vdW  Elec       q    Type
REMARK                         _______ _______ _______ _____ _____    ______ ____
ROOT
ATOM      1  N   UNL     1       0.336  12.425  21.378  0.00  0.00    +0.000 N 
ATOM      2  N   UNL     1       1.082  11.618  20.568  0.00  0.00    +0.000 NA
ATOM      3  C   UNL     1       0.688  10.393  20.749  0.00  0.00    +0.000 C 
ATOM      4  C   UNL     1      -0.415  10.220  21.747  0.00  0.00    +0.000 C 
ATOM      5  C   UNL     1      -0.592  11.660  22.219  0.00  0.00    +0.000 C 
ENDROOT
BRANCH   3   6
ATOM      6  C   UNL     1       1.260   9.239  20.034  0.00  0.00    +0.000 A 
ATOM      7  C   UNL     1       1.604   9.372  18.687  0.00  0.00    +0.000 A 
ATOM      8  C   UNL     1       2.111   8.280  17.986  0.00  0.00    +0.000 A 
ATOM      9  C   UNL     1       2.281   7.038  18.618  0.00  0.00    +0.000 A 
ATOM     10  C   UNL     1       2.774   5.934  17.915  0.00  0.00    +0.000 A 
ATOM     11  C   UNL     1       2.931   4.698  18.544  0.00  0.00    +0.000 A 
ATOM     12  C   UNL     1       2.594   4.557  19.888  0.00  0.00    +0.000 A 
ATOM     13  C   UNL     1       2.105   5.648  20.606  0.00  0.00    +0.000 A 
ATOM     14  C   UNL     1       1.942   6.899  19.984  0.00  0.00    +0.000 A 
ATOM     15  C   UNL     1       1.443   8.008  20.682  0.00  0.00    +0.000 A 
ENDBRANCH   3   6
BRANCH   1  22
ATOM     16  O   UNL     1      -0.541  16.945  17.786  0.00  0.00    +0.000 OA
ATOM     17  C   UNL     1      -0.216  16.389  18.820  0.00  0.00    +0.000 C 
ATOM     18  N   UNL     1       0.297  16.998  19.921  0.00  0.00    +0.000 N 
ATOM     19  C   UNL     1       0.831  16.208  20.907  0.00  0.00    +0.000 C 
ATOM     20  S   UNL     1       1.755  16.882  22.120  0.00  0.00    +0.000 S 
ATOM     21  C   UNL     1       0.476  14.783  20.642  0.00  0.00    +0.000 C 
ATOM     22  C   UNL     1       0.617  13.778  21.520  0.00  0.00    +0.000 C 
ATOM     23  S   UNL     1      -0.256  14.667  19.072  0.00  0.00    +0.000 S 
ATOM     24  H   UNL     1       0.442  17.995  19.904  0.00  0.00    +0.000 HD
ENDBRANCH   1  22
BRANCH   5  25
ATOM     25  C   UNL     1      -2.021  12.148  22.058  0.00  0.00    +0.000 A 
ATOM     26  C   UNL     1      -2.561  12.340  20.776  0.00  0.00    +0.000 A 
ATOM     27  C   UNL     1      -3.881  12.773  20.618  0.00  0.00    +0.000 A 
ATOM     28  C   UNL     1      -4.669  13.024  21.738  0.00  0.00    +0.000 A 
ATOM     29 CL   UNL     1      -6.293  13.556  21.540  0.00  0.00    +0.000 Cl
ATOM     30  C   UNL     1      -4.150  12.850  23.018  0.00  0.00    +0.000 A 
ATOM     31  C   UNL     1      -2.835  12.410  23.176  0.00  0.00    +0.000 A 
ENDBRANCH   5  25
TORSDOF 3
ENDMDL
MODEL 9
REMARK VINA RESULT:      -8.1      3.695      5.144
REMARK  Name = 
REMARK  3 active torsions:
REMARK  status: ('A' for Active; 'I' for Inactive)
REMARK    1  A    between atoms: C_7  and  N_8
REMARK    2  A    between atoms: C_10  and  C_11
REMARK    3  A    between atoms: C_22  and  C_23
REMARK                            x       y       z     vdW  Elec       q    Type
REMARK                         _______ _______ _______ _____ _____    ______ ____
ROOT
ATOM      1  N   UNL     1       0.394  12.431  19.797  0.00  0.00    +0.000 N 
ATOM      2  N   UNL     1       0.955  11.427  19.063  0.00  0.00    +0.000 NA
ATOM      3  C   UNL     1       1.037  10.374  19.819  0.00  0.00    +0.000 C 
ATOM      4  C   UNL     1       0.519  10.550  21.213  0.00  0.00    +0.000 C 
ATOM      5  C   UNL     1       0.137  12.027  21.184  0.00  0.00    +0.000 C 
ENDROOT
BRANCH   3   6
ATOM      6  C   UNL     1       1.585   9.084  19.364  0.00  0.00    +0.000 A 
ATOM      7  C   UNL     1       2.071   8.971  18.060  0.00  0.00    +0.000 A 
ATOM      8  C   UNL     1       2.558   7.749  17.601  0.00  0.00    +0.000 A 
ATOM      9  C   UNL     1       2.567   6.621  18.437  0.00  0.00    +0.000 A 
ATOM     10  C   UNL     1       3.040   5.388  17.978  0.00  0.00    +0.000 A 
ATOM     11  C   UNL     1       3.037   4.266  18.808  0.00  0.00    +0.000 A 
ATOM     12  C   UNL     1       2.558   4.371  20.112  0.00  0.00    +0.000 A 
ATOM     13  C   UNL     1       2.087   5.595  20.589  0.00  0.00    +0.000 A 
ATOM     14  C   UNL     1       2.084   6.732  19.762  0.00  0.00    +0.000 A 
ATOM     15  C   UNL     1       1.606   7.970  20.215  0.00  0.00    +0.000 A 
ENDBRANCH   3   6
BRANCH   1  22
ATOM     16  O   UNL     1       4.501  16.446  18.737  0.00  0.00    +0.000 OA
ATOM     17  C   UNL     1       3.376  15.976  18.750  0.00  0.00    +0.000 C 
ATOM     18  N   UNL     1       2.249  16.608  18.331  0.00  0.00    +0.000 N 
ATOM     19  C   UNL     1       1.039  16.038  18.632  0.00  0.00    +0.000 C 
ATOM     20  S   UNL     1      -0.374  16.903  18.437  0.00  0.00    +0.000 S 
ATOM     21  C   UNL     1       1.261  14.658  19.153  0.00  0.00    +0.000 C 
ATOM     22  C   UNL     1       0.305  13.730  19.312  0.00  0.00    +0.000 C 
ATOM     23  S   UNL     1       2.963  14.416  19.401  0.00  0.00    +0.000 S 
ATOM     24  H   UNL     1       2.319  17.552  17.983  0.00  0.00    +0.000 HD
ENDBRANCH   1  22
BRANCH   5  25
ATOM     25  C   UNL     1      -1.314  12.254  21.572  0.00  0.00    +0.000 A 
ATOM     26  C   UNL     1      -1.694  12.234  22.924  0.00  0.00    +0.000 A 
ATOM     27  C   UNL     1      -3.025  12.459  23.291  0.00  0.00    +0.000 A 
ATOM     28  C   UNL     1      -3.986  12.698  22.312  0.00  0.00    +0.000 A 
ATOM     29 CL   UNL     1      -5.622  12.974  22.767  0.00  0.00    +0.000 Cl
ATOM     30  C   UNL     1      -3.631  12.711  20.965  0.00  0.00    +0.000 A 
ATOM     31  C   UNL     1      -2.301  12.495  20.599  0.00  0.00    +0.000 A 
ENDBRANCH   5  25
TORSDOF 3
ENDMDL
