MODEL 1
REMARK VINA RESULT:      -7.5      0.000      0.000
REMARK  Name = 
REMARK  7 active torsions:
REMARK  status: ('A' for Active; 'I' for Inactive)
REMARK    1  A    between atoms: S_2  and  N_4
REMARK    2  A    between atoms: S_2  and  C_17
REMARK    3  A    between atoms: N_4  and  C_5
REMARK    4  A    between atoms: C_5  and  C_6
REMARK    5  A    between atoms: C_6  and  S_7
REMARK    6  A    between atoms: S_7  and  C_8
REMARK    7  A    between atoms: C_8  and  C_9
REMARK                            x       y       z     vdW  Elec       q    Type
REMARK                         _______ _______ _______ _____ _____    ______ ____
ROOT
ATOM      1  N   UNL     1       6.242   6.353  15.958  0.00  0.00    +0.000 NA
ATOM      2  H   UNL     1       6.822   6.813  15.254  0.00  0.00    +0.000 HD
ENDROOT
BRANCH   1   4
ATOM      3  O   UNL     1       5.956   4.167  14.720  0.00  0.00    +0.000 OA
ATOM      4  S   UNL     1       6.475   4.680  15.966  0.00  0.00    +0.000 S 
ATOM      5  O   UNL     1       7.831   4.431  16.401  0.00  0.00    +0.000 OA
BRANCH   4   6
ATOM      6  C   UNL     1       5.372   4.150  17.254  0.00  0.00    +0.000 A 
ATOM      7  C   UNL     1       5.718   4.327  18.597  0.00  0.00    +0.000 A 
ATOM      8  C   UNL     1       4.818   3.939  19.592  0.00  0.00    +0.000 A 
ATOM      9  C   UNL     1       3.588   3.381  19.241  0.00  0.00    +0.000 A 
ATOM     10  C   UNL     1       3.248   3.218  17.893  0.00  0.00    +0.000 A 
ATOM     11  C   UNL     1       4.147   3.578  16.895  0.00  0.00    +0.000 A 
ATOM     12  O   UNL     1       2.045   2.708  17.477  0.00  0.00    +0.000 OA
ATOM     13  C   UNL     1       1.080   2.727  18.535  0.00  0.00    +0.000 C 
ATOM     14  C   UNL     1       1.686   2.189  19.822  0.00  0.00    +0.000 C 
ATOM     15  O   UNL     1       2.755   3.028  20.271  0.00  0.00    +0.000 OA
ENDBRANCH   4   6
ENDBRANCH   1   4
BRANCH   1  16
ATOM     16  C   UNL     1       4.846   6.838  16.002  0.00  0.00    +0.000 C 
BRANCH  16  17
ATOM     17  C   UNL     1       4.561   7.530  17.340  0.00  0.00    +0.000 C 
BRANCH  17  18
ATOM     18  S   UNL     1       2.935   7.006  17.995  0.00  0.00    +0.000 S 
BRANCH  18  19
ATOM     19  C   UNL     1       2.057   8.596  17.889  0.00  0.00    +0.000 C 
BRANCH  19  20
ATOM     20  C   UNL     1       1.390   8.920  19.204  0.00  0.00    +0.000 A 
ATOM     21  C   UNL     1       1.644   8.144  20.343  0.00  0.00    +0.000 A 
ATOM     22  C   UNL     1       1.055   8.468  21.568  0.00  0.00    +0.000 A 
ATOM     23  C   UNL     1       0.207   9.573  21.673  0.00  0.00    +0.000 A 
ATOM     24 CL   UNL     1      -0.485   9.914  23.219  0.00  0.00    +0.000 Cl
ATOM     25  C   UNL     1      -0.046  10.361  20.546  0.00  0.00    +0.000 A 
ATOM     26 CL   UNL     1      -1.077  11.749  20.598  0.00  0.00    +0.000 Cl
ATOM     27  C   UNL     1       0.545  10.036  19.320  0.00  0.00    +0.000 A 
ENDBRANCH  19  20
ENDBRANCH  18  19
ENDBRANCH  17  18
ENDBRANCH  16  17
ENDBRANCH   1  16
TORSDOF 7
ENDMDL
MODEL 2
REMARK VINA RESULT:      -7.4      2.475      4.679
REMARK  Name = 
REMARK  7 active torsions:
REMARK  status: ('A' for Active; 'I' for Inactive)
REMARK    1  A    between atoms: S_2  and  N_4
REMARK    2  A    between atoms: S_2  and  C_17
REMARK    3  A    between atoms: N_4  and  C_5
REMARK    4  A    between atoms: C_5  and  C_6
REMARK    5  A    between atoms: C_6  and  S_7
REMARK    6  A    between atoms: S_7  and  C_8
REMARK    7  A    between atoms: C_8  and  C_9
REMARK                            x       y       z     vdW  Elec       q    Type
REMARK                         _______ _______ _______ _____ _____    ______ ____
ROOT
ATOM      1  N   UNL     1       3.051   2.958  20.634  0.00  0.00    +0.000 NA
ATOM      2  H   UNL     1       3.361   3.904  20.862  0.00  0.00    +0.000 HD
ENDROOT
BRANCH   1   4
ATOM      3  O   UNL     1       5.183   1.643  20.291  0.00  0.00    +0.000 OA
ATOM      4  S   UNL     1       4.089   2.205  19.534  0.00  0.00    +0.000 S 
ATOM      5  O   UNL     1       3.276   1.412  18.640  0.00  0.00    +0.000 OA
BRANCH   4   6
ATOM      6  C   UNL     1       4.736   3.585  18.620  0.00  0.00    +0.000 A 
ATOM      7  C   UNL     1       4.057   4.070  17.498  0.00  0.00    +0.000 A 
ATOM      8  C   UNL     1       4.563   5.179  16.818  0.00  0.00    +0.000 A 
ATOM      9  C   UNL     1       5.736   5.793  17.262  0.00  0.00    +0.000 A 
ATOM     10  C   UNL     1       6.402   5.306  18.392  0.00  0.00    +0.000 A 
ATOM     11  C   UNL     1       5.919   4.186  19.061  0.00  0.00    +0.000 A 
ATOM     12  O   UNL     1       7.538   5.880  18.900  0.00  0.00    +0.000 OA
ATOM     13  C   UNL     1       7.726   7.203  18.386  0.00  0.00    +0.000 C 
ATOM     14  C   UNL     1       7.518   7.227  16.880  0.00  0.00    +0.000 C 
ATOM     15  O   UNL     1       6.169   6.880  16.546  0.00  0.00    +0.000 OA
ENDBRANCH   4   6
ENDBRANCH   1   4
BRANCH   1  16
ATOM     16  C   UNL     1       1.600   2.844  20.376  0.00  0.00    +0.000 C 
BRANCH  16  17
ATOM     17  C   UNL     1       1.044   4.171  19.847  0.00  0.00    +0.000 C 
BRANCH  17  18
ATOM     18  S   UNL     1       1.659   5.568  20.856  0.00  0.00    +0.000 S 
BRANCH  18  19
ATOM     19  C   UNL     1       2.600   6.455  19.576  0.00  0.00    +0.000 C 
BRANCH  19  20
ATOM     20  C   UNL     1       2.039   7.842  19.374  0.00  0.00    +0.000 A 
ATOM     21  C   UNL     1       2.142   8.480  18.130  0.00  0.00    +0.000 A 
ATOM     22  C   UNL     1       1.589   9.749  17.935  0.00  0.00    +0.000 A 
ATOM     23  C   UNL     1       0.923  10.396  18.979  0.00  0.00    +0.000 A 
ATOM     24 CL   UNL     1       0.265  11.963  18.666  0.00  0.00    +0.000 Cl
ATOM     25  C   UNL     1       0.806   9.766  20.222  0.00  0.00    +0.000 A 
ATOM     26 CL   UNL     1      -0.010  10.499  21.558  0.00  0.00    +0.000 Cl
ATOM     27  C   UNL     1       1.359   8.495  20.415  0.00  0.00    +0.000 A 
ENDBRANCH  19  20
ENDBRANCH  18  19
ENDBRANCH  17  18
ENDBRANCH  16  17
ENDBRANCH   1  16
TORSDOF 7
ENDMDL
MODEL 3
REMARK VINA RESULT:      -7.4      4.068      7.323
REMARK  Name = 
REMARK  7 active torsions:
REMARK  status: ('A' for Active; 'I' for Inactive)
REMARK    1  A    between atoms: S_2  and  N_4
REMARK    2  A    between atoms: S_2  and  C_17
REMARK    3  A    between atoms: N_4  and  C_5
REMARK    4  A    between atoms: C_5  and  C_6
REMARK    5  A    between atoms: C_6  and  S_7
REMARK    6  A    between atoms: S_7  and  C_8
REMARK    7  A    between atoms: C_8  and  C_9
REMARK                            x       y       z     vdW  Elec       q    Type
REMARK                         _______ _______ _______ _____ _____    ______ ____
ROOT
ATOM      1  N   UNL     1       2.035   5.021  18.396  0.00  0.00    +0.000 NA
ATOM      2  H   UNL     1       2.762   5.002  17.678  0.00  0.00    +0.000 HD
ENDROOT
BRANCH   1   4
ATOM      3  O   UNL     1       1.734   5.373  20.882  0.00  0.00    +0.000 OA
ATOM      4  S   UNL     1       2.542   5.843  19.781  0.00  0.00    +0.000 S 
ATOM      5  O   UNL     1       3.987   5.801  19.809  0.00  0.00    +0.000 OA
BRANCH   4   6
ATOM      6  C   UNL     1       2.041   7.513  19.435  0.00  0.00    +0.000 A 
ATOM      7  C   UNL     1       2.274   8.073  18.175  0.00  0.00    +0.000 A 
ATOM      8  C   UNL     1       1.836   9.373  17.913  0.00  0.00    +0.000 A 
ATOM      9  C   UNL     1       1.174  10.098  18.905  0.00  0.00    +0.000 A 
ATOM     10  C   UNL     1       0.938   9.524  20.159  0.00  0.00    +0.000 A 
ATOM     11  C   UNL     1       1.391   8.239  20.438  0.00  0.00    +0.000 A 
ATOM     12  O   UNL     1       0.265  10.167  21.166  0.00  0.00    +0.000 OA
ATOM     13  C   UNL     1      -0.467  11.292  20.665  0.00  0.00    +0.000 C 
ATOM     14  C   UNL     1       0.400  12.122  19.732  0.00  0.00    +0.000 C 
ATOM     15  O   UNL     1       0.770  11.366  18.573  0.00  0.00    +0.000 OA
ENDBRANCH   4   6
ENDBRANCH   1   4
BRANCH   1  16
ATOM     16  C   UNL     1       1.349   3.726  18.595  0.00  0.00    +0.000 C 
BRANCH  16  17
ATOM     17  C   UNL     1       2.085   2.609  17.847  0.00  0.00    +0.000 C 
BRANCH  17  18
ATOM     18  S   UNL     1       3.866   2.627  18.266  0.00  0.00    +0.000 S 
BRANCH  18  19
ATOM     19  C   UNL     1       4.527   3.248  16.688  0.00  0.00    +0.000 C 
BRANCH  19  20
ATOM     20  C   UNL     1       5.345   4.496  16.912  0.00  0.00    +0.000 A 
ATOM     21  C   UNL     1       5.083   5.663  16.180  0.00  0.00    +0.000 A 
ATOM     22  C   UNL     1       5.817   6.828  16.416  0.00  0.00    +0.000 A 
ATOM     23  C   UNL     1       6.820   6.845  17.388  0.00  0.00    +0.000 A 
ATOM     24 CL   UNL     1       7.687   8.322  17.625  0.00  0.00    +0.000 Cl
ATOM     25  C   UNL     1       7.085   5.691  18.131  0.00  0.00    +0.000 A 
ATOM     26 CL   UNL     1       8.305   5.636  19.355  0.00  0.00    +0.000 Cl
ATOM     27  C   UNL     1       6.349   4.525  17.895  0.00  0.00    +0.000 A 
ENDBRANCH  19  20
ENDBRANCH  18  19
ENDBRANCH  17  18
ENDBRANCH  16  17
ENDBRANCH   1  16
TORSDOF 7
ENDMDL
MODEL 4
REMARK VINA RESULT:      -7.3      3.197      5.314
REMARK  Name = 
REMARK  7 active torsions:
REMARK  status: ('A' for Active; 'I' for Inactive)
REMARK    1  A    between atoms: S_2  and  N_4
REMARK    2  A    between atoms: S_2  and  C_17
REMARK    3  A    between atoms: N_4  and  C_5
REMARK    4  A    between atoms: C_5  and  C_6
REMARK    5  A    between atoms: C_6  and  S_7
REMARK    6  A    between atoms: S_7  and  C_8
REMARK    7  A    between atoms: C_8  and  C_9
REMARK                            x       y       z     vdW  Elec       q    Type
REMARK                         _______ _______ _______ _____ _____    ______ ____
ROOT
ATOM      1  N   UNL     1       2.046   5.913  21.263  0.00  0.00    +0.000 NA
ATOM      2  H   UNL     1       3.004   6.169  21.513  0.00  0.00    +0.000 HD
ENDROOT
BRANCH   1   4
ATOM      3  O   UNL     1       2.422   3.456  21.729  0.00  0.00    +0.000 OA
ATOM      4  S   UNL     1       1.953   4.331  20.679  0.00  0.00    +0.000 S 
ATOM      5  O   UNL     1       0.657   4.170  20.059  0.00  0.00    +0.000 OA
BRANCH   4   6
ATOM      6  C   UNL     1       3.187   4.326  19.400  0.00  0.00    +0.000 A 
ATOM      7  C   UNL     1       2.832   4.038  18.078  0.00  0.00    +0.000 A 
ATOM      8  C   UNL     1       3.811   4.079  17.083  0.00  0.00    +0.000 A 
ATOM      9  C   UNL     1       5.127   4.404  17.413  0.00  0.00    +0.000 A 
ATOM     10  C   UNL     1       5.469   4.700  18.738  0.00  0.00    +0.000 A 
ATOM     11  C   UNL     1       4.507   4.638  19.740  0.00  0.00    +0.000 A 
ATOM     12  O   UNL     1       6.734   5.058  19.125  0.00  0.00    +0.000 OA
ATOM     13  C   UNL     1       7.530   5.451  18.001  0.00  0.00    +0.000 C 
ATOM     14  C   UNL     1       7.380   4.452  16.864  0.00  0.00    +0.000 C 
ATOM     15  O   UNL     1       6.032   4.428  16.382  0.00  0.00    +0.000 OA
ENDBRANCH   4   6
ENDBRANCH   1   4
BRANCH   1  16
ATOM     16  C   UNL     1       1.323   6.954  20.503  0.00  0.00    +0.000 C 
BRANCH  16  17
ATOM     17  C   UNL     1       1.541   8.332  21.141  0.00  0.00    +0.000 C 
BRANCH  17  18
ATOM     18  S   UNL     1       0.036   9.358  20.973  0.00  0.00    +0.000 S 
BRANCH  18  19
ATOM     19  C   UNL     1       0.311  10.000  19.292  0.00  0.00    +0.000 C 
BRANCH  19  20
ATOM     20  C   UNL     1      -0.994  10.436  18.673  0.00  0.00    +0.000 A 
ATOM     21  C   UNL     1      -1.813  11.372  19.319  0.00  0.00    +0.000 A 
ATOM     22  C   UNL     1      -3.003  11.802  18.727  0.00  0.00    +0.000 A 
ATOM     23  C   UNL     1      -3.390  11.305  17.480  0.00  0.00    +0.000 A 
ATOM     24 CL   UNL     1      -4.874  11.882  16.808  0.00  0.00    +0.000 Cl
ATOM     25  C   UNL     1      -2.578  10.378  16.821  0.00  0.00    +0.000 A 
ATOM     26 CL   UNL     1      -2.984   9.724  15.273  0.00  0.00    +0.000 Cl
ATOM     27  C   UNL     1      -1.385   9.949  17.415  0.00  0.00    +0.000 A 
ENDBRANCH  19  20
ENDBRANCH  18  19
ENDBRANCH  17  18
ENDBRANCH  16  17
ENDBRANCH   1  16
TORSDOF 7
ENDMDL
MODEL 5
REMARK VINA RESULT:      -7.2      3.058      5.221
REMARK  Name = 
REMARK  7 active torsions:
REMARK  status: ('A' for Active; 'I' for Inactive)
REMARK    1  A    between atoms: S_2  and  N_4
REMARK    2  A    between atoms: S_2  and  C_17
REMARK    3  A    between atoms: N_4  and  C_5
REMARK    4  A    between atoms: C_5  and  C_6
REMARK    5  A    between atoms: C_6  and  S_7
REMARK    6  A    between atoms: S_7  and  C_8
REMARK    7  A    between atoms: C_8  and  C_9
REMARK                            x       y       z     vdW  Elec       q    Type
REMARK                         _______ _______ _______ _____ _____    ______ ____
ROOT
ATOM      1  N   UNL     1       5.869   3.390  19.200  0.00  0.00    +0.000 NA
ATOM      2  H   UNL     1       6.569   3.047  19.861  0.00  0.00    +0.000 HD
ENDROOT
BRANCH   1   4
ATOM      3  O   UNL     1       5.241   5.814  18.846  0.00  0.00    +0.000 OA
ATOM      4  S   UNL     1       6.306   4.885  18.546  0.00  0.00    +0.000 S 
ATOM      5  O   UNL     1       7.681   5.138  18.914  0.00  0.00    +0.000 OA
BRANCH   4   6
ATOM      6  C   UNL     1       6.248   4.565  16.799  0.00  0.00    +0.000 A 
ATOM      7  C   UNL     1       5.186   3.843  16.248  0.00  0.00    +0.000 A 
ATOM      8  C   UNL     1       5.141   3.637  14.867  0.00  0.00    +0.000 A 
ATOM      9  C   UNL     1       6.151   4.152  14.053  0.00  0.00    +0.000 A 
ATOM     10  C   UNL     1       7.205   4.882  14.614  0.00  0.00    +0.000 A 
ATOM     11  C   UNL     1       7.272   5.071  15.991  0.00  0.00    +0.000 A 
ATOM     12  O   UNL     1       8.211   5.442  13.870  0.00  0.00    +0.000 OA
ATOM     13  C   UNL     1       7.854   5.514  12.485  0.00  0.00    +0.000 C 
ATOM     14  C   UNL     1       7.260   4.195  12.017  0.00  0.00    +0.000 C 
ATOM     15  O   UNL     1       6.037   3.914  12.707  0.00  0.00    +0.000 OA
ENDBRANCH   4   6
ENDBRANCH   1   4
BRANCH   1  16
ATOM     16  C   UNL     1       4.474   3.241  19.666  0.00  0.00    +0.000 C 
BRANCH  16  17
ATOM     17  C   UNL     1       3.855   1.957  19.100  0.00  0.00    +0.000 C 
BRANCH  17  18
ATOM     18  S   UNL     1       2.034   2.109  19.021  0.00  0.00    +0.000 S 
BRANCH  18  19
ATOM     19  C   UNL     1       1.913   3.529  17.889  0.00  0.00    +0.000 C 
BRANCH  19  20
ATOM     20  C   UNL     1       1.836   4.820  18.668  0.00  0.00    +0.000 A 
ATOM     21  C   UNL     1       1.502   4.813  20.030  0.00  0.00    +0.000 A 
ATOM     22  C   UNL     1       1.467   6.005  20.758  0.00  0.00    +0.000 A 
ATOM     23  C   UNL     1       1.769   7.219  20.137  0.00  0.00    +0.000 A 
ATOM     24 CL   UNL     1       1.706   8.653  21.100  0.00  0.00    +0.000 Cl
ATOM     25  C   UNL     1       2.113   7.239  18.783  0.00  0.00    +0.000 A 
ATOM     26 CL   UNL     1       2.507   8.700  17.947  0.00  0.00    +0.000 Cl
ATOM     27  C   UNL     1       2.148   6.044  18.054  0.00  0.00    +0.000 A 
ENDBRANCH  19  20
ENDBRANCH  18  19
ENDBRANCH  17  18
ENDBRANCH  16  17
ENDBRANCH   1  16
TORSDOF 7
ENDMDL
MODEL 6
REMARK VINA RESULT:      -7.1      5.923      6.750
REMARK  Name = 
REMARK  7 active torsions:
REMARK  status: ('A' for Active; 'I' for Inactive)
REMARK    1  A    between atoms: S_2  and  N_4
REMARK    2  A    between atoms: S_2  and  C_17
REMARK    3  A    between atoms: N_4  and  C_5
REMARK    4  A    between atoms: C_5  and  C_6
REMARK    5  A    between atoms: C_6  and  S_7
REMARK    6  A    between atoms: S_7  and  C_8
REMARK    7  A    between atoms: C_8  and  C_9
REMARK                            x       y       z     vdW  Elec       q    Type
REMARK                         _______ _______ _______ _____ _____    ______ ____
ROOT
ATOM      1  N   UNL     1       6.989   6.743  17.548  0.00  0.00    +0.000 NA
ATOM      2  H   UNL     1       6.041   7.056  17.767  0.00  0.00    +0.000 HD
ENDROOT
BRANCH   1   4
ATOM      3  O   UNL     1       7.382   4.686  16.130  0.00  0.00    +0.000 OA
ATOM      4  S   UNL     1       7.096   5.058  17.496  0.00  0.00    +0.000 S 
ATOM      5  O   UNL     1       7.927   4.639  18.603  0.00  0.00    +0.000 OA
BRANCH   4   6
ATOM      6  C   UNL     1       5.424   4.562  17.837  0.00  0.00    +0.000 A 
ATOM      7  C   UNL     1       4.675   3.890  16.867  0.00  0.00    +0.000 A 
ATOM      8  C   UNL     1       3.377   3.474  17.171  0.00  0.00    +0.000 A 
ATOM      9  C   UNL     1       2.840   3.731  18.433  0.00  0.00    +0.000 A 
ATOM     10  C   UNL     1       3.603   4.397  19.400  0.00  0.00    +0.000 A 
ATOM     11  C   UNL     1       4.887   4.837  19.099  0.00  0.00    +0.000 A 
ATOM     12  O   UNL     1       3.150   4.652  20.669  0.00  0.00    +0.000 OA
ATOM     13  C   UNL     1       2.007   3.850  20.984  0.00  0.00    +0.000 C 
ATOM     14  C   UNL     1       1.003   3.876  19.841  0.00  0.00    +0.000 C 
ATOM     15  O   UNL     1       1.562   3.290  18.660  0.00  0.00    +0.000 OA
ENDBRANCH   4   6
ENDBRANCH   1   4
BRANCH   1  16
ATOM     16  C   UNL     1       8.048   7.463  18.286  0.00  0.00    +0.000 C 
BRANCH  16  17
ATOM     17  C   UNL     1       8.087   8.937  17.865  0.00  0.00    +0.000 C 
BRANCH  17  18
ATOM     18  S   UNL     1       9.113   9.905  19.030  0.00  0.00    +0.000 S 
BRANCH  18  19
ATOM     19  C   UNL     1       9.387  11.386  18.009  0.00  0.00    +0.000 C 
BRANCH  19  20
ATOM     20  C   UNL     1       9.738  12.570  18.878  0.00  0.00    +0.000 A 
ATOM     21  C   UNL     1      10.045  12.393  20.234  0.00  0.00    +0.000 A 
ATOM     22  C   UNL     1      10.406  13.485  21.028  0.00  0.00    +0.000 A 
ATOM     23  C   UNL     1      10.467  14.768  20.477  0.00  0.00    +0.000 A 
ATOM     24 CL   UNL     1      10.920  16.070  21.519  0.00  0.00    +0.000 Cl
ATOM     25  C   UNL     1      10.171  14.955  19.124  0.00  0.00    +0.000 A 
ATOM     26 CL   UNL     1      10.233  16.509  18.368  0.00  0.00    +0.000 Cl
ATOM     27  C   UNL     1       9.811  13.861  18.329  0.00  0.00    +0.000 A 
ENDBRANCH  19  20
ENDBRANCH  18  19
ENDBRANCH  17  18
ENDBRANCH  16  17
ENDBRANCH   1  16
TORSDOF 7
ENDMDL
MODEL 7
REMARK VINA RESULT:      -7.1      2.415      4.540
REMARK  Name = 
REMARK  7 active torsions:
REMARK  status: ('A' for Active; 'I' for Inactive)
REMARK    1  A    between atoms: S_2  and  N_4
REMARK    2  A    between atoms: S_2  and  C_17
REMARK    3  A    between atoms: N_4  and  C_5
REMARK    4  A    between atoms: C_5  and  C_6
REMARK    5  A    between atoms: C_6  and  S_7
REMARK    6  A    between atoms: S_7  and  C_8
REMARK    7  A    between atoms: C_8  and  C_9
REMARK                            x       y       z     vdW  Elec       q    Type
REMARK                         _______ _______ _______ _____ _____    ______ ____
ROOT
ATOM      1  N   UNL     1       2.141   2.983  20.167  0.00  0.00    +0.000 NA
ATOM      2  H   UNL     1       2.932   2.949  20.813  0.00  0.00    +0.000 HD
ENDROOT
BRANCH   1   4
ATOM      3  O   UNL     1       3.351   1.360  18.652  0.00  0.00    +0.000 OA
ATOM      4  S   UNL     1       2.603   2.594  18.590  0.00  0.00    +0.000 S 
ATOM      5  O   UNL     1       1.443   2.755  17.742  0.00  0.00    +0.000 OA
BRANCH   4   6
ATOM      6  C   UNL     1       3.758   3.889  18.203  0.00  0.00    +0.000 A 
ATOM      7  C   UNL     1       3.396   4.921  17.332  0.00  0.00    +0.000 A 
ATOM      8  C   UNL     1       4.305   5.949  17.073  0.00  0.00    +0.000 A 
ATOM      9  C   UNL     1       5.560   5.939  17.683  0.00  0.00    +0.000 A 
ATOM     10  C   UNL     1       5.908   4.906  18.561  0.00  0.00    +0.000 A 
ATOM     11  C   UNL     1       5.019   3.865  18.806  0.00  0.00    +0.000 A 
ATOM     12  O   UNL     1       7.110   4.852  19.218  0.00  0.00    +0.000 OA
ATOM     13  C   UNL     1       7.772   6.121  19.195  0.00  0.00    +0.000 C 
ATOM     14  C   UNL     1       7.743   6.714  17.795  0.00  0.00    +0.000 C 
ATOM     15  O   UNL     1       6.397   6.983  17.384  0.00  0.00    +0.000 OA
ENDBRANCH   4   6
ENDBRANCH   1   4
BRANCH   1  16
ATOM     16  C   UNL     1       1.270   4.165  20.341  0.00  0.00    +0.000 C 
BRANCH  16  17
ATOM     17  C   UNL     1       2.024   5.285  21.066  0.00  0.00    +0.000 C 
BRANCH  17  18
ATOM     18  S   UNL     1       2.034   6.808  20.053  0.00  0.00    +0.000 S 
BRANCH  18  19
ATOM     19  C   UNL     1       1.181   7.927  21.207  0.00  0.00    +0.000 C 
BRANCH  19  20
ATOM     20  C   UNL     1       0.707   9.167  20.489  0.00  0.00    +0.000 A 
ATOM     21  C   UNL     1       1.160   9.458  19.194  0.00  0.00    +0.000 A 
ATOM     22  C   UNL     1       0.691  10.586  18.516  0.00  0.00    +0.000 A 
ATOM     23  C   UNL     1      -0.239  11.437  19.120  0.00  0.00    +0.000 A 
ATOM     24 CL   UNL     1      -0.773  12.813  18.222  0.00  0.00    +0.000 Cl
ATOM     25  C   UNL     1      -0.705  11.152  20.407  0.00  0.00    +0.000 A 
ATOM     26 CL   UNL     1      -1.860  12.151  21.217  0.00  0.00    +0.000 Cl
ATOM     27  C   UNL     1      -0.235  10.021  21.085  0.00  0.00    +0.000 A 
ENDBRANCH  19  20
ENDBRANCH  18  19
ENDBRANCH  17  18
ENDBRANCH  16  17
ENDBRANCH   1  16
TORSDOF 7
ENDMDL
MODEL 8
REMARK VINA RESULT:      -7.0      2.556      4.541
REMARK  Name = 
REMARK  7 active torsions:
REMARK  status: ('A' for Active; 'I' for Inactive)
REMARK    1  A    between atoms: S_2  and  N_4
REMARK    2  A    between atoms: S_2  and  C_17
REMARK    3  A    between atoms: N_4  and  C_5
REMARK    4  A    between atoms: C_5  and  C_6
REMARK    5  A    between atoms: C_6  and  S_7
REMARK    6  A    between atoms: S_7  and  C_8
REMARK    7  A    between atoms: C_8  and  C_9
REMARK                            x       y       z     vdW  Elec       q    Type
REMARK                         _______ _______ _______ _____ _____    ______ ____
ROOT
ATOM      1  N   UNL     1       1.089   4.540  20.148  0.00  0.00    +0.000 NA
ATOM      2  H   UNL     1       0.135   4.380  20.478  0.00  0.00    +0.000 HD
ENDROOT
BRANCH   1   4
ATOM      3  O   UNL     1       2.606   2.923  21.364  0.00  0.00    +0.000 OA
ATOM      4  S   UNL     1       1.977   3.105  20.077  0.00  0.00    +0.000 S 
ATOM      5  O   UNL     1       1.130   2.097  19.479  0.00  0.00    +0.000 OA
BRANCH   4   6
ATOM      6  C   UNL     1       3.260   3.511  18.917  0.00  0.00    +0.000 A 
ATOM      7  C   UNL     1       2.986   3.553  17.546  0.00  0.00    +0.000 A 
ATOM      8  C   UNL     1       4.000   3.913  16.656  0.00  0.00    +0.000 A 
ATOM      9  C   UNL     1       5.272   4.227  17.138  0.00  0.00    +0.000 A 
ATOM     10  C   UNL     1       5.532   4.191  18.513  0.00  0.00    +0.000 A 
ATOM     11  C   UNL     1       4.536   3.810  19.405  0.00  0.00    +0.000 A 
ATOM     12  O   UNL     1       6.748   4.519  19.056  0.00  0.00    +0.000 OA
ATOM     13  C   UNL     1       7.557   5.240  18.120  0.00  0.00    +0.000 C 
ATOM     14  C   UNL     1       7.535   4.561  16.759  0.00  0.00    +0.000 C 
ATOM     15  O   UNL     1       6.215   4.575  16.205  0.00  0.00    +0.000 OA
ENDBRANCH   4   6
ENDBRANCH   1   4
BRANCH   1  16
ATOM     16  C   UNL     1       1.751   5.711  20.761  0.00  0.00    +0.000 C 
BRANCH  16  17
ATOM     17  C   UNL     1       2.375   6.601  19.680  0.00  0.00    +0.000 C 
BRANCH  17  18
ATOM     18  S   UNL     1       1.643   8.277  19.734  0.00  0.00    +0.000 S 
BRANCH  18  19
ATOM     19  C   UNL     1       0.786   8.165  21.336  0.00  0.00    +0.000 C 
BRANCH  19  20
ATOM     20  C   UNL     1      -0.021   9.415  21.592  0.00  0.00    +0.000 A 
ATOM     21  C   UNL     1      -0.415   9.756  22.894  0.00  0.00    +0.000 A 
ATOM     22  C   UNL     1      -1.129  10.933  23.133  0.00  0.00    +0.000 A 
ATOM     23  C   UNL     1      -1.456  11.787  22.077  0.00  0.00    +0.000 A 
ATOM     24 CL   UNL     1      -2.341  13.225  22.448  0.00  0.00    +0.000 Cl
ATOM     25  C   UNL     1      -1.061  11.463  20.776  0.00  0.00    +0.000 A 
ATOM     26 CL   UNL     1      -1.421  12.472  19.419  0.00  0.00    +0.000 Cl
ATOM     27  C   UNL     1      -0.345  10.284  20.537  0.00  0.00    +0.000 A 
ENDBRANCH  19  20
ENDBRANCH  18  19
ENDBRANCH  17  18
ENDBRANCH  16  17
ENDBRANCH   1  16
TORSDOF 7
ENDMDL
MODEL 9
REMARK VINA RESULT:      -7.0      3.138      5.192
REMARK  Name = 
REMARK  7 active torsions:
REMARK  status: ('A' for Active; 'I' for Inactive)
REMARK    1  A    between atoms: S_2  and  N_4
REMARK    2  A    between atoms: S_2  and  C_17
REMARK    3  A    between atoms: N_4  and  C_5
REMARK    4  A    between atoms: C_5  and  C_6
REMARK    5  A    between atoms: C_6  and  S_7
REMARK    6  A    between atoms: S_7  and  C_8
REMARK    7  A    between atoms: C_8  and  C_9
REMARK                            x       y       z     vdW  Elec       q    Type
REMARK                         _______ _______ _______ _____ _____    ______ ____
ROOT
ATOM      1  N   UNL     1       2.272   5.840  21.128  0.00  0.00    +0.000 NA
ATOM      2  H   UNL     1       3.130   6.220  20.723  0.00  0.00    +0.000 HD
ENDROOT
BRANCH   1   4
ATOM      3  O   UNL     1       2.520   3.369  21.603  0.00  0.00    +0.000 OA
ATOM      4  S   UNL     1       1.978   4.262  20.605  0.00  0.00    +0.000 S 
ATOM      5  O   UNL     1       0.600   4.194  20.173  0.00  0.00    +0.000 OA
BRANCH   4   6
ATOM      6  C   UNL     1       3.017   4.138  19.169  0.00  0.00    +0.000 A 
ATOM      7  C   UNL     1       3.244   2.898  18.566  0.00  0.00    +0.000 A 
ATOM      8  C   UNL     1       4.032   2.830  17.415  0.00  0.00    +0.000 A 
ATOM      9  C   UNL     1       4.584   3.994  16.879  0.00  0.00    +0.000 A 
ATOM     10  C   UNL     1       4.342   5.232  17.485  0.00  0.00    +0.000 A 
ATOM     11  C   UNL     1       3.579   5.307  18.646  0.00  0.00    +0.000 A 
ATOM     12  O   UNL     1       4.826   6.417  16.993  0.00  0.00    +0.000 OA
ATOM     13  C   UNL     1       5.259   6.277  15.635  0.00  0.00    +0.000 C 
ATOM     14  C   UNL     1       6.110   5.028  15.471  0.00  0.00    +0.000 C 
ATOM     15  O   UNL     1       5.343   3.850  15.746  0.00  0.00    +0.000 OA
ENDBRANCH   4   6
ENDBRANCH   1   4
BRANCH   1  16
ATOM     16  C   UNL     1       1.130   6.779  21.112  0.00  0.00    +0.000 C 
BRANCH  16  17
ATOM     17  C   UNL     1       1.551   8.124  20.510  0.00  0.00    +0.000 C 
BRANCH  17  18
ATOM     18  S   UNL     1       0.285   9.400  20.852  0.00  0.00    +0.000 S 
BRANCH  18  19
ATOM     19  C   UNL     1       0.457  10.390  19.334  0.00  0.00    +0.000 C 
BRANCH  19  20
ATOM     20  C   UNL     1      -0.899  10.681  18.737  0.00  0.00    +0.000 A 
ATOM     21  C   UNL     1      -1.779  11.572  19.366  0.00  0.00    +0.000 A 
ATOM     22  C   UNL     1      -3.018  11.869  18.792  0.00  0.00    +0.000 A 
ATOM     23  C   UNL     1      -3.394  11.282  17.581  0.00  0.00    +0.000 A 
ATOM     24 CL   UNL     1      -4.941  11.695  16.931  0.00  0.00    +0.000 Cl
ATOM     25  C   UNL     1      -2.521  10.398  16.939  0.00  0.00    +0.000 A 
ATOM     26 CL   UNL     1      -2.910   9.639  15.436  0.00  0.00    +0.000 Cl
ATOM     27  C   UNL     1      -1.279  10.103  17.514  0.00  0.00    +0.000 A 
ENDBRANCH  19  20
ENDBRANCH  18  19
ENDBRANCH  17  18
ENDBRANCH  16  17
ENDBRANCH   1  16
TORSDOF 7
ENDMDL
