MODEL 1
REMARK VINA RESULT:      -8.6      0.000      0.000
REMARK  Name = 
REMARK  7 active torsions:
REMARK  status: ('A' for Active; 'I' for Inactive)
REMARK    1  A    between atoms: C_1  and  C_2
REMARK    2  A    between atoms: C_5  and  C_6
REMARK    3  A    between atoms: C_6  and  O_7
REMARK    4  A    between atoms: C_6  and  C_17
REMARK    5  A    between atoms: O_7  and  C_8
REMARK    6  A    between atoms: N_15  and  C_16
REMARK    7  A    between atoms: C_20  and  C_21
REMARK                            x       y       z     vdW  Elec       q    Type
REMARK                         _______ _______ _______ _____ _____    ______ ____
ROOT
ATOM      1  C   UNL     1       2.996   6.582  19.714  0.00  0.00    +0.000 C 
ENDROOT
BRANCH   1   6
ATOM      2  C   UNL     1      -0.800  10.798  18.356  0.00  0.00    +0.000 C 
ATOM      3  C   UNL     1       0.334   9.895  18.740  0.00  0.00    +0.000 A 
ATOM      4  C   UNL     1       1.216   9.421  17.773  0.00  0.00    +0.000 A 
ATOM      5  C   UNL     1       2.197   8.477  18.100  0.00  0.00    +0.000 A 
ATOM      6  C   UNL     1       2.274   7.913  19.377  0.00  0.00    +0.000 A 
ATOM      7  C   UNL     1       1.467   8.504  20.375  0.00  0.00    +0.000 A 
ATOM      8  C   UNL     1       0.511   9.477  20.062  0.00  0.00    +0.000 A 
ENDBRANCH   1   6
BRANCH   1   9
ATOM      9  C   UNL     1       2.121   5.340  19.446  0.00  0.00    +0.000 A 
ATOM     10  C   UNL     1       1.886   4.881  18.131  0.00  0.00    +0.000 A 
ATOM     11  C   UNL     1       1.377   3.603  17.898  0.00  0.00    +0.000 A 
ATOM     12  C   UNL     1       1.098   2.741  18.966  0.00  0.00    +0.000 A 
ATOM     13  C   UNL     1       0.770   1.312  18.699  0.00  0.00    +0.000 C 
ATOM     14  C   UNL     1       1.152   3.257  20.260  0.00  0.00    +0.000 A 
ATOM     15  C   UNL     1       1.666   4.546  20.507  0.00  0.00    +0.000 A 
ENDBRANCH   1   9
BRANCH   1  16
ATOM     16  O   UNL     1       4.379   6.373  19.289  0.00  0.00    +0.000 OA
BRANCH  16  17
ATOM     17  C   UNL     1       4.708   5.741  18.039  0.00  0.00    +0.000 C 
ATOM     18  C   UNL     1       5.542   4.463  18.089  0.00  0.00    +0.000 C 
ATOM     19  C   UNL     1       7.051   4.654  17.919  0.00  0.00    +0.000 C 
ATOM     20  C   UNL     1       7.670   5.693  18.858  0.00  0.00    +0.000 C 
ATOM     21  C   UNL     1       7.589   7.016  18.085  0.00  0.00    +0.000 C 
ATOM     22  C   UNL     1       6.836   6.649  16.808  0.00  0.00    +0.000 C 
ATOM     23  C   UNL     1       5.312   6.767  17.040  0.00  0.00    +0.000 C 
ATOM     24  N   UNL     1       7.342   5.284  16.636  0.00  0.00    +0.000 NA
ATOM     25  C   UNL     1       6.946   4.539  15.460  0.00  0.00    +0.000 C 
ENDBRANCH  16  17
ENDBRANCH   1  16
TORSDOF 4
ENDMDL
MODEL 2
REMARK VINA RESULT:      -8.4      0.980      4.721
REMARK  Name = 
REMARK  7 active torsions:
REMARK  status: ('A' for Active; 'I' for Inactive)
REMARK    1  A    between atoms: C_1  and  C_2
REMARK    2  A    between atoms: C_5  and  C_6
REMARK    3  A    between atoms: C_6  and  O_7
REMARK    4  A    between atoms: C_6  and  C_17
REMARK    5  A    between atoms: O_7  and  C_8
REMARK    6  A    between atoms: N_15  and  C_16
REMARK    7  A    between atoms: C_20  and  C_21
REMARK                            x       y       z     vdW  Elec       q    Type
REMARK                         _______ _______ _______ _____ _____    ______ ____
ROOT
ATOM      1  C   UNL     1       2.795   7.122  18.093  0.00  0.00    +0.000 C 
ENDROOT
BRANCH   1   6
ATOM      2  C   UNL     1       2.011   1.577  19.722  0.00  0.00    +0.000 C 
ATOM      3  C   UNL     1       1.994   3.041  19.402  0.00  0.00    +0.000 A 
ATOM      4  C   UNL     1       1.447   3.494  18.204  0.00  0.00    +0.000 A 
ATOM      5  C   UNL     1       1.542   4.841  17.838  0.00  0.00    +0.000 A 
ATOM      6  C   UNL     1       2.259   5.762  18.610  0.00  0.00    +0.000 A 
ATOM      7  C   UNL     1       2.685   5.318  19.882  0.00  0.00    +0.000 A 
ATOM      8  C   UNL     1       2.557   3.979  20.271  0.00  0.00    +0.000 A 
ENDBRANCH   1   6
BRANCH   1   9
ATOM      9  C   UNL     1       2.055   8.331  18.704  0.00  0.00    +0.000 A 
ATOM     10  C   UNL     1       1.618   9.405  17.898  0.00  0.00    +0.000 A 
ATOM     11  C   UNL     1       0.686  10.327  18.375  0.00  0.00    +0.000 A 
ATOM     12  C   UNL     1       0.154  10.201  19.664  0.00  0.00    +0.000 A 
ATOM     13  C   UNL     1      -0.997  11.053  20.078  0.00  0.00    +0.000 C 
ATOM     14  C   UNL     1       0.719   9.257  20.521  0.00  0.00    +0.000 A 
ATOM     15  C   UNL     1       1.660   8.319  20.049  0.00  0.00    +0.000 A 
ENDBRANCH   1   9
BRANCH   1  16
ATOM     16  O   UNL     1       4.236   7.355  18.008  0.00  0.00    +0.000 OA
BRANCH  16  17
ATOM     17  C   UNL     1       5.015   6.918  16.880  0.00  0.00    +0.000 C 
ATOM     18  C   UNL     1       4.788   5.497  16.370  0.00  0.00    +0.000 C 
ATOM     19  C   UNL     1       5.746   4.438  16.920  0.00  0.00    +0.000 C 
ATOM     20  C   UNL     1       5.854   4.411  18.448  0.00  0.00    +0.000 C 
ATOM     21  C   UNL     1       7.001   5.374  18.776  0.00  0.00    +0.000 C 
ATOM     22  C   UNL     1       7.392   5.956  17.419  0.00  0.00    +0.000 C 
ATOM     23  C   UNL     1       6.527   7.198  17.108  0.00  0.00    +0.000 C 
ATOM     24  N   UNL     1       7.125   4.779  16.587  0.00  0.00    +0.000 NA
ATOM     25  C   UNL     1       7.440   4.839  15.176  0.00  0.00    +0.000 C 
ENDBRANCH  16  17
ENDBRANCH   1  16
TORSDOF 4
ENDMDL
MODEL 3
REMARK VINA RESULT:      -8.4      1.144      4.584
REMARK  Name = 
REMARK  7 active torsions:
REMARK  status: ('A' for Active; 'I' for Inactive)
REMARK    1  A    between atoms: C_1  and  C_2
REMARK    2  A    between atoms: C_5  and  C_6
REMARK    3  A    between atoms: C_6  and  O_7
REMARK    4  A    between atoms: C_6  and  C_17
REMARK    5  A    between atoms: O_7  and  C_8
REMARK    6  A    between atoms: N_15  and  C_16
REMARK    7  A    between atoms: C_20  and  C_21
REMARK                            x       y       z     vdW  Elec       q    Type
REMARK                         _______ _______ _______ _____ _____    ______ ____
ROOT
ATOM      1  C   UNL     1       2.975   6.733  18.206  0.00  0.00    +0.000 C 
ENDROOT
BRANCH   1   6
ATOM      2  C   UNL     1       1.084   2.506  21.752  0.00  0.00    +0.000 C 
ATOM      3  C   UNL     1       1.693   3.416  20.728  0.00  0.00    +0.000 A 
ATOM      4  C   UNL     1       2.927   4.015  20.963  0.00  0.00    +0.000 A 
ATOM      5  C   UNL     1       3.443   4.965  20.074  0.00  0.00    +0.000 A 
ATOM      6  C   UNL     1       2.708   5.410  18.970  0.00  0.00    +0.000 A 
ATOM      7  C   UNL     1       1.526   4.695  18.672  0.00  0.00    +0.000 A 
ATOM      8  C   UNL     1       1.026   3.716  19.538  0.00  0.00    +0.000 A 
ENDBRANCH   1   6
BRANCH   1   9
ATOM      9  C   UNL     1       2.209   7.934  18.800  0.00  0.00    +0.000 A 
ATOM     10  C   UNL     1       1.743   8.983  17.977  0.00  0.00    +0.000 A 
ATOM     11  C   UNL     1       0.792   9.892  18.442  0.00  0.00    +0.000 A 
ATOM     12  C   UNL     1       0.268   9.775  19.737  0.00  0.00    +0.000 A 
ATOM     13  C   UNL     1      -0.900  10.607  20.141  0.00  0.00    +0.000 C 
ATOM     14  C   UNL     1       0.861   8.860  20.607  0.00  0.00    +0.000 A 
ATOM     15  C   UNL     1       1.821   7.937  20.147  0.00  0.00    +0.000 A 
ENDBRANCH   1   9
BRANCH   1  16
ATOM     16  O   UNL     1       4.339   7.095  17.825  0.00  0.00    +0.000 OA
BRANCH  16  17
ATOM     17  C   UNL     1       4.927   6.660  16.586  0.00  0.00    +0.000 C 
ATOM     18  C   UNL     1       4.776   5.188  16.208  0.00  0.00    +0.000 C 
ATOM     19  C   UNL     1       5.942   4.282  16.605  0.00  0.00    +0.000 C 
ATOM     20  C   UNL     1       6.351   4.381  18.077  0.00  0.00    +0.000 C 
ATOM     21  C   UNL     1       7.418   5.482  18.113  0.00  0.00    +0.000 C 
ATOM     22  C   UNL     1       7.462   5.998  16.676  0.00  0.00    +0.000 C 
ATOM     23  C   UNL     1       6.410   7.115  16.484  0.00  0.00    +0.000 C 
ATOM     24  N   UNL     1       7.178   4.740  15.979  0.00  0.00    +0.000 NA
ATOM     25  C   UNL     1       7.198   4.728  14.533  0.00  0.00    +0.000 C 
ENDBRANCH  16  17
ENDBRANCH   1  16
TORSDOF 4
ENDMDL
MODEL 4
REMARK VINA RESULT:      -8.4      1.144      4.810
REMARK  Name = 
REMARK  7 active torsions:
REMARK  status: ('A' for Active; 'I' for Inactive)
REMARK    1  A    between atoms: C_1  and  C_2
REMARK    2  A    between atoms: C_5  and  C_6
REMARK    3  A    between atoms: C_6  and  O_7
REMARK    4  A    between atoms: C_6  and  C_17
REMARK    5  A    between atoms: O_7  and  C_8
REMARK    6  A    between atoms: N_15  and  C_16
REMARK    7  A    between atoms: C_20  and  C_21
REMARK                            x       y       z     vdW  Elec       q    Type
REMARK                         _______ _______ _______ _____ _____    ______ ____
ROOT
ATOM      1  C   UNL     1       2.855   6.682  18.189  0.00  0.00    +0.000 C 
ENDROOT
BRANCH   1   6
ATOM      2  C   UNL     1       1.167   2.427  21.805  0.00  0.00    +0.000 C 
ATOM      3  C   UNL     1       1.741   3.351  20.773  0.00  0.00    +0.000 A 
ATOM      4  C   UNL     1       2.915   4.052  21.031  0.00  0.00    +0.000 A 
ATOM      5  C   UNL     1       3.389   5.012  20.129  0.00  0.00    +0.000 A 
ATOM      6  C   UNL     1       2.664   5.365  18.987  0.00  0.00    +0.000 A 
ATOM      7  C   UNL     1       1.553   4.551  18.671  0.00  0.00    +0.000 A 
ATOM      8  C   UNL     1       1.097   3.562  19.551  0.00  0.00    +0.000 A 
ENDBRANCH   1   6
BRANCH   1   9
ATOM      9  C   UNL     1       1.966   7.832  18.706  0.00  0.00    +0.000 A 
ATOM     10  C   UNL     1       1.611   7.925  20.070  0.00  0.00    +0.000 A 
ATOM     11  C   UNL     1       1.090   9.108  20.596  0.00  0.00    +0.000 A 
ATOM     12  C   UNL     1       0.918  10.235  19.782  0.00  0.00    +0.000 A 
ATOM     13  C   UNL     1       0.574  11.548  20.398  0.00  0.00    +0.000 C 
ATOM     14  C   UNL     1       1.091  10.087  18.406  0.00  0.00    +0.000 A 
ATOM     15  C   UNL     1       1.619   8.897  17.864  0.00  0.00    +0.000 A 
ENDBRANCH   1   9
BRANCH   1  16
ATOM     16  O   UNL     1       4.201   7.144  17.855  0.00  0.00    +0.000 OA
BRANCH  16  17
ATOM     17  C   UNL     1       4.883   6.716  16.663  0.00  0.00    +0.000 C 
ATOM     18  C   UNL     1       4.769   5.245  16.271  0.00  0.00    +0.000 C 
ATOM     19  C   UNL     1       5.908   4.344  16.752  0.00  0.00    +0.000 C 
ATOM     20  C   UNL     1       6.205   4.441  18.251  0.00  0.00    +0.000 C 
ATOM     21  C   UNL     1       7.260   5.548  18.370  0.00  0.00    +0.000 C 
ATOM     22  C   UNL     1       7.408   6.069  16.942  0.00  0.00    +0.000 C 
ATOM     23  C   UNL     1       6.366   7.180  16.674  0.00  0.00    +0.000 C 
ATOM     24  N   UNL     1       7.184   4.812  16.222  0.00  0.00    +0.000 NA
ATOM     25  C   UNL     1       7.313   4.804  14.781  0.00  0.00    +0.000 C 
ENDBRANCH  16  17
ENDBRANCH   1  16
TORSDOF 4
ENDMDL
MODEL 5
REMARK VINA RESULT:      -8.3      3.146      7.432
REMARK  Name = 
REMARK  7 active torsions:
REMARK  status: ('A' for Active; 'I' for Inactive)
REMARK    1  A    between atoms: C_1  and  C_2
REMARK    2  A    between atoms: C_5  and  C_6
REMARK    3  A    between atoms: C_6  and  O_7
REMARK    4  A    between atoms: C_6  and  C_17
REMARK    5  A    between atoms: O_7  and  C_8
REMARK    6  A    between atoms: N_15  and  C_16
REMARK    7  A    between atoms: C_20  and  C_21
REMARK                            x       y       z     vdW  Elec       q    Type
REMARK                         _______ _______ _______ _____ _____    ______ ____
ROOT
ATOM      1  C   UNL     1       5.873   4.536  16.720  0.00  0.00    +0.000 C 
ENDROOT
BRANCH   1   6
ATOM      2  C   UNL     1       7.127   3.273  11.166  0.00  0.00    +0.000 C 
ATOM      3  C   UNL     1       6.708   3.802  12.505  0.00  0.00    +0.000 A 
ATOM      4  C   UNL     1       7.565   4.617  13.238  0.00  0.00    +0.000 A 
ATOM      5  C   UNL     1       7.239   5.010  14.541  0.00  0.00    +0.000 A 
ATOM      6  C   UNL     1       6.092   4.533  15.185  0.00  0.00    +0.000 A 
ATOM      7  C   UNL     1       5.170   3.823  14.382  0.00  0.00    +0.000 A 
ATOM      8  C   UNL     1       5.475   3.461  13.065  0.00  0.00    +0.000 A 
ENDBRANCH   1   6
BRANCH   1   9
ATOM      9  C   UNL     1       6.409   5.813  17.401  0.00  0.00    +0.000 A 
ATOM     10  C   UNL     1       7.521   5.767  18.271  0.00  0.00    +0.000 A 
ATOM     11  C   UNL     1       8.200   6.931  18.630  0.00  0.00    +0.000 A 
ATOM     12  C   UNL     1       7.799   8.174  18.124  0.00  0.00    +0.000 A 
ATOM     13  C   UNL     1       8.661   9.372  18.333  0.00  0.00    +0.000 C 
ATOM     14  C   UNL     1       6.598   8.243  17.420  0.00  0.00    +0.000 A 
ATOM     15  C   UNL     1       5.904   7.072  17.050  0.00  0.00    +0.000 A 
ENDBRANCH   1   9
BRANCH   1  16
ATOM     16  O   UNL     1       4.585   4.125  17.276  0.00  0.00    +0.000 OA
BRANCH  16  17
ATOM     17  C   UNL     1       4.325   4.132  18.691  0.00  0.00    +0.000 C 
ATOM     18  C   UNL     1       4.126   2.785  19.382  0.00  0.00    +0.000 C 
ATOM     19  C   UNL     1       2.674   2.330  19.533  0.00  0.00    +0.000 C 
ATOM     20  C   UNL     1       1.862   2.351  18.234  0.00  0.00    +0.000 C 
ATOM     21  C   UNL     1       1.239   3.751  18.185  0.00  0.00    +0.000 C 
ATOM     22  C   UNL     1       1.825   4.457  19.407  0.00  0.00    +0.000 C 
ATOM     23  C   UNL     1       3.174   5.116  19.039  0.00  0.00    +0.000 C 
ATOM     24  N   UNL     1       1.913   3.304  20.308  0.00  0.00    +0.000 NA
ATOM     25  C   UNL     1       2.359   3.519  21.668  0.00  0.00    +0.000 C 
ENDBRANCH  16  17
ENDBRANCH   1  16
TORSDOF 4
ENDMDL
MODEL 6
REMARK VINA RESULT:      -8.2      2.901      7.236
REMARK  Name = 
REMARK  7 active torsions:
REMARK  status: ('A' for Active; 'I' for Inactive)
REMARK    1  A    between atoms: C_1  and  C_2
REMARK    2  A    between atoms: C_5  and  C_6
REMARK    3  A    between atoms: C_6  and  O_7
REMARK    4  A    between atoms: C_6  and  C_17
REMARK    5  A    between atoms: O_7  and  C_8
REMARK    6  A    between atoms: N_15  and  C_16
REMARK    7  A    between atoms: C_20  and  C_21
REMARK                            x       y       z     vdW  Elec       q    Type
REMARK                         _______ _______ _______ _____ _____    ______ ____
ROOT
ATOM      1  C   UNL     1       5.940   5.235  17.665  0.00  0.00    +0.000 C 
ENDROOT
BRANCH   1   6
ATOM      2  C   UNL     1       6.142   3.797  12.016  0.00  0.00    +0.000 C 
ATOM      3  C   UNL     1       6.150   3.934  13.509  0.00  0.00    +0.000 A 
ATOM      4  C   UNL     1       4.995   3.685  14.245  0.00  0.00    +0.000 A 
ATOM      5  C   UNL     1       4.955   3.935  15.622  0.00  0.00    +0.000 A 
ATOM      6  C   UNL     1       6.034   4.522  16.291  0.00  0.00    +0.000 A 
ATOM      7  C   UNL     1       7.239   4.639  15.561  0.00  0.00    +0.000 A 
ATOM      8  C   UNL     1       7.295   4.353  14.192  0.00  0.00    +0.000 A 
ENDBRANCH   1   6
BRANCH   1   9
ATOM      9  C   UNL     1       6.974   6.370  17.825  0.00  0.00    +0.000 A 
ATOM     10  C   UNL     1       6.885   7.553  17.060  0.00  0.00    +0.000 A 
ATOM     11  C   UNL     1       7.606   8.694  17.416  0.00  0.00    +0.000 A 
ATOM     12  C   UNL     1       8.427   8.692  18.551  0.00  0.00    +0.000 A 
ATOM     13  C   UNL     1       9.011   9.972  19.044  0.00  0.00    +0.000 C 
ATOM     14  C   UNL     1       8.658   7.478  19.195  0.00  0.00    +0.000 A 
ATOM     15  C   UNL     1       7.934   6.320  18.845  0.00  0.00    +0.000 A 
ENDBRANCH   1   9
BRANCH   1  16
ATOM     16  O   UNL     1       4.634   5.611  18.205  0.00  0.00    +0.000 OA
BRANCH  16  17
ATOM     17  C   UNL     1       4.120   5.045  19.424  0.00  0.00    +0.000 C 
ATOM     18  C   UNL     1       4.266   3.538  19.623  0.00  0.00    +0.000 C 
ATOM     19  C   UNL     1       3.059   2.697  19.205  0.00  0.00    +0.000 C 
ATOM     20  C   UNL     1       2.556   2.969  17.784  0.00  0.00    +0.000 C 
ATOM     21  C   UNL     1       1.512   4.080  17.943  0.00  0.00    +0.000 C 
ATOM     22  C   UNL     1       1.572   4.430  19.429  0.00  0.00    +0.000 C 
ATOM     23  C   UNL     1       2.656   5.504  19.675  0.00  0.00    +0.000 C 
ATOM     24  N   UNL     1       1.875   3.097  19.959  0.00  0.00    +0.000 NA
ATOM     25  C   UNL     1       1.949   2.921  21.393  0.00  0.00    +0.000 C 
ENDBRANCH  16  17
ENDBRANCH   1  16
TORSDOF 4
ENDMDL
MODEL 7
REMARK VINA RESULT:      -8.2      2.945      7.268
REMARK  Name = 
REMARK  7 active torsions:
REMARK  status: ('A' for Active; 'I' for Inactive)
REMARK    1  A    between atoms: C_1  and  C_2
REMARK    2  A    between atoms: C_5  and  C_6
REMARK    3  A    between atoms: C_6  and  O_7
REMARK    4  A    between atoms: C_6  and  C_17
REMARK    5  A    between atoms: O_7  and  C_8
REMARK    6  A    between atoms: N_15  and  C_16
REMARK    7  A    between atoms: C_20  and  C_21
REMARK                            x       y       z     vdW  Elec       q    Type
REMARK                         _______ _______ _______ _____ _____    ______ ____
ROOT
ATOM      1  C   UNL     1       5.985   5.415  17.117  0.00  0.00    +0.000 C 
ENDROOT
BRANCH   1   6
ATOM      2  C   UNL     1       6.304   2.893  11.867  0.00  0.00    +0.000 C 
ATOM      3  C   UNL     1       6.164   3.743  13.094  0.00  0.00    +0.000 A 
ATOM      4  C   UNL     1       7.256   4.450  13.589  0.00  0.00    +0.000 A 
ATOM      5  C   UNL     1       7.171   5.141  14.803  0.00  0.00    +0.000 A 
ATOM      6  C   UNL     1       6.026   5.079  15.603  0.00  0.00    +0.000 A 
ATOM      7  C   UNL     1       4.886   4.475  15.024  0.00  0.00    +0.000 A 
ATOM      8  C   UNL     1       4.955   3.816  13.791  0.00  0.00    +0.000 A 
ENDBRANCH   1   6
BRANCH   1   9
ATOM      9  C   UNL     1       7.042   6.461  17.528  0.00  0.00    +0.000 A 
ATOM     10  C   UNL     1       7.126   7.711  16.876  0.00  0.00    +0.000 A 
ATOM     11  C   UNL     1       7.845   8.767  17.438  0.00  0.00    +0.000 A 
ATOM     12  C   UNL     1       8.492   8.611  18.671  0.00  0.00    +0.000 A 
ATOM     13  C   UNL     1       9.064   9.801  19.362  0.00  0.00    +0.000 C 
ATOM     14  C   UNL     1       8.565   7.332  19.220  0.00  0.00    +0.000 A 
ATOM     15  C   UNL     1       7.841   6.259  18.662  0.00  0.00    +0.000 A 
ENDBRANCH   1   9
BRANCH   1  16
ATOM     16  O   UNL     1       4.702   5.650  17.778  0.00  0.00    +0.000 OA
BRANCH  16  17
ATOM     17  C   UNL     1       4.373   5.048  19.043  0.00  0.00    +0.000 C 
ATOM     18  C   UNL     1       4.551   3.537  19.176  0.00  0.00    +0.000 C 
ATOM     19  C   UNL     1       3.297   2.700  18.916  0.00  0.00    +0.000 C 
ATOM     20  C   UNL     1       2.592   3.007  17.592  0.00  0.00    +0.000 C 
ATOM     21  C   UNL     1       1.579   4.106  17.934  0.00  0.00    +0.000 C 
ATOM     22  C   UNL     1       1.855   4.416  19.404  0.00  0.00    +0.000 C 
ATOM     23  C   UNL     1       2.961   5.491  19.518  0.00  0.00    +0.000 C 
ATOM     24  N   UNL     1       2.236   3.072  19.847  0.00  0.00    +0.000 NA
ATOM     25  C   UNL     1       2.519   2.857  21.249  0.00  0.00    +0.000 C 
ENDBRANCH  16  17
ENDBRANCH   1  16
TORSDOF 4
ENDMDL
MODEL 8
REMARK VINA RESULT:      -8.2      0.587      1.118
REMARK  Name = 
REMARK  7 active torsions:
REMARK  status: ('A' for Active; 'I' for Inactive)
REMARK    1  A    between atoms: C_1  and  C_2
REMARK    2  A    between atoms: C_5  and  C_6
REMARK    3  A    between atoms: C_6  and  O_7
REMARK    4  A    between atoms: C_6  and  C_17
REMARK    5  A    between atoms: O_7  and  C_8
REMARK    6  A    between atoms: N_15  and  C_16
REMARK    7  A    between atoms: C_20  and  C_21
REMARK                            x       y       z     vdW  Elec       q    Type
REMARK                         _______ _______ _______ _____ _____    ______ ____
ROOT
ATOM      1  C   UNL     1       2.908   6.682  19.633  0.00  0.00    +0.000 C 
ENDROOT
BRANCH   1   6
ATOM      2  C   UNL     1       0.952  12.099  18.709  0.00  0.00    +0.000 C 
ATOM      3  C   UNL     1       1.243  10.635  18.853  0.00  0.00    +0.000 A 
ATOM      4  C   UNL     1       0.870   9.953  20.008  0.00  0.00    +0.000 A 
ATOM      5  C   UNL     1       1.250   8.621  20.206  0.00  0.00    +0.000 A 
ATOM      6  C   UNL     1       2.085   7.954  19.303  0.00  0.00    +0.000 A 
ATOM      7  C   UNL     1       2.337   8.612  18.077  0.00  0.00    +0.000 A 
ATOM      8  C   UNL     1       1.924   9.931  17.857  0.00  0.00    +0.000 A 
ENDBRANCH   1   6
BRANCH   1   9
ATOM      9  C   UNL     1       2.104   5.379  19.441  0.00  0.00    +0.000 A 
ATOM     10  C   UNL     1       1.807   4.886  18.151  0.00  0.00    +0.000 A 
ATOM     11  C   UNL     1       1.372   3.573  17.967  0.00  0.00    +0.000 A 
ATOM     12  C   UNL     1       1.231   2.710  19.061  0.00  0.00    +0.000 A 
ATOM     13  C   UNL     1       0.984   1.258  18.831  0.00  0.00    +0.000 C 
ATOM     14  C   UNL     1       1.343   3.246  20.343  0.00  0.00    +0.000 A 
ATOM     15  C   UNL     1       1.784   4.571  20.540  0.00  0.00    +0.000 A 
ENDBRANCH   1   9
BRANCH   1  16
ATOM     16  O   UNL     1       4.279   6.551  19.141  0.00  0.00    +0.000 OA
BRANCH  16  17
ATOM     17  C   UNL     1       4.609   5.724  18.011  0.00  0.00    +0.000 C 
ATOM     18  C   UNL     1       5.529   4.530  18.251  0.00  0.00    +0.000 C 
ATOM     19  C   UNL     1       7.015   4.777  17.985  0.00  0.00    +0.000 C 
ATOM     20  C   UNL     1       7.593   6.005  18.696  0.00  0.00    +0.000 C 
ATOM     21  C   UNL     1       7.398   7.158  17.704  0.00  0.00    +0.000 C 
ATOM     22  C   UNL     1       6.632   6.522  16.546  0.00  0.00    +0.000 C 
ATOM     23  C   UNL     1       5.112   6.588  16.820  0.00  0.00    +0.000 C 
ATOM     24  N   UNL     1       7.223   5.181  16.599  0.00  0.00    +0.000 NA
ATOM     25  C   UNL     1       6.841   4.214  15.593  0.00  0.00    +0.000 C 
ENDBRANCH  16  17
ENDBRANCH   1  16
TORSDOF 4
ENDMDL
MODEL 9
REMARK VINA RESULT:      -8.2      1.280      4.866
REMARK  Name = 
REMARK  7 active torsions:
REMARK  status: ('A' for Active; 'I' for Inactive)
REMARK    1  A    between atoms: C_1  and  C_2
REMARK    2  A    between atoms: C_5  and  C_6
REMARK    3  A    between atoms: C_6  and  O_7
REMARK    4  A    between atoms: C_6  and  C_17
REMARK    5  A    between atoms: O_7  and  C_8
REMARK    6  A    between atoms: N_15  and  C_16
REMARK    7  A    between atoms: C_20  and  C_21
REMARK                            x       y       z     vdW  Elec       q    Type
REMARK                         _______ _______ _______ _____ _____    ______ ____
ROOT
ATOM      1  C   UNL     1       2.723   7.425  17.713  0.00  0.00    +0.000 C 
ENDROOT
BRANCH   1   6
ATOM      2  C   UNL     1       1.552   2.817  21.093  0.00  0.00    +0.000 C 
ATOM      3  C   UNL     1       1.616   4.051  20.243  0.00  0.00    +0.000 A 
ATOM      4  C   UNL     1       1.410   3.970  18.869  0.00  0.00    +0.000 A 
ATOM      5  C   UNL     1       1.594   5.090  18.051  0.00  0.00    +0.000 A 
ATOM      6  C   UNL     1       2.073   6.301  18.562  0.00  0.00    +0.000 A 
ATOM      7  C   UNL     1       2.144   6.404  19.970  0.00  0.00    +0.000 A 
ATOM      8  C   UNL     1       1.921   5.297  20.797  0.00  0.00    +0.000 A 
ENDBRANCH   1   6
BRANCH   1   9
ATOM      9  C   UNL     1       1.961   8.763  17.804  0.00  0.00    +0.000 A 
ATOM     10  C   UNL     1       0.552   8.798  17.891  0.00  0.00    +0.000 A 
ATOM     11  C   UNL     1      -0.114   9.957  18.291  0.00  0.00    +0.000 A 
ATOM     12  C   UNL     1       0.604  11.112  18.625  0.00  0.00    +0.000 A 
ATOM     13  C   UNL     1      -0.098  12.263  19.260  0.00  0.00    +0.000 C 
ATOM     14  C   UNL     1       1.973  11.136  18.361  0.00  0.00    +0.000 A 
ATOM     15  C   UNL     1       2.656   9.970  17.960  0.00  0.00    +0.000 A 
ENDBRANCH   1   9
BRANCH   1  16
ATOM     16  O   UNL     1       4.171   7.622  17.748  0.00  0.00    +0.000 OA
BRANCH  16  17
ATOM     17  C   UNL     1       5.058   6.935  16.847  0.00  0.00    +0.000 C 
ATOM     18  C   UNL     1       4.713   5.494  16.475  0.00  0.00    +0.000 C 
ATOM     19  C   UNL     1       5.395   4.414  17.317  0.00  0.00    +0.000 C 
ATOM     20  C   UNL     1       5.236   4.593  18.829  0.00  0.00    +0.000 C 
ATOM     21  C   UNL     1       6.440   5.442  19.253  0.00  0.00    +0.000 C 
ATOM     22  C   UNL     1       7.139   5.770  17.935  0.00  0.00    +0.000 C 
ATOM     23  C   UNL     1       6.533   7.054  17.321  0.00  0.00    +0.000 C 
ATOM     24  N   UNL     1       6.846   4.529  17.212  0.00  0.00    +0.000 NA
ATOM     25  C   UNL     1       7.402   4.348  15.889  0.00  0.00    +0.000 C 
ENDBRANCH  16  17
ENDBRANCH   1  16
TORSDOF 4
ENDMDL
