MODEL 1
REMARK VINA RESULT:      -7.3      0.000      0.000
REMARK  Name = 
REMARK  12 active torsions:
REMARK  status: ('A' for Active; 'I' for Inactive)
REMARK    1  A    between atoms: C_1  and  C_2
REMARK    2  A    between atoms: C_2  and  O_3
REMARK    3  A    between atoms: O_3  and  C_4
REMARK    4  A    between atoms: C_7  and  N_8
REMARK    5  A    between atoms: N_8  and  C_9
REMARK    6  A    between atoms: N_8  and  S_14
REMARK    7  A    between atoms: C_9  and  C_10
REMARK    8  A    between atoms: C_10  and  O_12
REMARK    9  A    between atoms: O_12  and  C_13
REMARK   10  A    between atoms: S_14  and  C_17
REMARK   11  A    between atoms: C_18  and  C_19
REMARK   12  A    between atoms: C_22  and  C_23
REMARK                            x       y       z     vdW  Elec       q    Type
REMARK                         _______ _______ _______ _____ _____    ______ ____
ROOT
ATOM      1  N   UNL     1       5.943   5.122  17.442  0.00  0.00    +0.000 N 
ENDROOT
BRANCH   1   5
ATOM      2  C   UNL     1       8.401   8.432  18.503  0.00  0.00    +0.000 A 
ATOM      3  C   UNL     1       8.562   7.202  19.147  0.00  0.00    +0.000 A 
ATOM      4  C   UNL     1       7.782   6.094  18.793  0.00  0.00    +0.000 A 
ATOM      5  C   UNL     1       6.827   6.210  17.783  0.00  0.00    +0.000 A 
ATOM      6  C   UNL     1       6.656   7.444  17.144  0.00  0.00    +0.000 A 
ATOM      7  C   UNL     1       7.446   8.551  17.497  0.00  0.00    +0.000 A 
BRANCH   2   8
ATOM      8  O   UNL     1       9.184   9.440  18.995  0.00  0.00    +0.000 OA
BRANCH   8  10
ATOM      9  C   UNL     1      10.426  11.432  18.608  0.00  0.00    +0.000 C 
ATOM     10  C   UNL     1       9.114  10.708  18.344  0.00  0.00    +0.000 C 
ENDBRANCH   8  10
ENDBRANCH   2   8
ENDBRANCH   1   5
BRANCH   1  11
ATOM     11  S   UNL     1       4.938   4.591  18.730  0.00  0.00    +0.000 S 
ATOM     12  O   UNL     1       5.470   3.352  19.259  0.00  0.00    +0.000 OA
ATOM     13  O   UNL     1       4.634   5.708  19.603  0.00  0.00    +0.000 OA
BRANCH  11  14
ATOM     14  C   UNL     1       3.372   4.136  18.196  0.00  0.00    +0.000 A 
ATOM     15  C   UNL     1       2.232   4.909  17.885  0.00  0.00    +0.000 A 
ATOM     16  C   UNL     1       1.982   6.366  17.921  0.00  0.00    +0.000 C 
ATOM     17  N   UNL     1       1.218   4.125  17.495  0.00  0.00    +0.000 NA
ATOM     18  O   UNL     1       1.664   2.827  17.609  0.00  0.00    +0.000 OA
ATOM     19  C   UNL     1       2.949   2.831  18.050  0.00  0.00    +0.000 A 
ATOM     20  C   UNL     1       3.547   1.502  18.289  0.00  0.00    +0.000 C 
ENDBRANCH  11  14
ENDBRANCH   1  11
BRANCH   1  21
ATOM     21  C   UNL     1       6.427   4.057  16.514  0.00  0.00    +0.000 C 
BRANCH  21  22
ATOM     22  C   UNL     1       6.733   4.405  15.074  0.00  0.00    +0.000 C 
ATOM     23  O   UNL     1       7.587   5.214  14.737  0.00  0.00    +0.000 OA
BRANCH  22  24
ATOM     24  O   UNL     1       5.959   3.680  14.216  0.00  0.00    +0.000 OA
ATOM     25  C   UNL     1       6.323   3.753  12.833  0.00  0.00    +0.000 C 
ENDBRANCH  22  24
ENDBRANCH  21  22
ENDBRANCH   1  21
TORSDOF 8
ENDMDL
MODEL 2
REMARK VINA RESULT:      -7.3      0.427      1.633
REMARK  Name = 
REMARK  12 active torsions:
REMARK  status: ('A' for Active; 'I' for Inactive)
REMARK    1  A    between atoms: C_1  and  C_2
REMARK    2  A    between atoms: C_2  and  O_3
REMARK    3  A    between atoms: O_3  and  C_4
REMARK    4  A    between atoms: C_7  and  N_8
REMARK    5  A    between atoms: N_8  and  C_9
REMARK    6  A    between atoms: N_8  and  S_14
REMARK    7  A    between atoms: C_9  and  C_10
REMARK    8  A    between atoms: C_10  and  O_12
REMARK    9  A    between atoms: O_12  and  C_13
REMARK   10  A    between atoms: S_14  and  C_17
REMARK   11  A    between atoms: C_18  and  C_19
REMARK   12  A    between atoms: C_22  and  C_23
REMARK                            x       y       z     vdW  Elec       q    Type
REMARK                         _______ _______ _______ _____ _____    ______ ____
ROOT
ATOM      1  N   UNL     1       5.884   5.120  17.513  0.00  0.00    +0.000 N 
ENDROOT
BRANCH   1   5
ATOM      2  C   UNL     1       8.369   8.433  18.499  0.00  0.00    +0.000 A 
ATOM      3  C   UNL     1       8.556   7.201  19.132  0.00  0.00    +0.000 A 
ATOM      4  C   UNL     1       7.768   6.092  18.802  0.00  0.00    +0.000 A 
ATOM      5  C   UNL     1       6.777   6.209  17.828  0.00  0.00    +0.000 A 
ATOM      6  C   UNL     1       6.579   7.445  17.200  0.00  0.00    +0.000 A 
ATOM      7  C   UNL     1       7.377   8.553  17.529  0.00  0.00    +0.000 A 
BRANCH   2   8
ATOM      8  O   UNL     1       9.166   9.442  18.966  0.00  0.00    +0.000 OA
BRANCH   8  10
ATOM      9  C   UNL     1       9.959  11.683  19.066  0.00  0.00    +0.000 C 
ATOM     10  C   UNL     1       9.144  10.682  18.260  0.00  0.00    +0.000 C 
ENDBRANCH   8  10
ENDBRANCH   2   8
ENDBRANCH   1   5
BRANCH   1  11
ATOM     11  S   UNL     1       4.905   4.602  18.827  0.00  0.00    +0.000 S 
ATOM     12  O   UNL     1       5.492   3.414  19.409  0.00  0.00    +0.000 OA
ATOM     13  O   UNL     1       4.550   5.742  19.649  0.00  0.00    +0.000 OA
BRANCH  11  14
ATOM     14  C   UNL     1       3.361   4.052  18.317  0.00  0.00    +0.000 A 
ATOM     15  C   UNL     1       2.854   2.749  18.116  0.00  0.00    +0.000 A 
ATOM     16  C   UNL     1       3.470   1.413  18.260  0.00  0.00    +0.000 C 
ATOM     17  N   UNL     1       1.576   2.793  17.717  0.00  0.00    +0.000 NA
ATOM     18  O   UNL     1       1.253   4.126  17.591  0.00  0.00    +0.000 OA
ATOM     19  C   UNL     1       2.329   4.882  17.929  0.00  0.00    +0.000 A 
ATOM     20  C   UNL     1       2.158   6.342  17.778  0.00  0.00    +0.000 C 
ENDBRANCH  11  14
ENDBRANCH   1  11
BRANCH   1  21
ATOM     21  C   UNL     1       6.348   4.045  16.587  0.00  0.00    +0.000 C 
BRANCH  21  22
ATOM     22  C   UNL     1       6.698   4.394  15.157  0.00  0.00    +0.000 C 
ATOM     23  O   UNL     1       7.541   5.227  14.847  0.00  0.00    +0.000 OA
BRANCH  22  24
ATOM     24  O   UNL     1       5.980   3.642  14.275  0.00  0.00    +0.000 OA
ATOM     25  C   UNL     1       6.333   3.791  12.894  0.00  0.00    +0.000 C 
ENDBRANCH  22  24
ENDBRANCH  21  22
ENDBRANCH   1  21
TORSDOF 8
ENDMDL
MODEL 3
REMARK VINA RESULT:      -7.2      2.418      6.053
REMARK  Name = 
REMARK  12 active torsions:
REMARK  status: ('A' for Active; 'I' for Inactive)
REMARK    1  A    between atoms: C_1  and  C_2
REMARK    2  A    between atoms: C_2  and  O_3
REMARK    3  A    between atoms: O_3  and  C_4
REMARK    4  A    between atoms: C_7  and  N_8
REMARK    5  A    between atoms: N_8  and  C_9
REMARK    6  A    between atoms: N_8  and  S_14
REMARK    7  A    between atoms: C_9  and  C_10
REMARK    8  A    between atoms: C_10  and  O_12
REMARK    9  A    between atoms: O_12  and  C_13
REMARK   10  A    between atoms: S_14  and  C_17
REMARK   11  A    between atoms: C_18  and  C_19
REMARK   12  A    between atoms: C_22  and  C_23
REMARK                            x       y       z     vdW  Elec       q    Type
REMARK                         _______ _______ _______ _____ _____    ______ ____
ROOT
ATOM      1  N   UNL     1       3.632   4.750  18.824  0.00  0.00    +0.000 N 
ENDROOT
BRANCH   1   5
ATOM      2  C   UNL     1       2.074   8.708  18.655  0.00  0.00    +0.000 A 
ATOM      3  C   UNL     1       2.806   8.194  17.581  0.00  0.00    +0.000 A 
ATOM      4  C   UNL     1       3.302   6.885  17.605  0.00  0.00    +0.000 A 
ATOM      5  C   UNL     1       3.069   6.074  18.716  0.00  0.00    +0.000 A 
ATOM      6  C   UNL     1       2.347   6.590  19.798  0.00  0.00    +0.000 A 
ATOM      7  C   UNL     1       1.844   7.901  19.766  0.00  0.00    +0.000 A 
BRANCH   2   8
ATOM      8  O   UNL     1       1.707  10.019  18.520  0.00  0.00    +0.000 OA
BRANCH   8  10
ATOM      9  C   UNL     1      -0.522  10.811  18.773  0.00  0.00    +0.000 C 
ATOM     10  C   UNL     1       0.799  10.552  19.483  0.00  0.00    +0.000 C 
ENDBRANCH   8  10
ENDBRANCH   2   8
ENDBRANCH   1   5
BRANCH   1  11
ATOM     11  S   UNL     1       5.348   4.709  18.893  0.00  0.00    +0.000 S 
ATOM     12  O   UNL     1       5.801   5.680  19.866  0.00  0.00    +0.000 OA
ATOM     13  O   UNL     1       5.801   3.333  18.942  0.00  0.00    +0.000 OA
BRANCH  11  14
ATOM     14  C   UNL     1       6.076   5.259  17.439  0.00  0.00    +0.000 A 
ATOM     15  C   UNL     1       5.885   4.871  16.095  0.00  0.00    +0.000 A 
ATOM     16  C   UNL     1       5.008   3.855  15.472  0.00  0.00    +0.000 C 
ATOM     17  N   UNL     1       6.671   5.583  15.278  0.00  0.00    +0.000 NA
ATOM     18  O   UNL     1       7.431   6.400  16.084  0.00  0.00    +0.000 OA
ATOM     19  C   UNL     1       7.092   6.191  17.382  0.00  0.00    +0.000 A 
ATOM     20  C   UNL     1       7.875   6.951  18.378  0.00  0.00    +0.000 C 
ENDBRANCH  11  14
ENDBRANCH   1  11
BRANCH   1  21
ATOM     21  C   UNL     1       2.985   3.624  18.087  0.00  0.00    +0.000 C 
BRANCH  21  22
ATOM     22  C   UNL     1       1.890   2.825  18.757  0.00  0.00    +0.000 C 
ATOM     23  O   UNL     1       0.829   2.539  18.216  0.00  0.00    +0.000 OA
BRANCH  22  24
ATOM     24  O   UNL     1       2.254   2.447  20.015  0.00  0.00    +0.000 OA
ATOM     25  C   UNL     1       1.363   2.837  21.067  0.00  0.00    +0.000 C 
ENDBRANCH  22  24
ENDBRANCH  21  22
ENDBRANCH   1  21
TORSDOF 8
ENDMDL
MODEL 4
REMARK VINA RESULT:      -7.2      0.453      1.058
REMARK  Name = 
REMARK  12 active torsions:
REMARK  status: ('A' for Active; 'I' for Inactive)
REMARK    1  A    between atoms: C_1  and  C_2
REMARK    2  A    between atoms: C_2  and  O_3
REMARK    3  A    between atoms: O_3  and  C_4
REMARK    4  A    between atoms: C_7  and  N_8
REMARK    5  A    between atoms: N_8  and  C_9
REMARK    6  A    between atoms: N_8  and  S_14
REMARK    7  A    between atoms: C_9  and  C_10
REMARK    8  A    between atoms: C_10  and  O_12
REMARK    9  A    between atoms: O_12  and  C_13
REMARK   10  A    between atoms: S_14  and  C_17
REMARK   11  A    between atoms: C_18  and  C_19
REMARK   12  A    between atoms: C_22  and  C_23
REMARK                            x       y       z     vdW  Elec       q    Type
REMARK                         _______ _______ _______ _____ _____    ______ ____
ROOT
ATOM      1  N   UNL     1       5.815   5.164  17.329  0.00  0.00    +0.000 N 
ENDROOT
BRANCH   1   5
ATOM      2  C   UNL     1       8.112   8.660  18.121  0.00  0.00    +0.000 A 
ATOM      3  C   UNL     1       6.993   8.728  17.286  0.00  0.00    +0.000 A 
ATOM      4  C   UNL     1       6.208   7.596  17.036  0.00  0.00    +0.000 A 
ATOM      5  C   UNL     1       6.542   6.375  17.623  0.00  0.00    +0.000 A 
ATOM      6  C   UNL     1       7.669   6.302  18.451  0.00  0.00    +0.000 A 
ATOM      7  C   UNL     1       8.448   7.441  18.706  0.00  0.00    +0.000 A 
BRANCH   2   8
ATOM      8  O   UNL     1       8.819   9.826  18.224  0.00  0.00    +0.000 OA
BRANCH   8  10
ATOM      9  C   UNL     1      10.396  11.248  19.299  0.00  0.00    +0.000 C 
ATOM     10  C   UNL     1       9.340  10.171  19.507  0.00  0.00    +0.000 C 
ENDBRANCH   8  10
ENDBRANCH   2   8
ENDBRANCH   1   5
BRANCH   1  11
ATOM     11  S   UNL     1       4.942   4.518  18.660  0.00  0.00    +0.000 S 
ATOM     12  O   UNL     1       5.575   3.287  19.083  0.00  0.00    +0.000 OA
ATOM     13  O   UNL     1       4.649   5.574  19.609  0.00  0.00    +0.000 OA
BRANCH  11  14
ATOM     14  C   UNL     1       3.364   4.004  18.221  0.00  0.00    +0.000 A 
ATOM     15  C   UNL     1       2.190   4.735  17.935  0.00  0.00    +0.000 A 
ATOM     16  C   UNL     1       1.905   6.186  17.924  0.00  0.00    +0.000 C 
ATOM     17  N   UNL     1       1.180   3.911  17.627  0.00  0.00    +0.000 NA
ATOM     18  O   UNL     1       1.665   2.631  17.772  0.00  0.00    +0.000 OA
ATOM     19  C   UNL     1       2.968   2.684  18.149  0.00  0.00    +0.000 A 
ATOM     20  C   UNL     1       3.612   1.381  18.412  0.00  0.00    +0.000 C 
ENDBRANCH  11  14
ENDBRANCH   1  11
BRANCH   1  21
ATOM     21  C   UNL     1       6.418   4.163  16.401  0.00  0.00    +0.000 C 
BRANCH  21  22
ATOM     22  C   UNL     1       6.690   4.547  14.963  0.00  0.00    +0.000 C 
ATOM     23  O   UNL     1       7.654   5.213  14.608  0.00  0.00    +0.000 OA
BRANCH  22  24
ATOM     24  O   UNL     1       5.745   4.031  14.127  0.00  0.00    +0.000 OA
ATOM     25  C   UNL     1       6.217   3.589  12.847  0.00  0.00    +0.000 C 
ENDBRANCH  22  24
ENDBRANCH  21  22
ENDBRANCH   1  21
TORSDOF 8
ENDMDL
MODEL 5
REMARK VINA RESULT:      -7.1      2.760      6.239
REMARK  Name = 
REMARK  12 active torsions:
REMARK  status: ('A' for Active; 'I' for Inactive)
REMARK    1  A    between atoms: C_1  and  C_2
REMARK    2  A    between atoms: C_2  and  O_3
REMARK    3  A    between atoms: O_3  and  C_4
REMARK    4  A    between atoms: C_7  and  N_8
REMARK    5  A    between atoms: N_8  and  C_9
REMARK    6  A    between atoms: N_8  and  S_14
REMARK    7  A    between atoms: C_9  and  C_10
REMARK    8  A    between atoms: C_10  and  O_12
REMARK    9  A    between atoms: O_12  and  C_13
REMARK   10  A    between atoms: S_14  and  C_17
REMARK   11  A    between atoms: C_18  and  C_19
REMARK   12  A    between atoms: C_22  and  C_23
REMARK                            x       y       z     vdW  Elec       q    Type
REMARK                         _______ _______ _______ _____ _____    ______ ____
ROOT
ATOM      1  N   UNL     1       3.811   6.092  17.971  0.00  0.00    +0.000 N 
ENDROOT
BRANCH   1   5
ATOM      2  C   UNL     1       1.241   9.205  19.324  0.00  0.00    +0.000 A 
ATOM      3  C   UNL     1       1.752   9.230  18.023  0.00  0.00    +0.000 A 
ATOM      4  C   UNL     1       2.576   8.202  17.550  0.00  0.00    +0.000 A 
ATOM      5  C   UNL     1       2.899   7.131  18.384  0.00  0.00    +0.000 A 
ATOM      6  C   UNL     1       2.398   7.109  19.691  0.00  0.00    +0.000 A 
ATOM      7  C   UNL     1       1.565   8.138  20.158  0.00  0.00    +0.000 A 
BRANCH   2   8
ATOM      8  O   UNL     1       0.505  10.304  19.669  0.00  0.00    +0.000 OA
BRANCH   8  10
ATOM      9  C   UNL     1      -1.605  10.569  18.602  0.00  0.00    +0.000 C 
ATOM     10  C   UNL     1      -0.151  11.016  18.620  0.00  0.00    +0.000 C 
ENDBRANCH   8  10
ENDBRANCH   2   8
ENDBRANCH   1   5
BRANCH   1  11
ATOM     11  S   UNL     1       5.166   6.651  17.074  0.00  0.00    +0.000 S 
ATOM     12  O   UNL     1       4.812   6.703  15.672  0.00  0.00    +0.000 OA
ATOM     13  O   UNL     1       5.752   7.797  17.742  0.00  0.00    +0.000 OA
BRANCH  11  14
ATOM     14  C   UNL     1       6.471   5.537  17.096  0.00  0.00    +0.000 A 
ATOM     15  C   UNL     1       7.388   5.194  18.114  0.00  0.00    +0.000 A 
ATOM     16  C   UNL     1       7.555   5.678  19.502  0.00  0.00    +0.000 C 
ATOM     17  N   UNL     1       8.245   4.257  17.687  0.00  0.00    +0.000 NA
ATOM     18  O   UNL     1       7.937   4.024  16.365  0.00  0.00    +0.000 OA
ATOM     19  C   UNL     1       6.888   4.806  16.003  0.00  0.00    +0.000 A 
ATOM     20  C   UNL     1       6.484   4.717  14.585  0.00  0.00    +0.000 C 
ENDBRANCH  11  14
ENDBRANCH   1  11
BRANCH   1  21
ATOM     21  C   UNL     1       3.263   4.766  17.560  0.00  0.00    +0.000 C 
BRANCH  21  22
ATOM     22  C   UNL     1       3.288   3.612  18.538  0.00  0.00    +0.000 C 
ATOM     23  O   UNL     1       4.262   2.894  18.717  0.00  0.00    +0.000 OA
BRANCH  22  24
ATOM     24  O   UNL     1       2.104   3.505  19.206  0.00  0.00    +0.000 OA
ATOM     25  C   UNL     1       1.660   2.171  19.481  0.00  0.00    +0.000 C 
ENDBRANCH  22  24
ENDBRANCH  21  22
ENDBRANCH   1  21
TORSDOF 8
ENDMDL
MODEL 6
REMARK VINA RESULT:      -7.1      2.403      5.934
REMARK  Name = 
REMARK  12 active torsions:
REMARK  status: ('A' for Active; 'I' for Inactive)
REMARK    1  A    between atoms: C_1  and  C_2
REMARK    2  A    between atoms: C_2  and  O_3
REMARK    3  A    between atoms: O_3  and  C_4
REMARK    4  A    between atoms: C_7  and  N_8
REMARK    5  A    between atoms: N_8  and  C_9
REMARK    6  A    between atoms: N_8  and  S_14
REMARK    7  A    between atoms: C_9  and  C_10
REMARK    8  A    between atoms: C_10  and  O_12
REMARK    9  A    between atoms: O_12  and  C_13
REMARK   10  A    between atoms: S_14  and  C_17
REMARK   11  A    between atoms: C_18  and  C_19
REMARK   12  A    between atoms: C_22  and  C_23
REMARK                            x       y       z     vdW  Elec       q    Type
REMARK                         _______ _______ _______ _____ _____    ______ ____
ROOT
ATOM      1  N   UNL     1       3.676   4.815  18.748  0.00  0.00    +0.000 N 
ENDROOT
BRANCH   1   5
ATOM      2  C   UNL     1       1.910   8.687  18.878  0.00  0.00    +0.000 A 
ATOM      3  C   UNL     1       1.802   7.827  19.975  0.00  0.00    +0.000 A 
ATOM      4  C   UNL     1       2.400   6.561  19.963  0.00  0.00    +0.000 A 
ATOM      5  C   UNL     1       3.115   6.141  18.841  0.00  0.00    +0.000 A 
ATOM      6  C   UNL     1       3.215   6.995  17.736  0.00  0.00    +0.000 A 
ATOM      7  C   UNL     1       2.621   8.267  17.756  0.00  0.00    +0.000 A 
BRANCH   2   8
ATOM      8  O   UNL     1       1.224   9.863  19.005  0.00  0.00    +0.000 OA
BRANCH   8  10
ATOM      9  C   UNL     1      -0.893  10.926  19.233  0.00  0.00    +0.000 C 
ATOM     10  C   UNL     1       0.030   9.849  19.787  0.00  0.00    +0.000 C 
ENDBRANCH   8  10
ENDBRANCH   2   8
ENDBRANCH   1   5
BRANCH   1  11
ATOM     11  S   UNL     1       5.390   4.759  18.858  0.00  0.00    +0.000 S 
ATOM     12  O   UNL     1       5.828   5.725  19.843  0.00  0.00    +0.000 OA
ATOM     13  O   UNL     1       5.830   3.379  18.915  0.00  0.00    +0.000 OA
BRANCH  11  14
ATOM     14  C   UNL     1       6.158   5.305  17.423  0.00  0.00    +0.000 A 
ATOM     15  C   UNL     1       5.996   4.919  16.074  0.00  0.00    +0.000 A 
ATOM     16  C   UNL     1       5.128   3.910  15.429  0.00  0.00    +0.000 C 
ATOM     17  N   UNL     1       6.808   5.626  15.277  0.00  0.00    +0.000 NA
ATOM     18  O   UNL     1       7.554   6.437  16.103  0.00  0.00    +0.000 OA
ATOM     19  C   UNL     1       7.181   6.230  17.392  0.00  0.00    +0.000 A 
ATOM     20  C   UNL     1       7.945   6.983  18.407  0.00  0.00    +0.000 C 
ENDBRANCH  11  14
ENDBRANCH   1  11
BRANCH   1  21
ATOM     21  C   UNL     1       3.053   3.826  17.820  0.00  0.00    +0.000 C 
BRANCH  21  22
ATOM     22  C   UNL     1       2.900   2.386  18.257  0.00  0.00    +0.000 C 
ATOM     23  O   UNL     1       3.571   1.465  17.809  0.00  0.00    +0.000 OA
BRANCH  22  24
ATOM     24  O   UNL     1       1.949   2.263  19.226  0.00  0.00    +0.000 OA
ATOM     25  C   UNL     1       0.682   2.868  18.939  0.00  0.00    +0.000 C 
ENDBRANCH  22  24
ENDBRANCH  21  22
ENDBRANCH   1  21
TORSDOF 8
ENDMDL
MODEL 7
REMARK VINA RESULT:      -7.1      2.376      6.009
REMARK  Name = 
REMARK  12 active torsions:
REMARK  status: ('A' for Active; 'I' for Inactive)
REMARK    1  A    between atoms: C_1  and  C_2
REMARK    2  A    between atoms: C_2  and  O_3
REMARK    3  A    between atoms: O_3  and  C_4
REMARK    4  A    between atoms: C_7  and  N_8
REMARK    5  A    between atoms: N_8  and  C_9
REMARK    6  A    between atoms: N_8  and  S_14
REMARK    7  A    between atoms: C_9  and  C_10
REMARK    8  A    between atoms: C_10  and  O_12
REMARK    9  A    between atoms: O_12  and  C_13
REMARK   10  A    between atoms: S_14  and  C_17
REMARK   11  A    between atoms: C_18  and  C_19
REMARK   12  A    between atoms: C_22  and  C_23
REMARK                            x       y       z     vdW  Elec       q    Type
REMARK                         _______ _______ _______ _____ _____    ______ ____
ROOT
ATOM      1  N   UNL     1       3.647   4.875  18.888  0.00  0.00    +0.000 N 
ENDROOT
BRANCH   1   5
ATOM      2  C   UNL     1       1.903   8.756  19.011  0.00  0.00    +0.000 A 
ATOM      3  C   UNL     1       1.822   7.913  20.123  0.00  0.00    +0.000 A 
ATOM      4  C   UNL     1       2.414   6.644  20.112  0.00  0.00    +0.000 A 
ATOM      5  C   UNL     1       3.095   6.205  18.977  0.00  0.00    +0.000 A 
ATOM      6  C   UNL     1       3.168   7.042  17.858  0.00  0.00    +0.000 A 
ATOM      7  C   UNL     1       2.581   8.317  17.876  0.00  0.00    +0.000 A 
BRANCH   2   8
ATOM      8  O   UNL     1       1.226   9.938  19.140  0.00  0.00    +0.000 OA
BRANCH   8  10
ATOM      9  C   UNL     1      -1.081  10.515  19.194  0.00  0.00    +0.000 C 
ATOM     10  C   UNL     1       0.091  10.143  18.299  0.00  0.00    +0.000 C 
ENDBRANCH   8  10
ENDBRANCH   2   8
ENDBRANCH   1   5
BRANCH   1  11
ATOM     11  S   UNL     1       5.364   4.812  18.952  0.00  0.00    +0.000 S 
ATOM     12  O   UNL     1       5.830   5.756  19.945  0.00  0.00    +0.000 OA
ATOM     13  O   UNL     1       5.799   3.429  18.971  0.00  0.00    +0.000 OA
BRANCH  11  14
ATOM     14  C   UNL     1       6.095   5.384  17.509  0.00  0.00    +0.000 A 
ATOM     15  C   UNL     1       5.872   5.051  16.155  0.00  0.00    +0.000 A 
ATOM     16  C   UNL     1       4.949   4.093  15.509  0.00  0.00    +0.000 C 
ATOM     17  N   UNL     1       6.676   5.760  15.353  0.00  0.00    +0.000 NA
ATOM     18  O   UNL     1       7.478   6.518  16.177  0.00  0.00    +0.000 OA
ATOM     19  C   UNL     1       7.146   6.277  17.471  0.00  0.00    +0.000 A 
ATOM     20  C   UNL     1       7.970   6.969  18.483  0.00  0.00    +0.000 C 
ENDBRANCH  11  14
ENDBRANCH   1  11
BRANCH   1  21
ATOM     21  C   UNL     1       2.995   3.876  17.992  0.00  0.00    +0.000 C 
BRANCH  21  22
ATOM     22  C   UNL     1       1.485   3.773  17.963  0.00  0.00    +0.000 C 
ATOM     23  O   UNL     1       0.792   4.213  17.055  0.00  0.00    +0.000 OA
BRANCH  22  24
ATOM     24  O   UNL     1       1.015   3.107  19.055  0.00  0.00    +0.000 OA
ATOM     25  C   UNL     1       1.616   1.833  19.317  0.00  0.00    +0.000 C 
ENDBRANCH  22  24
ENDBRANCH  21  22
ENDBRANCH   1  21
TORSDOF 8
ENDMDL
MODEL 8
REMARK VINA RESULT:      -7.0      2.835      6.132
REMARK  Name = 
REMARK  12 active torsions:
REMARK  status: ('A' for Active; 'I' for Inactive)
REMARK    1  A    between atoms: C_1  and  C_2
REMARK    2  A    between atoms: C_2  and  O_3
REMARK    3  A    between atoms: O_3  and  C_4
REMARK    4  A    between atoms: C_7  and  N_8
REMARK    5  A    between atoms: N_8  and  C_9
REMARK    6  A    between atoms: N_8  and  S_14
REMARK    7  A    between atoms: C_9  and  C_10
REMARK    8  A    between atoms: C_10  and  O_12
REMARK    9  A    between atoms: O_12  and  C_13
REMARK   10  A    between atoms: S_14  and  C_17
REMARK   11  A    between atoms: C_18  and  C_19
REMARK   12  A    between atoms: C_22  and  C_23
REMARK                            x       y       z     vdW  Elec       q    Type
REMARK                         _______ _______ _______ _____ _____    ______ ____
ROOT
ATOM      1  N   UNL     1       3.774   5.995  17.921  0.00  0.00    +0.000 N 
ENDROOT
BRANCH   1   5
ATOM      2  C   UNL     1       1.255   9.041  19.500  0.00  0.00    +0.000 A 
ATOM      3  C   UNL     1       1.636   9.071  18.156  0.00  0.00    +0.000 A 
ATOM      4  C   UNL     1       2.441   8.063  17.611  0.00  0.00    +0.000 A 
ATOM      5  C   UNL     1       2.876   7.010  18.415  0.00  0.00    +0.000 A 
ATOM      6  C   UNL     1       2.504   6.983  19.764  0.00  0.00    +0.000 A 
ATOM      7  C   UNL     1       1.690   7.992  20.305  0.00  0.00    +0.000 A 
BRANCH   2   8
ATOM      8  O   UNL     1       0.523  10.121  19.909  0.00  0.00    +0.000 OA
BRANCH   8  10
ATOM      9  C   UNL     1      -0.396  10.470  22.076  0.00  0.00    +0.000 C 
ATOM     10  C   UNL     1       0.823  10.676  21.189  0.00  0.00    +0.000 C 
ENDBRANCH   8  10
ENDBRANCH   2   8
ENDBRANCH   1   5
BRANCH   1  11
ATOM     11  S   UNL     1       5.160   6.606  17.108  0.00  0.00    +0.000 S 
ATOM     12  O   UNL     1       4.865   6.713  15.696  0.00  0.00    +0.000 OA
ATOM     13  O   UNL     1       5.701   7.729  17.848  0.00  0.00    +0.000 OA
BRANCH  11  14
ATOM     14  C   UNL     1       6.477   5.506  17.140  0.00  0.00    +0.000 A 
ATOM     15  C   UNL     1       7.400   5.185  18.160  0.00  0.00    +0.000 A 
ATOM     16  C   UNL     1       7.563   5.686  19.542  0.00  0.00    +0.000 C 
ATOM     17  N   UNL     1       8.265   4.253  17.742  0.00  0.00    +0.000 NA
ATOM     18  O   UNL     1       7.958   4.002  16.423  0.00  0.00    +0.000 OA
ATOM     19  C   UNL     1       6.900   4.768  16.054  0.00  0.00    +0.000 A 
ATOM     20  C   UNL     1       6.494   4.659  14.638  0.00  0.00    +0.000 C 
ENDBRANCH  11  14
ENDBRANCH   1  11
BRANCH   1  21
ATOM     21  C   UNL     1       3.208   4.727  17.374  0.00  0.00    +0.000 C 
BRANCH  21  22
ATOM     22  C   UNL     1       2.709   3.661  18.325  0.00  0.00    +0.000 C 
ATOM     23  O   UNL     1       1.587   3.658  18.814  0.00  0.00    +0.000 OA
BRANCH  22  24
ATOM     24  O   UNL     1       3.657   2.703  18.534  0.00  0.00    +0.000 OA
ATOM     25  C   UNL     1       4.506   2.903  19.671  0.00  0.00    +0.000 C 
ENDBRANCH  22  24
ENDBRANCH  21  22
ENDBRANCH   1  21
TORSDOF 8
ENDMDL
MODEL 9
REMARK VINA RESULT:      -7.0      2.338      5.777
REMARK  Name = 
REMARK  12 active torsions:
REMARK  status: ('A' for Active; 'I' for Inactive)
REMARK    1  A    between atoms: C_1  and  C_2
REMARK    2  A    between atoms: C_2  and  O_3
REMARK    3  A    between atoms: O_3  and  C_4
REMARK    4  A    between atoms: C_7  and  N_8
REMARK    5  A    between atoms: N_8  and  C_9
REMARK    6  A    between atoms: N_8  and  S_14
REMARK    7  A    between atoms: C_9  and  C_10
REMARK    8  A    between atoms: C_10  and  O_12
REMARK    9  A    between atoms: O_12  and  C_13
REMARK   10  A    between atoms: S_14  and  C_17
REMARK   11  A    between atoms: C_18  and  C_19
REMARK   12  A    between atoms: C_22  and  C_23
REMARK                            x       y       z     vdW  Elec       q    Type
REMARK                         _______ _______ _______ _____ _____    ______ ____
ROOT
ATOM      1  N   UNL     1       3.702   4.836  18.530  0.00  0.00    +0.000 N 
ENDROOT
BRANCH   1   5
ATOM      2  C   UNL     1       1.904   8.662  19.034  0.00  0.00    +0.000 A 
ATOM      3  C   UNL     1       1.840   7.715  20.060  0.00  0.00    +0.000 A 
ATOM      4  C   UNL     1       2.449   6.461  19.924  0.00  0.00    +0.000 A 
ATOM      5  C   UNL     1       3.131   6.143  18.750  0.00  0.00    +0.000 A 
ATOM      6  C   UNL     1       3.187   7.086  17.716  0.00  0.00    +0.000 A 
ATOM      7  C   UNL     1       2.581   8.344  17.859  0.00  0.00    +0.000 A 
BRANCH   2   8
ATOM      8  O   UNL     1       1.211   9.815  19.279  0.00  0.00    +0.000 OA
BRANCH   8  10
ATOM      9  C   UNL     1      -0.538  11.387  18.914  0.00  0.00    +0.000 C 
ATOM     10  C   UNL     1       0.222  10.207  18.327  0.00  0.00    +0.000 C 
ENDBRANCH   8  10
ENDBRANCH   2   8
ENDBRANCH   1   5
BRANCH   1  11
ATOM     11  S   UNL     1       5.396   4.746  18.800  0.00  0.00    +0.000 S 
ATOM     12  O   UNL     1       5.776   5.774  19.745  0.00  0.00    +0.000 OA
ATOM     13  O   UNL     1       5.784   3.363  19.002  0.00  0.00    +0.000 OA
BRANCH  11  14
ATOM     14  C   UNL     1       6.305   5.157  17.404  0.00  0.00    +0.000 A 
ATOM     15  C   UNL     1       7.123   6.273  17.119  0.00  0.00    +0.000 A 
ATOM     16  C   UNL     1       7.471   7.475  17.908  0.00  0.00    +0.000 C 
ATOM     17  N   UNL     1       7.651   6.174  15.892  0.00  0.00    +0.000 NA
ATOM     18  O   UNL     1       7.133   5.025  15.337  0.00  0.00    +0.000 OA
ATOM     19  C   UNL     1       6.309   4.425  16.235  0.00  0.00    +0.000 A 
ATOM     20  C   UNL     1       5.621   3.209  15.758  0.00  0.00    +0.000 C 
ENDBRANCH  11  14
ENDBRANCH   1  11
BRANCH   1  21
ATOM     21  C   UNL     1       3.176   3.991  17.418  0.00  0.00    +0.000 C 
BRANCH  21  22
ATOM     22  C   UNL     1       2.486   2.683  17.736  0.00  0.00    +0.000 C 
ATOM     23  O   UNL     1       3.060   1.602  17.767  0.00  0.00    +0.000 OA
BRANCH  22  24
ATOM     24  O   UNL     1       1.164   2.875  18.010  0.00  0.00    +0.000 OA
ATOM     25  C   UNL     1       0.799   2.822  19.395  0.00  0.00    +0.000 C 
ENDBRANCH  22  24
ENDBRANCH  21  22
ENDBRANCH   1  21
TORSDOF 8
ENDMDL
