MODEL 1
REMARK VINA RESULT:      -7.9      0.000      0.000
REMARK  Name = 
REMARK  3 active torsions:
REMARK  status: ('A' for Active; 'I' for Inactive)
REMARK    1  A    between atoms: C_7  and  C_8
REMARK    2  A    between atoms: C_8  and  O_9
REMARK    3  A    between atoms: O_9  and  C_10
REMARK                            x       y       z     vdW  Elec       q    Type
REMARK                         _______ _______ _______ _____ _____    ______ ____
ROOT
ATOM      1  C   UNL     1       2.307   7.725  18.876  0.00  0.00    +0.000 A 
ATOM      2  C   UNL     1       1.861   8.598  17.885  0.00  0.00    +0.000 A 
ATOM      3  C   UNL     1       1.003   9.655  18.205  0.00  0.00    +0.000 A 
ATOM      4  C   UNL     1       0.584   9.829  19.529  0.00  0.00    +0.000 A 
ATOM      5  C   UNL     1       1.001   8.937  20.529  0.00  0.00    +0.000 A 
ATOM      6  C   UNL     1       1.850   7.878  20.185  0.00  0.00    +0.000 A 
ATOM      7  C   UNL     1       0.579   9.062  21.968  0.00  0.00    +0.000 C 
ATOM      8  C   UNL     1      -0.318  10.241  22.332  0.00  0.00    +0.000 C 
ATOM      9  C   UNL     1      -0.699  11.115  21.195  0.00  0.00    +0.000 A 
ATOM     10  N   UNL     1      -1.472  12.179  21.270  0.00  0.00    +0.000 NA
ATOM     11  C   UNL     1      -1.541  12.666  19.995  0.00  0.00    +0.000 A 
ATOM     12  C   UNL     1      -0.801  11.891  19.134  0.00  0.00    +0.000 A 
ATOM     13  N   UNL     1      -0.261  10.892  19.907  0.00  0.00    +0.000 N 
ENDROOT
BRANCH   1  14
ATOM     14  O   UNL     1       3.184   6.756  18.474  0.00  0.00    +0.000 OA
BRANCH  14  15
ATOM     15  C   UNL     1       3.466   5.751  19.455  0.00  0.00    +0.000 C 
BRANCH  15  22
ATOM     16  F   UNL     1       1.294   4.885  21.063  0.00  0.00    +0.000 F 
ATOM     17  C   UNL     1       1.599   4.148  19.985  0.00  0.00    +0.000 A 
ATOM     18  C   UNL     1       0.857   3.000  19.728  0.00  0.00    +0.000 A 
ATOM     19  C   UNL     1       1.173   2.205  18.627  0.00  0.00    +0.000 A 
ATOM     20  C   UNL     1       2.231   2.563  17.791  0.00  0.00    +0.000 A 
ATOM     21  C   UNL     1       2.971   3.716  18.054  0.00  0.00    +0.000 A 
ATOM     22  C   UNL     1       2.652   4.527  19.152  0.00  0.00    +0.000 A 
ENDBRANCH  15  22
ENDBRANCH  14  15
ENDBRANCH   1  14
TORSDOF 3
ENDMDL
MODEL 2
REMARK VINA RESULT:      -7.8      1.007      1.438
REMARK  Name = 
REMARK  3 active torsions:
REMARK  status: ('A' for Active; 'I' for Inactive)
REMARK    1  A    between atoms: C_7  and  C_8
REMARK    2  A    between atoms: C_8  and  O_9
REMARK    3  A    between atoms: O_9  and  C_10
REMARK                            x       y       z     vdW  Elec       q    Type
REMARK                         _______ _______ _______ _____ _____    ______ ____
ROOT
ATOM      1  C   UNL     1       2.366   7.660  18.853  0.00  0.00    +0.000 A 
ATOM      2  C   UNL     1       1.956   8.539  17.853  0.00  0.00    +0.000 A 
ATOM      3  C   UNL     1       1.105   9.608  18.154  0.00  0.00    +0.000 A 
ATOM      4  C   UNL     1       0.659   9.788  19.468  0.00  0.00    +0.000 A 
ATOM      5  C   UNL     1       1.042   8.890  20.477  0.00  0.00    +0.000 A 
ATOM      6  C   UNL     1       1.882   7.819  20.152  0.00  0.00    +0.000 A 
ATOM      7  C   UNL     1       0.589   9.021  21.907  0.00  0.00    +0.000 C 
ATOM      8  C   UNL     1      -0.300  10.212  22.251  0.00  0.00    +0.000 C 
ATOM      9  C   UNL     1      -0.642  11.091  21.106  0.00  0.00    +0.000 A 
ATOM     10  N   UNL     1      -1.402  12.167  21.164  0.00  0.00    +0.000 NA
ATOM     11  C   UNL     1      -1.435  12.655  19.888  0.00  0.00    +0.000 A 
ATOM     12  C   UNL     1      -0.687  11.869  19.044  0.00  0.00    +0.000 A 
ATOM     13  N   UNL     1      -0.179  10.863  19.828  0.00  0.00    +0.000 N 
ENDROOT
BRANCH   1  14
ATOM     14  O   UNL     1       3.239   6.679  18.470  0.00  0.00    +0.000 OA
BRANCH  14  15
ATOM     15  C   UNL     1       3.534   5.706  19.479  0.00  0.00    +0.000 C 
BRANCH  15  22
ATOM     16  F   UNL     1       3.907   3.945  17.285  0.00  0.00    +0.000 F 
ATOM     17  C   UNL     1       2.917   3.663  18.144  0.00  0.00    +0.000 A 
ATOM     18  C   UNL     1       2.121   2.547  17.905  0.00  0.00    +0.000 A 
ATOM     19  C   UNL     1       1.071   2.248  18.772  0.00  0.00    +0.000 A 
ATOM     20  C   UNL     1       0.822   3.070  19.872  0.00  0.00    +0.000 A 
ATOM     21  C   UNL     1       1.624   4.187  20.107  0.00  0.00    +0.000 A 
ATOM     22  C   UNL     1       2.690   4.487  19.247  0.00  0.00    +0.000 A 
ENDBRANCH  15  22
ENDBRANCH  14  15
ENDBRANCH   1  14
TORSDOF 3
ENDMDL
MODEL 3
REMARK VINA RESULT:      -7.7      1.279      1.657
REMARK  Name = 
REMARK  3 active torsions:
REMARK  status: ('A' for Active; 'I' for Inactive)
REMARK    1  A    between atoms: C_7  and  C_8
REMARK    2  A    between atoms: C_8  and  O_9
REMARK    3  A    between atoms: O_9  and  C_10
REMARK                            x       y       z     vdW  Elec       q    Type
REMARK                         _______ _______ _______ _____ _____    ______ ____
ROOT
ATOM      1  C   UNL     1       2.340   7.565  18.919  0.00  0.00    +0.000 A 
ATOM      2  C   UNL     1       1.981   8.433  17.890  0.00  0.00    +0.000 A 
ATOM      3  C   UNL     1       1.175   9.546  18.152  0.00  0.00    +0.000 A 
ATOM      4  C   UNL     1       0.722   9.781  19.455  0.00  0.00    +0.000 A 
ATOM      5  C   UNL     1       1.052   8.895  20.492  0.00  0.00    +0.000 A 
ATOM      6  C   UNL     1       1.849   7.779  20.206  0.00  0.00    +0.000 A 
ATOM      7  C   UNL     1       0.589   9.084  21.912  0.00  0.00    +0.000 C 
ATOM      8  C   UNL     1      -0.251  10.322  22.213  0.00  0.00    +0.000 C 
ATOM      9  C   UNL     1      -0.540  11.184  21.040  0.00  0.00    +0.000 A 
ATOM     10  N   UNL     1      -1.252  12.293  21.060  0.00  0.00    +0.000 NA
ATOM     11  C   UNL     1      -1.249  12.747  19.771  0.00  0.00    +0.000 A 
ATOM     12  C   UNL     1      -0.527  11.907  18.957  0.00  0.00    +0.000 A 
ATOM     13  N   UNL     1      -0.072  10.901  19.775  0.00  0.00    +0.000 N 
ENDROOT
BRANCH   1  14
ATOM     14  O   UNL     1       3.173   6.536  18.573  0.00  0.00    +0.000 OA
BRANCH  14  15
ATOM     15  C   UNL     1       2.511   5.348  18.122  0.00  0.00    +0.000 C 
BRANCH  15  22
ATOM     16  F   UNL     1       4.704   3.741  18.937  0.00  0.00    +0.000 F 
ATOM     17  C   UNL     1       3.550   3.599  19.605  0.00  0.00    +0.000 A 
ATOM     18  C   UNL     1       3.483   2.667  20.636  0.00  0.00    +0.000 A 
ATOM     19  C   UNL     1       2.287   2.485  21.328  0.00  0.00    +0.000 A 
ATOM     20  C   UNL     1       1.163   3.236  20.982  0.00  0.00    +0.000 A 
ATOM     21  C   UNL     1       1.236   4.170  19.949  0.00  0.00    +0.000 A 
ATOM     22  C   UNL     1       2.439   4.367  19.256  0.00  0.00    +0.000 A 
ENDBRANCH  15  22
ENDBRANCH  14  15
ENDBRANCH   1  14
TORSDOF 3
ENDMDL
MODEL 4
REMARK VINA RESULT:      -7.7      2.616      4.296
REMARK  Name = 
REMARK  3 active torsions:
REMARK  status: ('A' for Active; 'I' for Inactive)
REMARK    1  A    between atoms: C_7  and  C_8
REMARK    2  A    between atoms: C_8  and  O_9
REMARK    3  A    between atoms: O_9  and  C_10
REMARK                            x       y       z     vdW  Elec       q    Type
REMARK                         _______ _______ _______ _____ _____    ______ ____
ROOT
ATOM      1  C   UNL     1       2.810   5.161  18.950  0.00  0.00    +0.000 A 
ATOM      2  C   UNL     1       2.368   5.218  20.270  0.00  0.00    +0.000 A 
ATOM      3  C   UNL     1       1.835   6.403  20.788  0.00  0.00    +0.000 A 
ATOM      4  C   UNL     1       1.754   7.539  19.974  0.00  0.00    +0.000 A 
ATOM      5  C   UNL     1       2.226   7.500  18.653  0.00  0.00    +0.000 A 
ATOM      6  C   UNL     1       2.768   6.309  18.158  0.00  0.00    +0.000 A 
ATOM      7  C   UNL     1       2.177   8.689  17.730  0.00  0.00    +0.000 C 
ATOM      8  C   UNL     1       1.553   9.970  18.274  0.00  0.00    +0.000 C 
ATOM      9  C   UNL     1       1.093   9.895  19.683  0.00  0.00    +0.000 A 
ATOM     10  N   UNL     1       0.537  10.878  20.362  0.00  0.00    +0.000 NA
ATOM     11  C   UNL     1       0.275  10.359  21.599  0.00  0.00    +0.000 A 
ATOM     12  C   UNL     1       0.676   9.046  21.674  0.00  0.00    +0.000 A 
ATOM     13  N   UNL     1       1.203   8.749  20.441  0.00  0.00    +0.000 N 
ENDROOT
BRANCH   1  14
ATOM     14  O   UNL     1       3.266   3.944  18.520  0.00  0.00    +0.000 OA
BRANCH  14  15
ATOM     15  C   UNL     1       4.576   3.593  18.981  0.00  0.00    +0.000 C 
BRANCH  15  22
ATOM     16  F   UNL     1       5.049   3.711  16.186  0.00  0.00    +0.000 F 
ATOM     17  C   UNL     1       5.773   4.522  16.971  0.00  0.00    +0.000 A 
ATOM     18  C   UNL     1       6.721   5.352  16.382  0.00  0.00    +0.000 A 
ATOM     19  C   UNL     1       7.502   6.186  17.182  0.00  0.00    +0.000 A 
ATOM     20  C   UNL     1       7.331   6.181  18.566  0.00  0.00    +0.000 A 
ATOM     21  C   UNL     1       6.377   5.347  19.151  0.00  0.00    +0.000 A 
ATOM     22  C   UNL     1       5.580   4.515  18.353  0.00  0.00    +0.000 A 
ENDBRANCH  15  22
ENDBRANCH  14  15
ENDBRANCH   1  14
TORSDOF 3
ENDMDL
MODEL 5
REMARK VINA RESULT:      -7.7      2.502      4.091
REMARK  Name = 
REMARK  3 active torsions:
REMARK  status: ('A' for Active; 'I' for Inactive)
REMARK    1  A    between atoms: C_7  and  C_8
REMARK    2  A    between atoms: C_8  and  O_9
REMARK    3  A    between atoms: O_9  and  C_10
REMARK                            x       y       z     vdW  Elec       q    Type
REMARK                         _______ _______ _______ _____ _____    ______ ____
ROOT
ATOM      1  C   UNL     1       2.680   5.099  18.932  0.00  0.00    +0.000 A 
ATOM      2  C   UNL     1       2.267   5.178  20.260  0.00  0.00    +0.000 A 
ATOM      3  C   UNL     1       1.787   6.384  20.782  0.00  0.00    +0.000 A 
ATOM      4  C   UNL     1       1.730   7.518  19.964  0.00  0.00    +0.000 A 
ATOM      5  C   UNL     1       2.174   7.457  18.634  0.00  0.00    +0.000 A 
ATOM      6  C   UNL     1       2.663   6.244  18.135  0.00  0.00    +0.000 A 
ATOM      7  C   UNL     1       2.149   8.642  17.706  0.00  0.00    +0.000 C 
ATOM      8  C   UNL     1       1.582   9.947  18.255  0.00  0.00    +0.000 C 
ATOM      9  C   UNL     1       1.148   9.895  19.673  0.00  0.00    +0.000 A 
ATOM     10  N   UNL     1       0.641  10.901  20.358  0.00  0.00    +0.000 NA
ATOM     11  C   UNL     1       0.386  10.398  21.603  0.00  0.00    +0.000 A 
ATOM     12  C   UNL     1       0.741   9.071  21.677  0.00  0.00    +0.000 A 
ATOM     13  N   UNL     1       1.233   8.750  20.436  0.00  0.00    +0.000 N 
ENDROOT
BRANCH   1  14
ATOM     14  O   UNL     1       3.083   3.865  18.500  0.00  0.00    +0.000 OA
BRANCH  14  15
ATOM     15  C   UNL     1       4.426   3.512  18.851  0.00  0.00    +0.000 C 
BRANCH  15  22
ATOM     16  F   UNL     1       6.312   5.462  19.686  0.00  0.00    +0.000 F 
ATOM     17  C   UNL     1       6.275   5.155  18.381  0.00  0.00    +0.000 A 
ATOM     18  C   UNL     1       7.138   5.817  17.513  0.00  0.00    +0.000 A 
ATOM     19  C   UNL     1       7.100   5.531  16.149  0.00  0.00    +0.000 A 
ATOM     20  C   UNL     1       6.196   4.587  15.661  0.00  0.00    +0.000 A 
ATOM     21  C   UNL     1       5.334   3.926  16.536  0.00  0.00    +0.000 A 
ATOM     22  C   UNL     1       5.375   4.198  17.911  0.00  0.00    +0.000 A 
ENDBRANCH  15  22
ENDBRANCH  14  15
ENDBRANCH   1  14
TORSDOF 3
ENDMDL
MODEL 6
REMARK VINA RESULT:      -7.6      1.155      1.390
REMARK  Name = 
REMARK  3 active torsions:
REMARK  status: ('A' for Active; 'I' for Inactive)
REMARK    1  A    between atoms: C_7  and  C_8
REMARK    2  A    between atoms: C_8  and  O_9
REMARK    3  A    between atoms: O_9  and  C_10
REMARK                            x       y       z     vdW  Elec       q    Type
REMARK                         _______ _______ _______ _____ _____    ______ ____
ROOT
ATOM      1  C   UNL     1       2.689   7.482  18.873  0.00  0.00    +0.000 A 
ATOM      2  C   UNL     1       2.333   8.303  17.805  0.00  0.00    +0.000 A 
ATOM      3  C   UNL     1       1.410   9.339  17.984  0.00  0.00    +0.000 A 
ATOM      4  C   UNL     1       0.837   9.545  19.244  0.00  0.00    +0.000 A 
ATOM      5  C   UNL     1       1.165   8.705  20.319  0.00  0.00    +0.000 A 
ATOM      6  C   UNL     1       2.080   7.665  20.115  0.00  0.00    +0.000 A 
ATOM      7  C   UNL     1       0.577   8.866  21.695  0.00  0.00    +0.000 C 
ATOM      8  C   UNL     1      -0.393  10.024  21.908  0.00  0.00    +0.000 C 
ATOM      9  C   UNL     1      -0.668  10.842  20.702  0.00  0.00    +0.000 A 
ATOM     10  N   UNL     1      -1.478  11.880  20.647  0.00  0.00    +0.000 NA
ATOM     11  C   UNL     1      -1.415  12.319  19.354  0.00  0.00    +0.000 A 
ATOM     12  C   UNL     1      -0.558  11.541  18.613  0.00  0.00    +0.000 A 
ATOM     13  N   UNL     1      -0.078  10.590  19.481  0.00  0.00    +0.000 N 
ENDROOT
BRANCH   1  14
ATOM     14  O   UNL     1       3.637   6.532  18.612  0.00  0.00    +0.000 OA
BRANCH  14  15
ATOM     15  C   UNL     1       3.170   5.402  17.865  0.00  0.00    +0.000 C 
BRANCH  15  22
ATOM     16  F   UNL     1       0.693   4.106  17.374  0.00  0.00    +0.000 F 
ATOM     17  C   UNL     1       1.331   3.811  18.516  0.00  0.00    +0.000 A 
ATOM     18  C   UNL     1       0.741   2.912  19.399  0.00  0.00    +0.000 A 
ATOM     19  C   UNL     1       1.374   2.609  20.603  0.00  0.00    +0.000 A 
ATOM     20  C   UNL     1       2.593   3.210  20.918  0.00  0.00    +0.000 A 
ATOM     21  C   UNL     1       3.181   4.109  20.028  0.00  0.00    +0.000 A 
ATOM     22  C   UNL     1       2.556   4.410  18.810  0.00  0.00    +0.000 A 
ENDBRANCH  15  22
ENDBRANCH  14  15
ENDBRANCH   1  14
TORSDOF 3
ENDMDL
MODEL 7
REMARK VINA RESULT:      -7.6      2.687      4.356
REMARK  Name = 
REMARK  3 active torsions:
REMARK  status: ('A' for Active; 'I' for Inactive)
REMARK    1  A    between atoms: C_7  and  C_8
REMARK    2  A    between atoms: C_8  and  O_9
REMARK    3  A    between atoms: O_9  and  C_10
REMARK                            x       y       z     vdW  Elec       q    Type
REMARK                         _______ _______ _______ _____ _____    ______ ____
ROOT
ATOM      1  C   UNL     1       2.875   5.645  18.761  0.00  0.00    +0.000 A 
ATOM      2  C   UNL     1       2.480   5.560  20.095  0.00  0.00    +0.000 A 
ATOM      3  C   UNL     1       1.881   6.654  20.727  0.00  0.00    +0.000 A 
ATOM      4  C   UNL     1       1.685   7.843  20.015  0.00  0.00    +0.000 A 
ATOM      5  C   UNL     1       2.109   7.949  18.681  0.00  0.00    +0.000 A 
ATOM      6  C   UNL     1       2.719   6.847  18.071  0.00  0.00    +0.000 A 
ATOM      7  C   UNL     1       1.938   9.201  17.863  0.00  0.00    +0.000 C 
ATOM      8  C   UNL     1       1.241  10.382  18.532  0.00  0.00    +0.000 C 
ATOM      9  C   UNL     1       0.841  10.158  19.943  0.00  0.00    +0.000 A 
ATOM     10  N   UNL     1       0.239  11.036  20.720  0.00  0.00    +0.000 NA
ATOM     11  C   UNL     1       0.063  10.400  21.916  0.00  0.00    +0.000 A 
ATOM     12  C   UNL     1       0.563   9.120  21.869  0.00  0.00    +0.000 A 
ATOM     13  N   UNL     1       1.064   8.966  20.599  0.00  0.00    +0.000 N 
ENDROOT
BRANCH   1  14
ATOM     14  O   UNL     1       3.404   4.506  18.217  0.00  0.00    +0.000 OA
BRANCH  14  15
ATOM     15  C   UNL     1       4.292   4.720  17.114  0.00  0.00    +0.000 C 
BRANCH  15  22
ATOM     16  F   UNL     1       5.401   6.989  15.820  0.00  0.00    +0.000 F 
ATOM     17  C   UNL     1       6.022   6.538  16.919  0.00  0.00    +0.000 A 
ATOM     18  C   UNL     1       7.176   7.185  17.350  0.00  0.00    +0.000 A 
ATOM     19  C   UNL     1       7.852   6.719  18.477  0.00  0.00    +0.000 A 
ATOM     20  C   UNL     1       7.370   5.604  19.164  0.00  0.00    +0.000 A 
ATOM     21  C   UNL     1       6.212   4.960  18.728  0.00  0.00    +0.000 A 
ATOM     22  C   UNL     1       5.520   5.431  17.604  0.00  0.00    +0.000 A 
ENDBRANCH  15  22
ENDBRANCH  14  15
ENDBRANCH   1  14
TORSDOF 3
ENDMDL
MODEL 8
REMARK VINA RESULT:      -7.6      5.184      7.373
REMARK  Name = 
REMARK  3 active torsions:
REMARK  status: ('A' for Active; 'I' for Inactive)
REMARK    1  A    between atoms: C_7  and  C_8
REMARK    2  A    between atoms: C_8  and  O_9
REMARK    3  A    between atoms: O_9  and  C_10
REMARK                            x       y       z     vdW  Elec       q    Type
REMARK                         _______ _______ _______ _____ _____    ______ ____
ROOT
ATOM      1  C   UNL     1       5.188   5.599  16.784  0.00  0.00    +0.000 A 
ATOM      2  C   UNL     1       5.475   4.283  17.143  0.00  0.00    +0.000 A 
ATOM      3  C   UNL     1       4.808   3.679  18.214  0.00  0.00    +0.000 A 
ATOM      4  C   UNL     1       3.852   4.406  18.932  0.00  0.00    +0.000 A 
ATOM      5  C   UNL     1       3.579   5.742  18.599  0.00  0.00    +0.000 A 
ATOM      6  C   UNL     1       4.267   6.332  17.533  0.00  0.00    +0.000 A 
ATOM      7  C   UNL     1       2.571   6.582  19.338  0.00  0.00    +0.000 C 
ATOM      8  C   UNL     1       1.806   5.913  20.476  0.00  0.00    +0.000 C 
ATOM      9  C   UNL     1       2.181   4.502  20.741  0.00  0.00    +0.000 A 
ATOM     10  N   UNL     1       1.663   3.733  21.678  0.00  0.00    +0.000 NA
ATOM     11  C   UNL     1       2.297   2.530  21.548  0.00  0.00    +0.000 A 
ATOM     12  C   UNL     1       3.211   2.565  20.521  0.00  0.00    +0.000 A 
ATOM     13  N   UNL     1       3.136   3.835  20.003  0.00  0.00    +0.000 N 
ENDROOT
BRANCH   1  14
ATOM     14  O   UNL     1       5.854   6.083  15.692  0.00  0.00    +0.000 OA
BRANCH  14  15
ATOM     15  C   UNL     1       7.062   5.388  15.364  0.00  0.00    +0.000 C 
BRANCH  15  22
ATOM     16  F   UNL     1       8.667   6.035  13.114  0.00  0.00    +0.000 F 
ATOM     17  C   UNL     1       7.718   5.101  12.950  0.00  0.00    +0.000 A 
ATOM     18  C   UNL     1       7.559   4.521  11.696  0.00  0.00    +0.000 A 
ATOM     19  C   UNL     1       6.564   3.566  11.497  0.00  0.00    +0.000 A 
ATOM     20  C   UNL     1       5.732   3.198  12.554  0.00  0.00    +0.000 A 
ATOM     21  C   UNL     1       5.897   3.782  13.810  0.00  0.00    +0.000 A 
ATOM     22  C   UNL     1       6.903   4.734  14.022  0.00  0.00    +0.000 A 
ENDBRANCH  15  22
ENDBRANCH  14  15
ENDBRANCH   1  14
TORSDOF 3
ENDMDL
MODEL 9
REMARK VINA RESULT:      -7.6      2.656      4.321
REMARK  Name = 
REMARK  3 active torsions:
REMARK  status: ('A' for Active; 'I' for Inactive)
REMARK    1  A    between atoms: C_7  and  C_8
REMARK    2  A    between atoms: C_8  and  O_9
REMARK    3  A    between atoms: O_9  and  C_10
REMARK                            x       y       z     vdW  Elec       q    Type
REMARK                         _______ _______ _______ _____ _____    ______ ____
ROOT
ATOM      1  C   UNL     1       3.070   5.994  18.328  0.00  0.00    +0.000 A 
ATOM      2  C   UNL     1       2.735   5.734  19.655  0.00  0.00    +0.000 A 
ATOM      3  C   UNL     1       2.080   6.703  20.424  0.00  0.00    +0.000 A 
ATOM      4  C   UNL     1       1.769   7.943  19.855  0.00  0.00    +0.000 A 
ATOM      5  C   UNL     1       2.131   8.226  18.529  0.00  0.00    +0.000 A 
ATOM      6  C   UNL     1       2.798   7.248  17.781  0.00  0.00    +0.000 A 
ATOM      7  C   UNL     1       1.836   9.543  17.861  0.00  0.00    +0.000 C 
ATOM      8  C   UNL     1       1.079  10.586  18.679  0.00  0.00    +0.000 C 
ATOM      9  C   UNL     1       0.753  10.178  20.068  0.00  0.00    +0.000 A 
ATOM     10  N   UNL     1       0.117  10.917  20.955  0.00  0.00    +0.000 NA
ATOM     11  C   UNL     1       0.036  10.142  22.078  0.00  0.00    +0.000 A 
ATOM     12  C   UNL     1       0.628   8.918  21.873  0.00  0.00    +0.000 A 
ATOM     13  N   UNL     1       1.089   8.943  20.579  0.00  0.00    +0.000 N 
ENDROOT
BRANCH   1  14
ATOM     14  O   UNL     1       3.660   4.966  17.645  0.00  0.00    +0.000 OA
BRANCH  14  15
ATOM     15  C   UNL     1       4.619   5.369  16.659  0.00  0.00    +0.000 C 
BRANCH  15  22
ATOM     16  F   UNL     1       5.876   3.948  18.771  0.00  0.00    +0.000 F 
ATOM     17  C   UNL     1       6.429   5.108  18.390  0.00  0.00    +0.000 A 
ATOM     18  C   UNL     1       7.564   5.559  19.056  0.00  0.00    +0.000 A 
ATOM     19  C   UNL     1       8.143   6.774  18.692  0.00  0.00    +0.000 A 
ATOM     20  C   UNL     1       7.580   7.533  17.666  0.00  0.00    +0.000 A 
ATOM     21  C   UNL     1       6.442   7.075  17.001  0.00  0.00    +0.000 A 
ATOM     22  C   UNL     1       5.862   5.848  17.352  0.00  0.00    +0.000 A 
ENDBRANCH  15  22
ENDBRANCH  14  15
ENDBRANCH   1  14
TORSDOF 3
ENDMDL
