MODEL 1
REMARK VINA RESULT:      -8.9      0.000      0.000
REMARK  Name = 
REMARK  7 active torsions:
REMARK  status: ('A' for Active; 'I' for Inactive)
REMARK    1  A    between atoms: N_1  and  C_2
REMARK    2  A    between atoms: C_6  and  O_7
REMARK    3  A    between atoms: O_7  and  C_8
REMARK    4  A    between atoms: C_11  and  N_12
REMARK    5  A    between atoms: C_16  and  C_17
REMARK    6  A    between atoms: N_19  and  C_20
REMARK    7  A    between atoms: C_20  and  C_21
REMARK                            x       y       z     vdW  Elec       q    Type
REMARK                         _______ _______ _______ _____ _____    ______ ____
ROOT
ATOM      1  N   UNL     1       0.426  10.728  18.695  0.00  0.00    +0.000 N 
ATOM      2  C   UNL     1       1.032  11.969  18.813  0.00  0.00    +0.000 A 
ATOM      3  C   UNL     1       0.356  13.100  18.586  0.00  0.00    +0.000 A 
ATOM      4  C   UNL     1      -1.057  13.048  18.316  0.00  0.00    +0.000 A 
ATOM      5  C   UNL     1      -1.710  11.875  18.217  0.00  0.00    +0.000 A 
ATOM      6  C   UNL     1      -0.930  10.601  18.334  0.00  0.00    +0.000 A 
ATOM      7  O   UNL     1      -1.502   9.522  18.158  0.00  0.00    +0.000 OA
ENDROOT
BRANCH   1  11
ATOM      8  C   UNL     1       2.504   7.133  19.486  0.00  0.00    +0.000 A 
ATOM      9  C   UNL     1       2.595   7.725  18.225  0.00  0.00    +0.000 A 
ATOM     10  C   UNL     1       1.911   8.914  17.965  0.00  0.00    +0.000 A 
ATOM     11  C   UNL     1       1.152   9.533  18.967  0.00  0.00    +0.000 A 
ATOM     12  C   UNL     1       1.055   8.938  20.226  0.00  0.00    +0.000 A 
ATOM     13  C   UNL     1       1.686   7.720  20.457  0.00  0.00    +0.000 A 
ATOM     14  F   UNL     1       1.494   7.133  21.649  0.00  0.00    +0.000 F 
BRANCH   8  15
ATOM     15  O   UNL     1       3.217   5.966  19.657  0.00  0.00    +0.000 OA
BRANCH  15  20
ATOM     16  C   UNL     1       1.754   2.866  18.385  0.00  0.00    +0.000 A 
ATOM     17  N   UNL     1       2.438   2.658  17.240  0.00  0.00    +0.000 NA
ATOM     18  C   UNL     1       3.341   3.592  16.875  0.00  0.00    +0.000 A 
ATOM     19  C   UNL     1       3.603   4.733  17.604  0.00  0.00    +0.000 A 
ATOM     20  C   UNL     1       2.951   4.899  18.826  0.00  0.00    +0.000 A 
ATOM     21  C   UNL     1       1.972   3.976  19.208  0.00  0.00    +0.000 A 
ATOM     22 CL   UNL     1       1.035   4.214  20.644  0.00  0.00    +0.000 Cl
BRANCH  16  23
ATOM     23  N   UNL     1       0.857   1.849  18.715  0.00  0.00    +0.000 N 
ATOM     24  H   UNL     1       0.197   2.225  19.390  0.00  0.00    +0.000 HD
ATOM     25  H   UNL     1       1.329   1.012  19.034  0.00  0.00    +0.000 HD
ENDBRANCH  16  23
ENDBRANCH  15  20
ENDBRANCH   8  15
ENDBRANCH   1  11
BRANCH   5  26
ATOM     26  C   UNL     1      -3.195  11.914  18.040  0.00  0.00    +0.000 C 
ATOM     27  O   UNL     1      -3.722  11.617  16.971  0.00  0.00    +0.000 OA
ATOM     28  N   UNL     1      -3.907  12.312  19.138  0.00  0.00    +0.000 N 
ATOM     29  H   UNL     1      -3.398  12.579  19.981  0.00  0.00    +0.000 HD
BRANCH  28  30
ATOM     30  C   UNL     1      -5.342  12.436  19.155  0.00  0.00    +0.000 C 
BRANCH  30  31
ATOM     31  C   UNL     1      -5.855  12.536  20.570  0.00  0.00    +0.000 A 
ATOM     32  C   UNL     1      -4.980  12.869  21.617  0.00  0.00    +0.000 A 
ATOM     33  C   UNL     1      -5.454  12.979  22.924  0.00  0.00    +0.000 A 
ATOM     34  C   UNL     1      -6.797  12.740  23.190  0.00  0.00    +0.000 A 
ATOM     35  F   UNL     1      -7.254  12.859  24.443  0.00  0.00    +0.000 F 
ATOM     36  C   UNL     1      -7.673  12.378  22.173  0.00  0.00    +0.000 A 
ATOM     37  C   UNL     1      -7.202  12.271  20.863  0.00  0.00    +0.000 A 
ENDBRANCH  30  31
ENDBRANCH  28  30
ENDBRANCH   5  26
TORSDOF 7
ENDMDL
MODEL 2
REMARK VINA RESULT:      -8.8      1.042      1.606
REMARK  Name = 
REMARK  7 active torsions:
REMARK  status: ('A' for Active; 'I' for Inactive)
REMARK    1  A    between atoms: N_1  and  C_2
REMARK    2  A    between atoms: C_6  and  O_7
REMARK    3  A    between atoms: O_7  and  C_8
REMARK    4  A    between atoms: C_11  and  N_12
REMARK    5  A    between atoms: C_16  and  C_17
REMARK    6  A    between atoms: N_19  and  C_20
REMARK    7  A    between atoms: C_20  and  C_21
REMARK                            x       y       z     vdW  Elec       q    Type
REMARK                         _______ _______ _______ _____ _____    ______ ____
ROOT
ATOM      1  N   UNL     1       0.423  10.672  18.650  0.00  0.00    +0.000 N 
ATOM      2  C   UNL     1       0.994  11.926  18.803  0.00  0.00    +0.000 A 
ATOM      3  C   UNL     1       0.303  13.042  18.551  0.00  0.00    +0.000 A 
ATOM      4  C   UNL     1      -1.094  12.960  18.214  0.00  0.00    +0.000 A 
ATOM      5  C   UNL     1      -1.715  11.774  18.080  0.00  0.00    +0.000 A 
ATOM      6  C   UNL     1      -0.912  10.516  18.226  0.00  0.00    +0.000 A 
ATOM      7  O   UNL     1      -1.450   9.426  18.018  0.00  0.00    +0.000 OA
ENDROOT
BRANCH   1  11
ATOM      8  C   UNL     1       2.541   7.121  19.528  0.00  0.00    +0.000 A 
ATOM      9  C   UNL     1       2.571   7.645  18.235  0.00  0.00    +0.000 A 
ATOM     10  C   UNL     1       1.873   8.820  17.946  0.00  0.00    +0.000 A 
ATOM     11  C   UNL     1       1.163   9.491  18.949  0.00  0.00    +0.000 A 
ATOM     12  C   UNL     1       1.127   8.963  20.241  0.00  0.00    +0.000 A 
ATOM     13  C   UNL     1       1.770   7.759  20.505  0.00  0.00    +0.000 A 
ATOM     14  F   UNL     1       1.636   7.235  21.734  0.00  0.00    +0.000 F 
BRANCH   8  15
ATOM     15  O   UNL     1       3.263   5.963  19.726  0.00  0.00    +0.000 OA
BRANCH  15  20
ATOM     16  C   UNL     1       2.614   2.484  18.806  0.00  0.00    +0.000 A 
ATOM     17  N   UNL     1       1.337   2.302  19.203  0.00  0.00    +0.000 NA
ATOM     18  C   UNL     1       0.726   3.328  19.831  0.00  0.00    +0.000 A 
ATOM     19  C   UNL     1       1.328   4.543  20.081  0.00  0.00    +0.000 A 
ATOM     20  C   UNL     1       2.620   4.751  19.596  0.00  0.00    +0.000 A 
ATOM     21  C   UNL     1       3.299   3.691  18.987  0.00  0.00    +0.000 A 
ATOM     22 CL   UNL     1       4.951   3.855  18.497  0.00  0.00    +0.000 Cl
BRANCH  16  23
ATOM     23  N   UNL     1       3.174   1.392  18.142  0.00  0.00    +0.000 N 
ATOM     24  H   UNL     1       3.470   0.721  18.845  0.00  0.00    +0.000 HD
ATOM     25  H   UNL     1       3.917   1.670  17.511  0.00  0.00    +0.000 HD
ENDBRANCH  16  23
ENDBRANCH  15  20
ENDBRANCH   8  15
ENDBRANCH   1  11
BRANCH   5  26
ATOM     26  C   UNL     1      -3.190  11.780  17.834  0.00  0.00    +0.000 C 
ATOM     27  O   UNL     1      -3.666  11.389  16.771  0.00  0.00    +0.000 OA
ATOM     28  N   UNL     1      -3.955  12.258  18.863  0.00  0.00    +0.000 N 
ATOM     29  H   UNL     1      -3.487  12.599  19.702  0.00  0.00    +0.000 HD
BRANCH  28  30
ATOM     30  C   UNL     1      -5.390  12.366  18.805  0.00  0.00    +0.000 C 
BRANCH  30  31
ATOM     31  C   UNL     1      -5.980  12.409  20.192  0.00  0.00    +0.000 A 
ATOM     32  C   UNL     1      -7.297  11.976  20.413  0.00  0.00    +0.000 A 
ATOM     33  C   UNL     1      -7.841  11.998  21.698  0.00  0.00    +0.000 A 
ATOM     34  C   UNL     1      -7.077  12.467  22.759  0.00  0.00    +0.000 A 
ATOM     35  F   UNL     1      -7.594  12.475  23.994  0.00  0.00    +0.000 F 
ATOM     36  C   UNL     1      -5.781  12.929  22.557  0.00  0.00    +0.000 A 
ATOM     37  C   UNL     1      -5.234  12.906  21.273  0.00  0.00    +0.000 A 
ENDBRANCH  30  31
ENDBRANCH  28  30
ENDBRANCH   5  26
TORSDOF 7
ENDMDL
MODEL 3
REMARK VINA RESULT:      -8.7      2.746      3.824
REMARK  Name = 
REMARK  7 active torsions:
REMARK  status: ('A' for Active; 'I' for Inactive)
REMARK    1  A    between atoms: N_1  and  C_2
REMARK    2  A    between atoms: C_6  and  O_7
REMARK    3  A    between atoms: O_7  and  C_8
REMARK    4  A    between atoms: C_11  and  N_12
REMARK    5  A    between atoms: C_16  and  C_17
REMARK    6  A    between atoms: N_19  and  C_20
REMARK    7  A    between atoms: C_20  and  C_21
REMARK                            x       y       z     vdW  Elec       q    Type
REMARK                         _______ _______ _______ _____ _____    ______ ____
ROOT
ATOM      1  N   UNL     1       1.408   8.478  20.215  0.00  0.00    +0.000 N 
ATOM      2  C   UNL     1       1.452   8.453  21.601  0.00  0.00    +0.000 A 
ATOM      3  C   UNL     1       0.892   9.422  22.334  0.00  0.00    +0.000 A 
ATOM      4  C   UNL     1       0.135  10.462  21.688  0.00  0.00    +0.000 A 
ATOM      5  C   UNL     1       0.029  10.525  20.348  0.00  0.00    +0.000 A 
ATOM      6  C   UNL     1       0.769   9.521  19.517  0.00  0.00    +0.000 A 
ATOM      7  O   UNL     1       0.752   9.622  18.287  0.00  0.00    +0.000 OA
ENDROOT
BRANCH   1  11
ATOM      8  C   UNL     1       3.038   5.341  17.899  0.00  0.00    +0.000 A 
ATOM      9  C   UNL     1       3.215   6.665  17.496  0.00  0.00    +0.000 A 
ATOM     10  C   UNL     1       2.678   7.701  18.264  0.00  0.00    +0.000 A 
ATOM     11  C   UNL     1       1.985   7.425  19.448  0.00  0.00    +0.000 A 
ATOM     12  C   UNL     1       1.802   6.100  19.848  0.00  0.00    +0.000 A 
ATOM     13  C   UNL     1       2.283   5.071  19.045  0.00  0.00    +0.000 A 
ATOM     14  F   UNL     1       2.007   3.810  19.413  0.00  0.00    +0.000 F 
BRANCH   8  15
ATOM     15  O   UNL     1       3.607   4.382  17.087  0.00  0.00    +0.000 OA
BRANCH  15  20
ATOM     16  C   UNL     1       7.248   4.595  17.348  0.00  0.00    +0.000 A 
ATOM     17  N   UNL     1       7.622   4.896  16.086  0.00  0.00    +0.000 NA
ATOM     18  C   UNL     1       6.656   4.964  15.148  0.00  0.00    +0.000 A 
ATOM     19  C   UNL     1       5.318   4.750  15.406  0.00  0.00    +0.000 A 
ATOM     20  C   UNL     1       4.930   4.521  16.727  0.00  0.00    +0.000 A 
ATOM     21  C   UNL     1       5.912   4.393  17.715  0.00  0.00    +0.000 A 
ATOM     22 CL   UNL     1       5.493   3.966  19.338  0.00  0.00    +0.000 Cl
BRANCH  16  23
ATOM     23  N   UNL     1       8.294   4.567  18.270  0.00  0.00    +0.000 N 
ATOM     24  H   UNL     1       7.926   4.874  19.166  0.00  0.00    +0.000 HD
ATOM     25  H   UNL     1       9.094   5.104  17.956  0.00  0.00    +0.000 HD
ENDBRANCH  16  23
ENDBRANCH  15  20
ENDBRANCH   8  15
ENDBRANCH   1  11
BRANCH   5  26
ATOM     26  C   UNL     1      -0.863  11.574  19.765  0.00  0.00    +0.000 C 
ATOM     27  O   UNL     1      -0.767  12.754  20.094  0.00  0.00    +0.000 OA
ATOM     28  N   UNL     1      -1.786  11.124  18.861  0.00  0.00    +0.000 N 
ATOM     29  H   UNL     1      -1.831  10.124  18.664  0.00  0.00    +0.000 HD
BRANCH  28  30
ATOM     30  C   UNL     1      -2.748  11.978  18.213  0.00  0.00    +0.000 C 
BRANCH  30  31
ATOM     31  C   UNL     1      -4.133  11.733  18.754  0.00  0.00    +0.000 A 
ATOM     32  C   UNL     1      -4.978  10.796  18.137  0.00  0.00    +0.000 A 
ATOM     33  C   UNL     1      -6.255  10.555  18.646  0.00  0.00    +0.000 A 
ATOM     34  C   UNL     1      -6.695  11.260  19.759  0.00  0.00    +0.000 A 
ATOM     35  F   UNL     1      -7.915  11.018  20.254  0.00  0.00    +0.000 F 
ATOM     36  C   UNL     1      -5.886  12.214  20.365  0.00  0.00    +0.000 A 
ATOM     37  C   UNL     1      -4.608  12.456  19.861  0.00  0.00    +0.000 A 
ENDBRANCH  30  31
ENDBRANCH  28  30
ENDBRANCH   5  26
TORSDOF 7
ENDMDL
MODEL 4
REMARK VINA RESULT:      -8.4      1.984      2.641
REMARK  Name = 
REMARK  7 active torsions:
REMARK  status: ('A' for Active; 'I' for Inactive)
REMARK    1  A    between atoms: N_1  and  C_2
REMARK    2  A    between atoms: C_6  and  O_7
REMARK    3  A    between atoms: O_7  and  C_8
REMARK    4  A    between atoms: C_11  and  N_12
REMARK    5  A    between atoms: C_16  and  C_17
REMARK    6  A    between atoms: N_19  and  C_20
REMARK    7  A    between atoms: C_20  and  C_21
REMARK                            x       y       z     vdW  Elec       q    Type
REMARK                         _______ _______ _______ _____ _____    ______ ____
ROOT
ATOM      1  N   UNL     1       0.502  10.668  18.775  0.00  0.00    +0.000 N 
ATOM      2  C   UNL     1       1.057  11.887  19.136  0.00  0.00    +0.000 A 
ATOM      3  C   UNL     1       0.369  13.028  19.023  0.00  0.00    +0.000 A 
ATOM      4  C   UNL     1      -1.012  12.994  18.618  0.00  0.00    +0.000 A 
ATOM      5  C   UNL     1      -1.617  11.840  18.282  0.00  0.00    +0.000 A 
ATOM      6  C   UNL     1      -0.812  10.576  18.276  0.00  0.00    +0.000 A 
ATOM      7  O   UNL     1      -1.332   9.528  17.885  0.00  0.00    +0.000 OA
ENDROOT
BRANCH   1  11
ATOM      8  C   UNL     1       2.757   7.125  19.250  0.00  0.00    +0.000 A 
ATOM      9  C   UNL     1       1.956   7.583  20.297  0.00  0.00    +0.000 A 
ATOM     10  C   UNL     1       1.209   8.753  20.138  0.00  0.00    +0.000 A 
ATOM     11  C   UNL     1       1.237   9.458  18.928  0.00  0.00    +0.000 A 
ATOM     12  C   UNL     1       2.043   9.003  17.884  0.00  0.00    +0.000 A 
ATOM     13  C   UNL     1       2.834   7.874  18.071  0.00  0.00    +0.000 A 
ATOM     14  F   UNL     1       3.666   7.521  17.079  0.00  0.00    +0.000 F 
BRANCH   8  15
ATOM     15  O   UNL     1       3.455   5.960  19.490  0.00  0.00    +0.000 OA
BRANCH  15  20
ATOM     16  C   UNL     1       1.731   2.748  19.206  0.00  0.00    +0.000 A 
ATOM     17  N   UNL     1       1.238   2.561  20.449  0.00  0.00    +0.000 NA
ATOM     18  C   UNL     1       1.539   3.484  21.386  0.00  0.00    +0.000 A 
ATOM     19  C   UNL     1       2.313   4.600  21.143  0.00  0.00    +0.000 A 
ATOM     20  C   UNL     1       2.750   4.827  19.838  0.00  0.00    +0.000 A 
ATOM     21  C   UNL     1       2.499   3.864  18.855  0.00  0.00    +0.000 A 
ATOM     22 CL   UNL     1       3.143   4.030  17.258  0.00  0.00    +0.000 Cl
BRANCH  16  23
ATOM     23  N   UNL     1       1.360   1.769  18.284  0.00  0.00    +0.000 N 
ATOM     24  H   UNL     1       2.142   1.625  17.653  0.00  0.00    +0.000 HD
ATOM     25  H   UNL     1       0.495   2.001  17.810  0.00  0.00    +0.000 HD
ENDBRANCH  16  23
ENDBRANCH  15  20
ENDBRANCH   8  15
ENDBRANCH   1  11
BRANCH   5  26
ATOM     26  C   UNL     1      -3.081  11.882  17.976  0.00  0.00    +0.000 C 
ATOM     27  O   UNL     1      -3.526  11.461  16.912  0.00  0.00    +0.000 OA
ATOM     28  N   UNL     1      -3.870  12.426  18.952  0.00  0.00    +0.000 N 
ATOM     29  H   UNL     1      -3.425  12.788  19.796  0.00  0.00    +0.000 HD
BRANCH  28  30
ATOM     30  C   UNL     1      -5.297  12.575  18.832  0.00  0.00    +0.000 C 
BRANCH  30  31
ATOM     31  C   UNL     1      -6.009  11.343  19.330  0.00  0.00    +0.000 A 
ATOM     32  C   UNL     1      -5.767  10.097  18.729  0.00  0.00    +0.000 A 
ATOM     33  C   UNL     1      -6.411   8.951  19.197  0.00  0.00    +0.000 A 
ATOM     34  C   UNL     1      -7.309   9.051  20.253  0.00  0.00    +0.000 A 
ATOM     35  F   UNL     1      -7.916   7.949  20.711  0.00  0.00    +0.000 F 
ATOM     36  C   UNL     1      -7.586  10.280  20.841  0.00  0.00    +0.000 A 
ATOM     37  C   UNL     1      -6.940  11.427  20.377  0.00  0.00    +0.000 A 
ENDBRANCH  30  31
ENDBRANCH  28  30
ENDBRANCH   5  26
TORSDOF 7
ENDMDL
MODEL 5
REMARK VINA RESULT:      -8.4      4.228      5.843
REMARK  Name = 
REMARK  7 active torsions:
REMARK  status: ('A' for Active; 'I' for Inactive)
REMARK    1  A    between atoms: N_1  and  C_2
REMARK    2  A    between atoms: C_6  and  O_7
REMARK    3  A    between atoms: O_7  and  C_8
REMARK    4  A    between atoms: C_11  and  N_12
REMARK    5  A    between atoms: C_16  and  C_17
REMARK    6  A    between atoms: N_19  and  C_20
REMARK    7  A    between atoms: C_20  and  C_21
REMARK                            x       y       z     vdW  Elec       q    Type
REMARK                         _______ _______ _______ _____ _____    ______ ____
ROOT
ATOM      1  N   UNL     1       0.399   9.975  21.293  0.00  0.00    +0.000 N 
ATOM      2  C   UNL     1      -0.423   9.516  22.311  0.00  0.00    +0.000 A 
ATOM      3  C   UNL     1      -1.067  10.361  23.123  0.00  0.00    +0.000 A 
ATOM      4  C   UNL     1      -0.997  11.779  22.882  0.00  0.00    +0.000 A 
ATOM      5  C   UNL     1      -0.240  12.286  21.892  0.00  0.00    +0.000 A 
ATOM      6  C   UNL     1       0.591  11.352  21.066  0.00  0.00    +0.000 A 
ATOM      7  O   UNL     1       1.356  11.813  20.215  0.00  0.00    +0.000 OA
ENDROOT
BRANCH   1  11
ATOM      8  C   UNL     1       2.427   7.315  18.709  0.00  0.00    +0.000 A 
ATOM      9  C   UNL     1       2.249   6.978  20.052  0.00  0.00    +0.000 A 
ATOM     10  C   UNL     1       1.577   7.856  20.904  0.00  0.00    +0.000 A 
ATOM     11  C   UNL     1       1.057   9.062  20.419  0.00  0.00    +0.000 A 
ATOM     12  C   UNL     1       1.240   9.402  19.078  0.00  0.00    +0.000 A 
ATOM     13  C   UNL     1       1.967   8.554  18.250  0.00  0.00    +0.000 A 
ATOM     14  F   UNL     1       2.203   8.957  16.992  0.00  0.00    +0.000 F 
BRANCH   8  15
ATOM     15  O   UNL     1       3.095   6.387  17.938  0.00  0.00    +0.000 OA
BRANCH  15  20
ATOM     16  C   UNL     1       3.871   3.010  19.103  0.00  0.00    +0.000 A 
ATOM     17  N   UNL     1       2.761   2.316  18.773  0.00  0.00    +0.000 NA
ATOM     18  C   UNL     1       1.739   3.000  18.218  0.00  0.00    +0.000 A 
ATOM     19  C   UNL     1       1.769   4.356  17.968  0.00  0.00    +0.000 A 
ATOM     20  C   UNL     1       2.949   5.050  18.237  0.00  0.00    +0.000 A 
ATOM     21  C   UNL     1       4.008   4.381  18.860  0.00  0.00    +0.000 A 
ATOM     22 CL   UNL     1       5.437   5.229  19.344  0.00  0.00    +0.000 Cl
BRANCH  16  23
ATOM     23  N   UNL     1       4.896   2.236  19.648  0.00  0.00    +0.000 N 
ATOM     24  H   UNL     1       4.477   1.392  20.030  0.00  0.00    +0.000 HD
ATOM     25  H   UNL     1       5.447   2.753  20.322  0.00  0.00    +0.000 HD
ENDBRANCH  16  23
ENDBRANCH  15  20
ENDBRANCH   8  15
ENDBRANCH   1  11
BRANCH   5  26
ATOM     26  C   UNL     1      -0.308  13.760  21.644  0.00  0.00    +0.000 C 
ATOM     27  O   UNL     1      -1.350  14.303  21.287  0.00  0.00    +0.000 OA
ATOM     28  N   UNL     1       0.863  14.442  21.831  0.00  0.00    +0.000 N 
ATOM     29  H   UNL     1       1.698  13.917  22.094  0.00  0.00    +0.000 HD
BRANCH  28  30
ATOM     30  C   UNL     1       1.003  15.859  21.618  0.00  0.00    +0.000 C 
BRANCH  30  31
ATOM     31  C   UNL     1       1.552  16.143  20.243  0.00  0.00    +0.000 A 
ATOM     32  C   UNL     1       2.611  15.376  19.733  0.00  0.00    +0.000 A 
ATOM     33  C   UNL     1       3.111  15.624  18.454  0.00  0.00    +0.000 A 
ATOM     34  C   UNL     1       2.565  16.650  17.691  0.00  0.00    +0.000 A 
ATOM     35  F   UNL     1       3.035  16.879  16.459  0.00  0.00    +0.000 F 
ATOM     36  C   UNL     1       1.537  17.441  18.190  0.00  0.00    +0.000 A 
ATOM     37  C   UNL     1       1.033  17.193  19.468  0.00  0.00    +0.000 A 
ENDBRANCH  30  31
ENDBRANCH  28  30
ENDBRANCH   5  26
TORSDOF 7
ENDMDL
MODEL 6
REMARK VINA RESULT:      -8.4      2.371      2.914
REMARK  Name = 
REMARK  7 active torsions:
REMARK  status: ('A' for Active; 'I' for Inactive)
REMARK    1  A    between atoms: N_1  and  C_2
REMARK    2  A    between atoms: C_6  and  O_7
REMARK    3  A    between atoms: O_7  and  C_8
REMARK    4  A    between atoms: C_11  and  N_12
REMARK    5  A    between atoms: C_16  and  C_17
REMARK    6  A    between atoms: N_19  and  C_20
REMARK    7  A    between atoms: C_20  and  C_21
REMARK                            x       y       z     vdW  Elec       q    Type
REMARK                         _______ _______ _______ _____ _____    ______ ____
ROOT
ATOM      1  N   UNL     1       0.081  10.663  19.185  0.00  0.00    +0.000 N 
ATOM      2  C   UNL     1       0.348  11.722  20.040  0.00  0.00    +0.000 A 
ATOM      3  C   UNL     1      -0.506  12.741  20.176  0.00  0.00    +0.000 A 
ATOM      4  C   UNL     1      -1.781  12.703  19.508  0.00  0.00    +0.000 A 
ATOM      5  C   UNL     1      -2.112  11.689  18.687  0.00  0.00    +0.000 A 
ATOM      6  C   UNL     1      -1.104  10.612  18.424  0.00  0.00    +0.000 A 
ATOM      7  O   UNL     1      -1.364   9.726  17.605  0.00  0.00    +0.000 OA
ENDROOT
BRANCH   1  11
ATOM      8  C   UNL     1       2.700   7.366  18.824  0.00  0.00    +0.000 A 
ATOM      9  C   UNL     1       2.564   8.263  17.764  0.00  0.00    +0.000 A 
ATOM     10  C   UNL     1       1.700   9.354  17.885  0.00  0.00    +0.000 A 
ATOM     11  C   UNL     1       0.987   9.570  19.071  0.00  0.00    +0.000 A 
ATOM     12  C   UNL     1       1.118   8.669  20.129  0.00  0.00    +0.000 A 
ATOM     13  C   UNL     1       1.929   7.550  19.977  0.00  0.00    +0.000 A 
ATOM     14  F   UNL     1       1.958   6.658  20.980  0.00  0.00    +0.000 F 
BRANCH   8  15
ATOM     15  O   UNL     1       3.578   6.322  18.622  0.00  0.00    +0.000 OA
BRANCH  15  20
ATOM     16  C   UNL     1       3.393   2.703  18.134  0.00  0.00    +0.000 A 
ATOM     17  N   UNL     1       2.131   2.525  17.688  0.00  0.00    +0.000 NA
ATOM     18  C   UNL     1       1.336   3.612  17.613  0.00  0.00    +0.000 A 
ATOM     19  C   UNL     1       1.740   4.884  17.960  0.00  0.00    +0.000 A 
ATOM     20  C   UNL     1       3.069   5.073  18.342  0.00  0.00    +0.000 A 
ATOM     21  C   UNL     1       3.904   3.959  18.480  0.00  0.00    +0.000 A 
ATOM     22 CL   UNL     1       5.516   4.125  19.087  0.00  0.00    +0.000 Cl
BRANCH  16  23
ATOM     23  N   UNL     1       4.166   1.542  18.161  0.00  0.00    +0.000 N 
ATOM     24  H   UNL     1       4.230   1.190  17.210  0.00  0.00    +0.000 HD
ATOM     25  H   UNL     1       3.809   0.862  18.821  0.00  0.00    +0.000 HD
ENDBRANCH  16  23
ENDBRANCH  15  20
ENDBRANCH   8  15
ENDBRANCH   1  11
BRANCH   5  26
ATOM     26  C   UNL     1      -3.496  11.674  18.118  0.00  0.00    +0.000 C 
ATOM     27  O   UNL     1      -3.694  11.503  16.919  0.00  0.00    +0.000 OA
ATOM     28  N   UNL     1      -4.504  11.876  19.021  0.00  0.00    +0.000 N 
ATOM     29  H   UNL     1      -4.261  12.047  19.996  0.00  0.00    +0.000 HD
BRANCH  28  30
ATOM     30  C   UNL     1      -5.898  11.920  18.661  0.00  0.00    +0.000 C 
BRANCH  30  31
ATOM     31  C   UNL     1      -6.300  13.313  18.245  0.00  0.00    +0.000 A 
ATOM     32  C   UNL     1      -6.697  13.568  16.922  0.00  0.00    +0.000 A 
ATOM     33  C   UNL     1      -7.085  14.852  16.538  0.00  0.00    +0.000 A 
ATOM     34  C   UNL     1      -7.062  15.884  17.468  0.00  0.00    +0.000 A 
ATOM     35  F   UNL     1      -7.448  17.112  17.102  0.00  0.00    +0.000 F 
ATOM     36  C   UNL     1      -6.643  15.658  18.774  0.00  0.00    +0.000 A 
ATOM     37  C   UNL     1      -6.256  14.374  19.162  0.00  0.00    +0.000 A 
ENDBRANCH  30  31
ENDBRANCH  28  30
ENDBRANCH   5  26
TORSDOF 7
ENDMDL
MODEL 7
REMARK VINA RESULT:      -8.4      2.819      3.860
REMARK  Name = 
REMARK  7 active torsions:
REMARK  status: ('A' for Active; 'I' for Inactive)
REMARK    1  A    between atoms: N_1  and  C_2
REMARK    2  A    between atoms: C_6  and  O_7
REMARK    3  A    between atoms: O_7  and  C_8
REMARK    4  A    between atoms: C_11  and  N_12
REMARK    5  A    between atoms: C_16  and  C_17
REMARK    6  A    between atoms: N_19  and  C_20
REMARK    7  A    between atoms: C_20  and  C_21
REMARK                            x       y       z     vdW  Elec       q    Type
REMARK                         _______ _______ _______ _____ _____    ______ ____
ROOT
ATOM      1  N   UNL     1       1.290   8.544  20.392  0.00  0.00    +0.000 N 
ATOM      2  C   UNL     1       1.240   8.618  21.776  0.00  0.00    +0.000 A 
ATOM      3  C   UNL     1       0.583   9.602  22.399  0.00  0.00    +0.000 A 
ATOM      4  C   UNL     1      -0.180  10.551  21.631  0.00  0.00    +0.000 A 
ATOM      5  C   UNL     1      -0.196  10.516  20.286  0.00  0.00    +0.000 A 
ATOM      6  C   UNL     1       0.649   9.499  19.580  0.00  0.00    +0.000 A 
ATOM      7  O   UNL     1       0.712   9.514  18.347  0.00  0.00    +0.000 OA
ENDROOT
BRANCH   1  11
ATOM      8  C   UNL     1       3.232   5.347  18.424  0.00  0.00    +0.000 A 
ATOM      9  C   UNL     1       3.331   6.641  17.910  0.00  0.00    +0.000 A 
ATOM     10  C   UNL     1       2.691   7.697  18.563  0.00  0.00    +0.000 A 
ATOM     11  C   UNL     1       1.971   7.474  19.743  0.00  0.00    +0.000 A 
ATOM     12  C   UNL     1       1.868   6.179  20.254  0.00  0.00    +0.000 A 
ATOM     13  C   UNL     1       2.452   5.123  19.563  0.00  0.00    +0.000 A 
ATOM     14  F   UNL     1       2.253   3.882  20.033  0.00  0.00    +0.000 F 
BRANCH   8  15
ATOM     15  O   UNL     1       3.900   4.366  17.721  0.00  0.00    +0.000 OA
BRANCH  15  20
ATOM     16  C   UNL     1       7.085   4.663  15.950  0.00  0.00    +0.000 A 
ATOM     17  N   UNL     1       7.983   4.723  16.955  0.00  0.00    +0.000 NA
ATOM     18  C   UNL     1       7.508   4.726  18.218  0.00  0.00    +0.000 A 
ATOM     19  C   UNL     1       6.167   4.665  18.533  0.00  0.00    +0.000 A 
ATOM     20  C   UNL     1       5.250   4.521  17.491  0.00  0.00    +0.000 A 
ATOM     21  C   UNL     1       5.706   4.567  16.170  0.00  0.00    +0.000 A 
ATOM     22 CL   UNL     1       4.596   4.536  14.842  0.00  0.00    +0.000 Cl
BRANCH  16  23
ATOM     23  N   UNL     1       7.647   4.638  14.673  0.00  0.00    +0.000 N 
ATOM     24  H   UNL     1       7.845   3.669  14.440  0.00  0.00    +0.000 HD
ATOM     25  H   UNL     1       8.455   5.244  14.601  0.00  0.00    +0.000 HD
ENDBRANCH  16  23
ENDBRANCH  15  20
ENDBRANCH   8  15
ENDBRANCH   1  11
BRANCH   5  26
ATOM     26  C   UNL     1      -1.098  11.472  19.571  0.00  0.00    +0.000 C 
ATOM     27  O   UNL     1      -0.977  12.687  19.700  0.00  0.00    +0.000 OA
ATOM     28  N   UNL     1      -2.059  10.896  18.786  0.00  0.00    +0.000 N 
ATOM     29  H   UNL     1      -2.122   9.878  18.756  0.00  0.00    +0.000 HD
BRANCH  28  30
ATOM     30  C   UNL     1      -3.035  11.649  18.041  0.00  0.00    +0.000 C 
BRANCH  30  31
ATOM     31  C   UNL     1      -4.343  11.718  18.787  0.00  0.00    +0.000 A 
ATOM     32  C   UNL     1      -5.396  10.853  18.450  0.00  0.00    +0.000 A 
ATOM     33  C   UNL     1      -6.602  10.903  19.150  0.00  0.00    +0.000 A 
ATOM     34  C   UNL     1      -6.763  11.827  20.175  0.00  0.00    +0.000 A 
ATOM     35  F   UNL     1      -7.916  11.865  20.855  0.00  0.00    +0.000 F 
ATOM     36  C   UNL     1      -5.744  12.714  20.504  0.00  0.00    +0.000 A 
ATOM     37  C   UNL     1      -4.536  12.664  19.807  0.00  0.00    +0.000 A 
ENDBRANCH  30  31
ENDBRANCH  28  30
ENDBRANCH   5  26
TORSDOF 7
ENDMDL
MODEL 8
REMARK VINA RESULT:      -8.4      3.651      6.660
REMARK  Name = 
REMARK  7 active torsions:
REMARK  status: ('A' for Active; 'I' for Inactive)
REMARK    1  A    between atoms: N_1  and  C_2
REMARK    2  A    between atoms: C_6  and  O_7
REMARK    3  A    between atoms: O_7  and  C_8
REMARK    4  A    between atoms: C_11  and  N_12
REMARK    5  A    between atoms: C_16  and  C_17
REMARK    6  A    between atoms: N_19  and  C_20
REMARK    7  A    between atoms: C_20  and  C_21
REMARK                            x       y       z     vdW  Elec       q    Type
REMARK                         _______ _______ _______ _____ _____    ______ ____
ROOT
ATOM      1  N   UNL     1       0.308  10.850  18.844  0.00  0.00    +0.000 N 
ATOM      2  C   UNL     1      -0.930  10.806  18.222  0.00  0.00    +0.000 A 
ATOM      3  C   UNL     1      -1.625  11.921  17.972  0.00  0.00    +0.000 A 
ATOM      4  C   UNL     1      -1.042  13.207  18.254  0.00  0.00    +0.000 A 
ATOM      5  C   UNL     1       0.169  13.318  18.831  0.00  0.00    +0.000 A 
ATOM      6  C   UNL     1       0.892  12.070  19.238  0.00  0.00    +0.000 A 
ATOM      7  O   UNL     1       1.962  12.161  19.847  0.00  0.00    +0.000 OA
ENDROOT
BRANCH   1  11
ATOM      8  C   UNL     1       2.432   7.260  19.527  0.00  0.00    +0.000 A 
ATOM      9  C   UNL     1       2.474   7.863  18.269  0.00  0.00    +0.000 A 
ATOM     10  C   UNL     1       1.775   9.051  18.045  0.00  0.00    +0.000 A 
ATOM     11  C   UNL     1       1.050   9.656  19.079  0.00  0.00    +0.000 A 
ATOM     12  C   UNL     1       1.002   9.050  20.335  0.00  0.00    +0.000 A 
ATOM     13  C   UNL     1       1.647   7.834  20.533  0.00  0.00    +0.000 A 
ATOM     14  F   UNL     1       1.502   7.235  21.725  0.00  0.00    +0.000 F 
BRANCH   8  15
ATOM     15  O   UNL     1       3.157   6.094  19.662  0.00  0.00    +0.000 OA
BRANCH  15  20
ATOM     16  C   UNL     1       1.697   3.026  18.313  0.00  0.00    +0.000 A 
ATOM     17  N   UNL     1       2.385   2.845  17.165  0.00  0.00    +0.000 NA
ATOM     18  C   UNL     1       3.289   3.787  16.825  0.00  0.00    +0.000 A 
ATOM     19  C   UNL     1       3.549   4.910  17.581  0.00  0.00    +0.000 A 
ATOM     20  C   UNL     1       2.893   5.048  18.805  0.00  0.00    +0.000 A 
ATOM     21  C   UNL     1       1.913   4.117  19.162  0.00  0.00    +0.000 A 
ATOM     22 CL   UNL     1       0.971   4.321  20.599  0.00  0.00    +0.000 Cl
BRANCH  16  23
ATOM     23  N   UNL     1       0.799   2.002  18.615  0.00  0.00    +0.000 N 
ATOM     24  H   UNL     1       1.174   1.484  19.404  0.00  0.00    +0.000 HD
ATOM     25  H   UNL     1       0.597   1.421  17.809  0.00  0.00    +0.000 HD
ENDBRANCH  16  23
ENDBRANCH  15  20
ENDBRANCH   8  15
ENDBRANCH   1  11
BRANCH   5  26
ATOM     26  C   UNL     1       0.744  14.689  18.991  0.00  0.00    +0.000 C 
ATOM     27  O   UNL     1       0.131  15.579  19.573  0.00  0.00    +0.000 OA
ATOM     28  N   UNL     1       1.982  14.875  18.438  0.00  0.00    +0.000 N 
ATOM     29  H   UNL     1       2.416  14.098  17.938  0.00  0.00    +0.000 HD
BRANCH  28  30
ATOM     30  C   UNL     1       2.688  16.130  18.467  0.00  0.00    +0.000 C 
BRANCH  30  31
ATOM     31  C   UNL     1       4.179  15.907  18.459  0.00  0.00    +0.000 A 
ATOM     32  C   UNL     1       5.037  16.847  19.051  0.00  0.00    +0.000 A 
ATOM     33  C   UNL     1       6.416  16.636  19.061  0.00  0.00    +0.000 A 
ATOM     34  C   UNL     1       6.940  15.495  18.465  0.00  0.00    +0.000 A 
ATOM     35  F   UNL     1       8.263  15.286  18.486  0.00  0.00    +0.000 F 
ATOM     36  C   UNL     1       6.110  14.567  17.846  0.00  0.00    +0.000 A 
ATOM     37  C   UNL     1       4.730  14.775  17.837  0.00  0.00    +0.000 A 
ENDBRANCH  30  31
ENDBRANCH  28  30
ENDBRANCH   5  26
TORSDOF 7
ENDMDL
MODEL 9
REMARK VINA RESULT:      -8.4      4.167      6.724
REMARK  Name = 
REMARK  7 active torsions:
REMARK  status: ('A' for Active; 'I' for Inactive)
REMARK    1  A    between atoms: N_1  and  C_2
REMARK    2  A    between atoms: C_6  and  O_7
REMARK    3  A    between atoms: O_7  and  C_8
REMARK    4  A    between atoms: C_11  and  N_12
REMARK    5  A    between atoms: C_16  and  C_17
REMARK    6  A    between atoms: N_19  and  C_20
REMARK    7  A    between atoms: C_20  and  C_21
REMARK                            x       y       z     vdW  Elec       q    Type
REMARK                         _______ _______ _______ _____ _____    ______ ____
ROOT
ATOM      1  N   UNL     1       0.184  10.464  18.788  0.00  0.00    +0.000 N 
ATOM      2  C   UNL     1      -0.986  10.390  18.046  0.00  0.00    +0.000 A 
ATOM      3  C   UNL     1      -1.707  11.481  17.771  0.00  0.00    +0.000 A 
ATOM      4  C   UNL     1      -1.218  12.779  18.156  0.00  0.00    +0.000 A 
ATOM      5  C   UNL     1      -0.075  12.921  18.852  0.00  0.00    +0.000 A 
ATOM      6  C   UNL     1       0.667  11.691  19.282  0.00  0.00    +0.000 A 
ATOM      7  O   UNL     1       1.667  11.805  19.995  0.00  0.00    +0.000 OA
ENDROOT
BRANCH   1  11
ATOM      8  C   UNL     1       2.551   7.052  19.576  0.00  0.00    +0.000 A 
ATOM      9  C   UNL     1       1.787   7.617  20.597  0.00  0.00    +0.000 A 
ATOM     10  C   UNL     1       1.003   8.743  20.336  0.00  0.00    +0.000 A 
ATOM     11  C   UNL     1       0.957   9.296  19.050  0.00  0.00    +0.000 A 
ATOM     12  C   UNL     1       1.725   8.734  18.029  0.00  0.00    +0.000 A 
ATOM     13  C   UNL     1       2.553   7.653  18.313  0.00  0.00    +0.000 A 
ATOM     14  F   UNL     1       3.348   7.199  17.331  0.00  0.00    +0.000 F 
BRANCH   8  15
ATOM     15  O   UNL     1       3.289   5.939  19.920  0.00  0.00    +0.000 OA
BRANCH  15  20
ATOM     16  C   UNL     1       2.953   2.453  18.867  0.00  0.00    +0.000 A 
ATOM     17  N   UNL     1       1.664   2.175  19.157  0.00  0.00    +0.000 NA
ATOM     18  C   UNL     1       0.937   3.139  19.759  0.00  0.00    +0.000 A 
ATOM     19  C   UNL     1       1.434   4.384  20.086  0.00  0.00    +0.000 A 
ATOM     20  C   UNL     1       2.742   4.691  19.710  0.00  0.00    +0.000 A 
ATOM     21  C   UNL     1       3.538   3.697  19.131  0.00  0.00    +0.000 A 
ATOM     22 CL   UNL     1       5.207   3.985  18.779  0.00  0.00    +0.000 Cl
BRANCH  16  23
ATOM     23  N   UNL     1       3.637   1.421  18.224  0.00  0.00    +0.000 N 
ATOM     24  H   UNL     1       3.406   0.554  18.700  0.00  0.00    +0.000 HD
ATOM     25  H   UNL     1       4.632   1.600  18.169  0.00  0.00    +0.000 HD
ENDBRANCH  16  23
ENDBRANCH  15  20
ENDBRANCH   8  15
ENDBRANCH   1  11
BRANCH   5  26
ATOM     26  C   UNL     1       0.415  14.309  19.118  0.00  0.00    +0.000 C 
ATOM     27  O   UNL     1      -0.362  15.229  19.358  0.00  0.00    +0.000 OA
ATOM     28  N   UNL     1       1.772  14.473  19.063  0.00  0.00    +0.000 N 
ATOM     29  H   UNL     1       2.353  13.670  18.822  0.00  0.00    +0.000 HD
BRANCH  28  30
ATOM     30  C   UNL     1       2.430  15.738  19.266  0.00  0.00    +0.000 C 
BRANCH  30  31
ATOM     31  C   UNL     1       3.884  15.655  18.873  0.00  0.00    +0.000 A 
ATOM     32  C   UNL     1       4.758  16.712  19.173  0.00  0.00    +0.000 A 
ATOM     33  C   UNL     1       6.107  16.632  18.827  0.00  0.00    +0.000 A 
ATOM     34  C   UNL     1       6.580  15.505  18.166  0.00  0.00    +0.000 A 
ATOM     35  F   UNL     1       7.878  15.422  17.846  0.00  0.00    +0.000 F 
ATOM     36  C   UNL     1       5.725  14.461  17.832  0.00  0.00    +0.000 A 
ATOM     37  C   UNL     1       4.375  14.538  18.180  0.00  0.00    +0.000 A 
ENDBRANCH  30  31
ENDBRANCH  28  30
ENDBRANCH   5  26
TORSDOF 7
ENDMDL
