MODEL 1
REMARK VINA RESULT:      -7.0      0.000      0.000
REMARK  Name = 
REMARK  4 active torsions:
REMARK  status: ('A' for Active; 'I' for Inactive)
REMARK    1  A    between atoms: C_2  and  C_3
REMARK    2  A    between atoms: C_3  and  C_4
REMARK    3  A    between atoms: C_3  and  C_10
REMARK    4  A    between atoms: C_13  and  O_14
REMARK                            x       y       z     vdW  Elec       q    Type
REMARK                         _______ _______ _______ _____ _____    ______ ____
ROOT
ATOM      1  C   UNL     1       5.729   3.874  17.734  0.00  0.00    +0.000 C 
ENDROOT
BRANCH   1   2
ATOM      2  C   UNL     1       4.198   3.940  17.812  0.00  0.00    +0.000 A 
ATOM      3  C   UNL     1       3.499   5.166  17.832  0.00  0.00    +0.000 A 
ATOM      4  C   UNL     1       2.107   5.198  17.927  0.00  0.00    +0.000 A 
ATOM      5  C   UNL     1       1.386   4.011  17.987  0.00  0.00    +0.000 A 
ATOM      6  C   UNL     1       2.057   2.790  17.943  0.00  0.00    +0.000 A 
ATOM      7  C   UNL     1       3.452   2.751  17.852  0.00  0.00    +0.000 A 
ENDBRANCH   1   2
BRANCH   1   8
ATOM      8  C   UNL     1       6.262   4.261  16.368  0.00  0.00    +0.000 A 
ATOM      9  C   UNL     1       5.822   3.654  15.191  0.00  0.00    +0.000 A 
ATOM     10  C   UNL     1       6.340   4.080  13.971  0.00  0.00    +0.000 A 
ATOM     11  C   UNL     1       7.276   5.090  13.985  0.00  0.00    +0.000 A 
ATOM     12  N   UNL     1       7.695   5.668  15.123  0.00  0.00    +0.000 NA
ATOM     13  N   UNL     1       7.184   5.250  16.326  0.00  0.00    +0.000 NA
BRANCH  11  14
ATOM     14  O   UNL     1       7.836   5.559  12.833  0.00  0.00    +0.000 OA
ATOM     15  H   UNL     1       7.182   6.114  12.382  0.00  0.00    +0.000 HD
ENDBRANCH  11  14
ENDBRANCH   1   8
BRANCH   1  17
ATOM     16  N   UNL     1       6.871   5.503  19.676  0.00  0.00    +0.000 NA
ATOM     17  C   UNL     1       6.354   4.765  18.796  0.00  0.00    +0.000 C 
ENDBRANCH   1  17
TORSDOF 4
ENDMDL
MODEL 2
REMARK VINA RESULT:      -7.0      0.055      1.206
REMARK  Name = 
REMARK  4 active torsions:
REMARK  status: ('A' for Active; 'I' for Inactive)
REMARK    1  A    between atoms: C_2  and  C_3
REMARK    2  A    between atoms: C_3  and  C_4
REMARK    3  A    between atoms: C_3  and  C_10
REMARK    4  A    between atoms: C_13  and  O_14
REMARK                            x       y       z     vdW  Elec       q    Type
REMARK                         _______ _______ _______ _____ _____    ______ ____
ROOT
ATOM      1  C   UNL     1       5.748   3.882  17.742  0.00  0.00    +0.000 C 
ENDROOT
BRANCH   1   2
ATOM      2  C   UNL     1       4.216   3.946  17.826  0.00  0.00    +0.000 A 
ATOM      3  C   UNL     1       3.416   2.785  17.861  0.00  0.00    +0.000 A 
ATOM      4  C   UNL     1       2.025   2.872  17.914  0.00  0.00    +0.000 A 
ATOM      5  C   UNL     1       1.406   4.116  17.949  0.00  0.00    +0.000 A 
ATOM      6  C   UNL     1       2.181   5.275  17.941  0.00  0.00    +0.000 A 
ATOM      7  C   UNL     1       3.576   5.194  17.884  0.00  0.00    +0.000 A 
ENDBRANCH   1   2
BRANCH   1   8
ATOM      8  C   UNL     1       6.274   4.266  16.373  0.00  0.00    +0.000 A 
ATOM      9  C   UNL     1       5.827   3.660  15.199  0.00  0.00    +0.000 A 
ATOM     10  C   UNL     1       6.339   4.084  13.976  0.00  0.00    +0.000 A 
ATOM     11  C   UNL     1       7.279   5.091  13.985  0.00  0.00    +0.000 A 
ATOM     12  N   UNL     1       7.705   5.668  15.120  0.00  0.00    +0.000 NA
ATOM     13  N   UNL     1       7.199   5.252  16.326  0.00  0.00    +0.000 NA
BRANCH  11  14
ATOM     14  O   UNL     1       7.835   5.557  12.829  0.00  0.00    +0.000 OA
ATOM     15  H   UNL     1       7.990   4.803  12.241  0.00  0.00    +0.000 HD
ENDBRANCH  11  14
ENDBRANCH   1   8
BRANCH   1  17
ATOM     16  N   UNL     1       6.895   5.516  19.676  0.00  0.00    +0.000 NA
ATOM     17  C   UNL     1       6.375   4.775  18.800  0.00  0.00    +0.000 C 
ENDBRANCH   1  17
TORSDOF 4
ENDMDL
MODEL 3
REMARK VINA RESULT:      -6.9      2.063      2.221
REMARK  Name = 
REMARK  4 active torsions:
REMARK  status: ('A' for Active; 'I' for Inactive)
REMARK    1  A    between atoms: C_2  and  C_3
REMARK    2  A    between atoms: C_3  and  C_4
REMARK    3  A    between atoms: C_3  and  C_10
REMARK    4  A    between atoms: C_13  and  O_14
REMARK                            x       y       z     vdW  Elec       q    Type
REMARK                         _______ _______ _______ _____ _____    ______ ____
ROOT
ATOM      1  C   UNL     1       6.595   5.844  17.493  0.00  0.00    +0.000 C 
ENDROOT
BRANCH   1   2
ATOM      2  C   UNL     1       5.176   5.981  18.062  0.00  0.00    +0.000 A 
ATOM      3  C   UNL     1       4.229   6.871  17.513  0.00  0.00    +0.000 A 
ATOM      4  C   UNL     1       2.954   6.993  18.064  0.00  0.00    +0.000 A 
ATOM      5  C   UNL     1       2.592   6.219  19.160  0.00  0.00    +0.000 A 
ATOM      6  C   UNL     1       3.505   5.315  19.701  0.00  0.00    +0.000 A 
ATOM      7  C   UNL     1       4.787   5.191  19.156  0.00  0.00    +0.000 A 
ENDBRANCH   1   2
BRANCH   1   8
ATOM      8  C   UNL     1       6.610   5.251  16.097  0.00  0.00    +0.000 A 
ATOM      9  C   UNL     1       5.690   4.290  15.678  0.00  0.00    +0.000 A 
ATOM     10  C   UNL     1       5.751   3.812  14.373  0.00  0.00    +0.000 A 
ATOM     11  C   UNL     1       6.734   4.312  13.548  0.00  0.00    +0.000 A 
ATOM     12  N   UNL     1       7.617   5.237  13.960  0.00  0.00    +0.000 NA
ATOM     13  N   UNL     1       7.556   5.711  15.246  0.00  0.00    +0.000 NA
BRANCH  11  14
ATOM     14  O   UNL     1       6.864   3.889  12.257  0.00  0.00    +0.000 OA
ATOM     15  H   UNL     1       6.915   2.922  12.259  0.00  0.00    +0.000 HD
ENDBRANCH  11  14
ENDBRANCH   1   8
BRANCH   1  17
ATOM     16  N   UNL     1       7.876   8.311  17.474  0.00  0.00    +0.000 NA
ATOM     17  C   UNL     1       7.295   7.193  17.482  0.00  0.00    +0.000 C 
ENDBRANCH   1  17
TORSDOF 4
ENDMDL
MODEL 4
REMARK VINA RESULT:      -6.9      2.398      3.244
REMARK  Name = 
REMARK  4 active torsions:
REMARK  status: ('A' for Active; 'I' for Inactive)
REMARK    1  A    between atoms: C_2  and  C_3
REMARK    2  A    between atoms: C_3  and  C_4
REMARK    3  A    between atoms: C_3  and  C_10
REMARK    4  A    between atoms: C_13  and  O_14
REMARK                            x       y       z     vdW  Elec       q    Type
REMARK                         _______ _______ _______ _____ _____    ______ ____
ROOT
ATOM      1  C   UNL     1       3.370   6.426  18.855  0.00  0.00    +0.000 C 
ENDROOT
BRANCH   1   2
ATOM      2  C   UNL     1       2.467   5.216  19.131  0.00  0.00    +0.000 A 
ATOM      3  C   UNL     1       2.048   4.873  20.434  0.00  0.00    +0.000 A 
ATOM      4  C   UNL     1       1.247   3.754  20.659  0.00  0.00    +0.000 A 
ATOM      5  C   UNL     1       0.833   2.967  19.591  0.00  0.00    +0.000 A 
ATOM      6  C   UNL     1       1.215   3.305  18.294  0.00  0.00    +0.000 A 
ATOM      7  C   UNL     1       2.022   4.423  18.061  0.00  0.00    +0.000 A 
ENDBRANCH   1   2
BRANCH   1   8
ATOM      8  C   UNL     1       4.542   6.086  17.953  0.00  0.00    +0.000 A 
ATOM      9  C   UNL     1       5.497   5.127  18.292  0.00  0.00    +0.000 A 
ATOM     10  C   UNL     1       6.531   4.852  17.402  0.00  0.00    +0.000 A 
ATOM     11  C   UNL     1       6.564   5.552  16.216  0.00  0.00    +0.000 A 
ATOM     12  N   UNL     1       5.641   6.475  15.899  0.00  0.00    +0.000 NA
ATOM     13  N   UNL     1       4.620   6.746  16.775  0.00  0.00    +0.000 NA
BRANCH  11  14
ATOM     14  O   UNL     1       7.548   5.346  15.294  0.00  0.00    +0.000 OA
ATOM     15  H   UNL     1       7.276   5.759  14.462  0.00  0.00    +0.000 HD
ENDBRANCH  11  14
ENDBRANCH   1   8
BRANCH   1  17
ATOM     16  N   UNL     1       1.899   8.500  17.731  0.00  0.00    +0.000 NA
ATOM     17  C   UNL     1       2.566   7.560  18.240  0.00  0.00    +0.000 C 
ENDBRANCH   1  17
TORSDOF 4
ENDMDL
MODEL 5
REMARK VINA RESULT:      -6.9      2.386      3.267
REMARK  Name = 
REMARK  4 active torsions:
REMARK  status: ('A' for Active; 'I' for Inactive)
REMARK    1  A    between atoms: C_2  and  C_3
REMARK    2  A    between atoms: C_3  and  C_4
REMARK    3  A    between atoms: C_3  and  C_10
REMARK    4  A    between atoms: C_13  and  O_14
REMARK                            x       y       z     vdW  Elec       q    Type
REMARK                         _______ _______ _______ _____ _____    ______ ____
ROOT
ATOM      1  C   UNL     1       3.405   6.443  18.804  0.00  0.00    +0.000 C 
ENDROOT
BRANCH   1   2
ATOM      2  C   UNL     1       2.499   5.230  19.059  0.00  0.00    +0.000 A 
ATOM      3  C   UNL     1       2.074   4.378  18.018  0.00  0.00    +0.000 A 
ATOM      4  C   UNL     1       1.230   3.297  18.274  0.00  0.00    +0.000 A 
ATOM      5  C   UNL     1       0.809   3.035  19.572  0.00  0.00    +0.000 A 
ATOM      6  C   UNL     1       1.239   3.850  20.617  0.00  0.00    +0.000 A 
ATOM      7  C   UNL     1       2.081   4.938  20.367  0.00  0.00    +0.000 A 
ENDBRANCH   1   2
BRANCH   1   8
ATOM      8  C   UNL     1       4.579   6.115  17.900  0.00  0.00    +0.000 A 
ATOM      9  C   UNL     1       5.600   5.244  18.281  0.00  0.00    +0.000 A 
ATOM     10  C   UNL     1       6.632   4.973  17.387  0.00  0.00    +0.000 A 
ATOM     11  C   UNL     1       6.597   5.589  16.156  0.00  0.00    +0.000 A 
ATOM     12  N   UNL     1       5.610   6.427  15.798  0.00  0.00    +0.000 NA
ATOM     13  N   UNL     1       4.591   6.693  16.678  0.00  0.00    +0.000 NA
BRANCH  11  14
ATOM     14  O   UNL     1       7.574   5.380  15.227  0.00  0.00    +0.000 OA
ATOM     15  H   UNL     1       8.402   5.195  15.694  0.00  0.00    +0.000 HD
ENDBRANCH  11  14
ENDBRANCH   1   8
BRANCH   1  17
ATOM     16  N   UNL     1       1.941   8.537  17.709  0.00  0.00    +0.000 NA
ATOM     17  C   UNL     1       2.605   7.588  18.205  0.00  0.00    +0.000 C 
ENDBRANCH   1  17
TORSDOF 4
ENDMDL
MODEL 6
REMARK VINA RESULT:      -6.9      2.456      3.426
REMARK  Name = 
REMARK  4 active torsions:
REMARK  status: ('A' for Active; 'I' for Inactive)
REMARK    1  A    between atoms: C_2  and  C_3
REMARK    2  A    between atoms: C_3  and  C_4
REMARK    3  A    between atoms: C_3  and  C_10
REMARK    4  A    between atoms: C_13  and  O_14
REMARK                            x       y       z     vdW  Elec       q    Type
REMARK                         _______ _______ _______ _____ _____    ______ ____
ROOT
ATOM      1  C   UNL     1       3.460   5.952  19.291  0.00  0.00    +0.000 C 
ENDROOT
BRANCH   1   2
ATOM      2  C   UNL     1       2.466   4.798  19.482  0.00  0.00    +0.000 A 
ATOM      3  C   UNL     1       2.044   4.372  20.759  0.00  0.00    +0.000 A 
ATOM      4  C   UNL     1       1.158   3.305  20.904  0.00  0.00    +0.000 A 
ATOM      5  C   UNL     1       0.663   2.653  19.781  0.00  0.00    +0.000 A 
ATOM      6  C   UNL     1       1.048   3.076  18.509  0.00  0.00    +0.000 A 
ATOM      7  C   UNL     1       1.939   4.143  18.357  0.00  0.00    +0.000 A 
ENDBRANCH   1   2
BRANCH   1   8
ATOM      8  C   UNL     1       4.719   5.525  18.563  0.00  0.00    +0.000 A 
ATOM      9  C   UNL     1       4.974   5.871  17.236  0.00  0.00    +0.000 A 
ATOM     10  C   UNL     1       6.164   5.462  16.642  0.00  0.00    +0.000 A 
ATOM     11  C   UNL     1       7.043   4.722  17.402  0.00  0.00    +0.000 A 
ATOM     12  N   UNL     1       6.790   4.392  18.679  0.00  0.00    +0.000 NA
ATOM     13  N   UNL     1       5.617   4.797  19.266  0.00  0.00    +0.000 NA
BRANCH  11  14
ATOM     14  O   UNL     1       8.228   4.279  16.891  0.00  0.00    +0.000 OA
ATOM     15  H   UNL     1       8.073   3.977  15.983  0.00  0.00    +0.000 HD
ENDBRANCH  11  14
ENDBRANCH   1   8
BRANCH   1  17
ATOM     16  N   UNL     1       2.258   8.052  17.922  0.00  0.00    +0.000 NA
ATOM     17  C   UNL     1       2.802   7.100  18.543  0.00  0.00    +0.000 C 
ENDBRANCH   1  17
TORSDOF 4
ENDMDL
MODEL 7
REMARK VINA RESULT:      -6.8      2.396      3.272
REMARK  Name = 
REMARK  4 active torsions:
REMARK  status: ('A' for Active; 'I' for Inactive)
REMARK    1  A    between atoms: C_2  and  C_3
REMARK    2  A    between atoms: C_3  and  C_4
REMARK    3  A    between atoms: C_3  and  C_10
REMARK    4  A    between atoms: C_13  and  O_14
REMARK                            x       y       z     vdW  Elec       q    Type
REMARK                         _______ _______ _______ _____ _____    ______ ____
ROOT
ATOM      1  C   UNL     1       3.411   6.208  18.916  0.00  0.00    +0.000 C 
ENDROOT
BRANCH   1   2
ATOM      2  C   UNL     1       2.465   5.036  19.214  0.00  0.00    +0.000 A 
ATOM      3  C   UNL     1       1.941   4.215  18.194  0.00  0.00    +0.000 A 
ATOM      4  C   UNL     1       1.064   3.172  18.490  0.00  0.00    +0.000 A 
ATOM      5  C   UNL     1       0.707   2.916  19.808  0.00  0.00    +0.000 A 
ATOM      6  C   UNL     1       1.235   3.699  20.833  0.00  0.00    +0.000 A 
ATOM      7  C   UNL     1       2.111   4.750  20.542  0.00  0.00    +0.000 A 
ENDBRANCH   1   2
BRANCH   1   8
ATOM      8  C   UNL     1       4.567   5.811  18.018  0.00  0.00    +0.000 A 
ATOM      9  C   UNL     1       4.691   6.270  16.706  0.00  0.00    +0.000 A 
ATOM     10  C   UNL     1       5.793   5.882  15.951  0.00  0.00    +0.000 A 
ATOM     11  C   UNL     1       6.719   5.050  16.541  0.00  0.00    +0.000 A 
ATOM     12  N   UNL     1       6.591   4.612  17.804  0.00  0.00    +0.000 NA
ATOM     13  N   UNL     1       5.505   4.996  18.551  0.00  0.00    +0.000 NA
BRANCH  11  14
ATOM     14  O   UNL     1       7.823   4.620  15.865  0.00  0.00    +0.000 OA
ATOM     15  H   UNL     1       7.530   4.182  15.052  0.00  0.00    +0.000 HD
ENDBRANCH  11  14
ENDBRANCH   1   8
BRANCH   1  17
ATOM     16  N   UNL     1       2.013   8.315  17.762  0.00  0.00    +0.000 NA
ATOM     17  C   UNL     1       2.646   7.360  18.285  0.00  0.00    +0.000 C 
ENDBRANCH   1  17
TORSDOF 4
ENDMDL
MODEL 8
REMARK VINA RESULT:      -6.8      1.064      1.479
REMARK  Name = 
REMARK  4 active torsions:
REMARK  status: ('A' for Active; 'I' for Inactive)
REMARK    1  A    between atoms: C_2  and  C_3
REMARK    2  A    between atoms: C_3  and  C_4
REMARK    3  A    between atoms: C_3  and  C_10
REMARK    4  A    between atoms: C_13  and  O_14
REMARK                            x       y       z     vdW  Elec       q    Type
REMARK                         _______ _______ _______ _____ _____    ______ ____
ROOT
ATOM      1  C   UNL     1       5.904   4.442  17.361  0.00  0.00    +0.000 C 
ENDROOT
BRANCH   1   2
ATOM      2  C   UNL     1       4.619   5.241  17.621  0.00  0.00    +0.000 A 
ATOM      3  C   UNL     1       4.579   6.649  17.533  0.00  0.00    +0.000 A 
ATOM      4  C   UNL     1       3.404   7.352  17.798  0.00  0.00    +0.000 A 
ATOM      5  C   UNL     1       2.244   6.666  18.139  0.00  0.00    +0.000 A 
ATOM      6  C   UNL     1       2.257   5.274  18.206  0.00  0.00    +0.000 A 
ATOM      7  C   UNL     1       3.433   4.563  17.946  0.00  0.00    +0.000 A 
ENDBRANCH   1   2
BRANCH   1   8
ATOM      8  C   UNL     1       6.357   4.519  15.915  0.00  0.00    +0.000 A 
ATOM      9  C   UNL     1       5.759   3.771  14.900  0.00  0.00    +0.000 A 
ATOM     10  C   UNL     1       6.213   3.914  13.593  0.00  0.00    +0.000 A 
ATOM     11  C   UNL     1       7.247   4.794  13.361  0.00  0.00    +0.000 A 
ATOM     12  N   UNL     1       7.818   5.509  14.345  0.00  0.00    +0.000 NA
ATOM     13  N   UNL     1       7.369   5.371  15.635  0.00  0.00    +0.000 NA
BRANCH  11  14
ATOM     14  O   UNL     1       7.754   4.985  12.109  0.00  0.00    +0.000 OA
ATOM     15  H   UNL     1       8.165   5.862  12.079  0.00  0.00    +0.000 HD
ENDBRANCH  11  14
ENDBRANCH   1   8
BRANCH   1  17
ATOM     16  N   UNL     1       7.948   5.321  19.027  0.00  0.00    +0.000 NA
ATOM     17  C   UNL     1       7.021   4.923  18.272  0.00  0.00    +0.000 C 
ENDBRANCH   1  17
TORSDOF 4
ENDMDL
MODEL 9
REMARK VINA RESULT:      -6.8      1.057      1.851
REMARK  Name = 
REMARK  4 active torsions:
REMARK  status: ('A' for Active; 'I' for Inactive)
REMARK    1  A    between atoms: C_2  and  C_3
REMARK    2  A    between atoms: C_3  and  C_4
REMARK    3  A    between atoms: C_3  and  C_10
REMARK    4  A    between atoms: C_13  and  O_14
REMARK                            x       y       z     vdW  Elec       q    Type
REMARK                         _______ _______ _______ _____ _____    ______ ____
ROOT
ATOM      1  C   UNL     1       5.926   4.495  17.482  0.00  0.00    +0.000 C 
ENDROOT
BRANCH   1   2
ATOM      2  C   UNL     1       4.619   5.260  17.728  0.00  0.00    +0.000 A 
ATOM      3  C   UNL     1       3.429   4.610  18.116  0.00  0.00    +0.000 A 
ATOM      4  C   UNL     1       2.248   5.327  18.310  0.00  0.00    +0.000 A 
ATOM      5  C   UNL     1       2.235   6.706  18.138  0.00  0.00    +0.000 A 
ATOM      6  C   UNL     1       3.407   7.370  17.780  0.00  0.00    +0.000 A 
ATOM      7  C   UNL     1       4.593   6.656  17.579  0.00  0.00    +0.000 A 
ENDBRANCH   1   2
BRANCH   1   8
ATOM      8  C   UNL     1       6.381   4.564  16.036  0.00  0.00    +0.000 A 
ATOM      9  C   UNL     1       5.771   3.828  15.020  0.00  0.00    +0.000 A 
ATOM     10  C   UNL     1       6.227   3.963  13.713  0.00  0.00    +0.000 A 
ATOM     11  C   UNL     1       7.277   4.825  13.482  0.00  0.00    +0.000 A 
ATOM     12  N   UNL     1       7.860   5.529  14.467  0.00  0.00    +0.000 NA
ATOM     13  N   UNL     1       7.408   5.398  15.756  0.00  0.00    +0.000 NA
BRANCH  11  14
ATOM     14  O   UNL     1       7.787   5.008  12.230  0.00  0.00    +0.000 OA
ATOM     15  H   UNL     1       8.055   4.144  11.883  0.00  0.00    +0.000 HD
ENDBRANCH  11  14
ENDBRANCH   1   8
BRANCH   1  17
ATOM     16  N   UNL     1       7.940   5.455  19.140  0.00  0.00    +0.000 NA
ATOM     17  C   UNL     1       7.027   5.020  18.388  0.00  0.00    +0.000 C 
ENDBRANCH   1  17
TORSDOF 4
ENDMDL
