MODEL 1
REMARK VINA RESULT:      -8.0      0.000      0.000
REMARK  Name = 
REMARK  12 active torsions:
REMARK  status: ('A' for Active; 'I' for Inactive)
REMARK    1  A    between atoms: C_1  and  C_2
REMARK    2  A    between atoms: C_4  and  C_5
REMARK    3  A    between atoms: N_7  and  C_8
REMARK    4  A    between atoms: C_11  and  C_12
REMARK    5  A    between atoms: C_12  and  O_13
REMARK    6  A    between atoms: N_17  and  C_18
REMARK    7  A    between atoms: C_18  and  C_19
REMARK    8  A    between atoms: C_25  and  O_26
REMARK    9  A    between atoms: O_26  and  C_27
REMARK   10  A    between atoms: C_27  and  C_28
REMARK   11  A    between atoms: C_28  and  C_29
REMARK   12  A    between atoms: C_28  and  C_30
REMARK                            x       y       z     vdW  Elec       q    Type
REMARK                         _______ _______ _______ _____ _____    ______ ____
ROOT
ATOM      1  C   UNL     1       0.269   9.444  23.005  0.00  0.00    +0.000 C 
ATOM      2  C   UNL     1       0.547   9.413  21.552  0.00  0.00    +0.000 A 
ATOM      3  C   UNL     1       1.199   8.445  20.825  0.00  0.00    +0.000 A 
ATOM      4  C   UNL     1       1.282   8.933  19.500  0.00  0.00    +0.000 A 
ATOM      5  N   UNL     1       0.614  10.100  19.373  0.00  0.00    +0.000 NA
ATOM      6  N   UNL     1       0.307  10.443  20.667  0.00  0.00    +0.000 N 
ENDROOT
BRANCH   4   7
ATOM      7  C   UNL     1       2.073   8.286  18.437  0.00  0.00    +0.000 C 
ATOM      8  O   UNL     1       2.193   8.846  17.351  0.00  0.00    +0.000 OA
ATOM      9  N   UNL     1       2.609   7.056  18.773  0.00  0.00    +0.000 N 
ATOM     10  H   UNL     1       2.347   6.704  19.689  0.00  0.00    +0.000 HD
BRANCH   9  11
ATOM     11  C   UNL     1       3.464   6.274  17.959  0.00  0.00    +0.000 A 
ATOM     12  C   UNL     1       3.279   4.906  17.739  0.00  0.00    +0.000 A 
ATOM     13  C   UNL     1       4.137   4.177  16.908  0.00  0.00    +0.000 A 
ATOM     14  C   UNL     1       5.206   4.798  16.261  0.00  0.00    +0.000 A 
ATOM     15  C   UNL     1       5.415   6.160  16.500  0.00  0.00    +0.000 A 
ATOM     16  C   UNL     1       4.546   6.896  17.327  0.00  0.00    +0.000 A 
BRANCH  14  17
ATOM     17  C   UNL     1       6.118   3.972  15.392  0.00  0.00    +0.000 C 
BRANCH  17  18
ATOM     18  O   UNL     1       6.598   4.710  14.277  0.00  0.00    +0.000 OA
ATOM     19  H   UNL     1       5.905   5.356  14.057  0.00  0.00    +0.000 HD
ENDBRANCH  17  18
ENDBRANCH  14  17
ENDBRANCH   9  11
ENDBRANCH   4   7
BRANCH   6  20
ATOM     20  C   UNL     1      -0.000  11.856  20.995  0.00  0.00    +0.000 C 
BRANCH  20  21
ATOM     21  C   UNL     1      -1.494  12.121  21.190  0.00  0.00    +0.000 A 
ATOM     22  C   UNL     1      -2.010  12.183  22.512  0.00  0.00    +0.000 A 
ATOM     23  C   UNL     1      -3.341  12.473  22.786  0.00  0.00    +0.000 A 
ATOM     24 CL   UNL     1      -3.900  12.515  24.409  0.00  0.00    +0.000 Cl
ATOM     25  C   UNL     1      -4.207  12.737  21.749  0.00  0.00    +0.000 A 
ATOM     26  C   UNL     1      -3.734  12.699  20.440  0.00  0.00    +0.000 A 
ATOM     27  C   UNL     1      -2.389  12.392  20.125  0.00  0.00    +0.000 A 
BRANCH  27  28
ATOM     28  O   UNL     1      -1.936  12.355  18.809  0.00  0.00    +0.000 OA
BRANCH  28  29
ATOM     29  C   UNL     1      -2.391  11.194  18.075  0.00  0.00    +0.000 C 
BRANCH  29  30
ATOM     30  C   UNL     1      -3.276  11.451  16.846  0.00  0.00    +0.000 C 
ATOM     31  C   UNL     1      -2.769  10.727  15.604  0.00  0.00    +0.000 C 
ATOM     32  C   UNL     1      -4.745  11.152  17.115  0.00  0.00    +0.000 C 
ENDBRANCH  29  30
ENDBRANCH  28  29
ENDBRANCH  27  28
ENDBRANCH  20  21
ENDBRANCH   6  20
TORSDOF 9
ENDMDL
MODEL 2
REMARK VINA RESULT:      -7.7      5.942      9.525
REMARK  Name = 
REMARK  12 active torsions:
REMARK  status: ('A' for Active; 'I' for Inactive)
REMARK    1  A    between atoms: C_1  and  C_2
REMARK    2  A    between atoms: C_4  and  C_5
REMARK    3  A    between atoms: N_7  and  C_8
REMARK    4  A    between atoms: C_11  and  C_12
REMARK    5  A    between atoms: C_12  and  O_13
REMARK    6  A    between atoms: N_17  and  C_18
REMARK    7  A    between atoms: C_18  and  C_19
REMARK    8  A    between atoms: C_25  and  O_26
REMARK    9  A    between atoms: O_26  and  C_27
REMARK   10  A    between atoms: C_27  and  C_28
REMARK   11  A    between atoms: C_28  and  C_29
REMARK   12  A    between atoms: C_28  and  C_30
REMARK                            x       y       z     vdW  Elec       q    Type
REMARK                         _______ _______ _______ _____ _____    ______ ____
ROOT
ATOM      1  C   UNL     1       7.214   4.734  18.647  0.00  0.00    +0.000 C 
ATOM      2  C   UNL     1       7.519   6.121  18.234  0.00  0.00    +0.000 A 
ATOM      3  C   UNL     1       8.285   7.060  18.885  0.00  0.00    +0.000 A 
ATOM      4  C   UNL     1       8.186   8.249  18.125  0.00  0.00    +0.000 A 
ATOM      5  N   UNL     1       7.485   8.038  16.990  0.00  0.00    +0.000 NA
ATOM      6  N   UNL     1       6.964   6.779  17.157  0.00  0.00    +0.000 N 
ENDROOT
BRANCH   4   7
ATOM      7  C   UNL     1       8.707   9.553  18.573  0.00  0.00    +0.000 C 
ATOM      8  O   UNL     1       8.916   9.740  19.768  0.00  0.00    +0.000 OA
ATOM      9  N   UNL     1       8.899  10.483  17.567  0.00  0.00    +0.000 N 
ATOM     10  H   UNL     1       8.600  10.189  16.642  0.00  0.00    +0.000 HD
BRANCH   9  11
ATOM     11  C   UNL     1       9.457  11.775  17.727  0.00  0.00    +0.000 A 
ATOM     12  C   UNL     1      10.830  12.031  17.675  0.00  0.00    +0.000 A 
ATOM     13  C   UNL     1      11.337  13.328  17.816  0.00  0.00    +0.000 A 
ATOM     14  C   UNL     1      10.481  14.414  18.003  0.00  0.00    +0.000 A 
ATOM     15  C   UNL     1       9.108  14.161  18.085  0.00  0.00    +0.000 A 
ATOM     16  C   UNL     1       8.597  12.858  17.933  0.00  0.00    +0.000 A 
BRANCH  14  17
ATOM     17  C   UNL     1      11.070  15.791  18.171  0.00  0.00    +0.000 C 
BRANCH  17  18
ATOM     18  O   UNL     1      10.817  16.616  17.042  0.00  0.00    +0.000 OA
ATOM     19  H   UNL     1      11.670  16.733  16.592  0.00  0.00    +0.000 HD
ENDBRANCH  17  18
ENDBRANCH  14  17
ENDBRANCH   9  11
ENDBRANCH   4   7
BRANCH   6  20
ATOM     20  C   UNL     1       5.776   6.369  16.370  0.00  0.00    +0.000 C 
BRANCH  20  21
ATOM     21  C   UNL     1       4.459   6.538  17.130  0.00  0.00    +0.000 A 
ATOM     22  C   UNL     1       3.918   7.842  17.277  0.00  0.00    +0.000 A 
ATOM     23  C   UNL     1       2.701   8.084  17.903  0.00  0.00    +0.000 A 
ATOM     24 CL   UNL     1       2.116   9.691  18.062  0.00  0.00    +0.000 Cl
ATOM     25  C   UNL     1       1.962   7.029  18.387  0.00  0.00    +0.000 A 
ATOM     26  C   UNL     1       2.454   5.733  18.248  0.00  0.00    +0.000 A 
ATOM     27  C   UNL     1       3.696   5.453  17.630  0.00  0.00    +0.000 A 
BRANCH  27  28
ATOM     28  O   UNL     1       4.173   4.151  17.504  0.00  0.00    +0.000 OA
BRANCH  28  29
ATOM     29  C   UNL     1       3.123   3.159  17.408  0.00  0.00    +0.000 C 
BRANCH  29  30
ATOM     30  C   UNL     1       3.048   2.115  18.532  0.00  0.00    +0.000 C 
ATOM     31  C   UNL     1       4.170   2.277  19.550  0.00  0.00    +0.000 C 
ATOM     32  C   UNL     1       1.680   2.077  19.201  0.00  0.00    +0.000 C 
ENDBRANCH  29  30
ENDBRANCH  28  29
ENDBRANCH  27  28
ENDBRANCH  20  21
ENDBRANCH   6  20
TORSDOF 9
ENDMDL
MODEL 3
REMARK VINA RESULT:      -7.6      7.672     10.879
REMARK  Name = 
REMARK  12 active torsions:
REMARK  status: ('A' for Active; 'I' for Inactive)
REMARK    1  A    between atoms: C_1  and  C_2
REMARK    2  A    between atoms: C_4  and  C_5
REMARK    3  A    between atoms: N_7  and  C_8
REMARK    4  A    between atoms: C_11  and  C_12
REMARK    5  A    between atoms: C_12  and  O_13
REMARK    6  A    between atoms: N_17  and  C_18
REMARK    7  A    between atoms: C_18  and  C_19
REMARK    8  A    between atoms: C_25  and  O_26
REMARK    9  A    between atoms: O_26  and  C_27
REMARK   10  A    between atoms: C_27  and  C_28
REMARK   11  A    between atoms: C_28  and  C_29
REMARK   12  A    between atoms: C_28  and  C_30
REMARK                            x       y       z     vdW  Elec       q    Type
REMARK                         _______ _______ _______ _____ _____    ______ ____
ROOT
ATOM      1  C   UNL     1       7.689   5.530  18.923  0.00  0.00    +0.000 C 
ATOM      2  C   UNL     1       7.840   6.929  18.466  0.00  0.00    +0.000 A 
ATOM      3  C   UNL     1       8.703   7.893  18.930  0.00  0.00    +0.000 A 
ATOM      4  C   UNL     1       8.388   9.079  18.227  0.00  0.00    +0.000 A 
ATOM      5  N   UNL     1       7.449   8.846  17.284  0.00  0.00    +0.000 NA
ATOM      6  N   UNL     1       7.026   7.568  17.554  0.00  0.00    +0.000 N 
ENDROOT
BRANCH   4   7
ATOM      7  C   UNL     1       8.952  10.401  18.555  0.00  0.00    +0.000 C 
ATOM      8  O   UNL     1       9.691  10.515  19.529  0.00  0.00    +0.000 OA
ATOM      9  N   UNL     1       8.565  11.428  17.714  0.00  0.00    +0.000 N 
ATOM     10  H   UNL     1       7.885  11.174  17.003  0.00  0.00    +0.000 HD
BRANCH   9  11
ATOM     11  C   UNL     1       9.026  12.766  17.770  0.00  0.00    +0.000 A 
ATOM     12  C   UNL     1      10.314  13.153  17.387  0.00  0.00    +0.000 A 
ATOM     13  C   UNL     1      10.720  14.492  17.438  0.00  0.00    +0.000 A 
ATOM     14  C   UNL     1       9.843  15.489  17.867  0.00  0.00    +0.000 A 
ATOM     15  C   UNL     1       8.563  15.105  18.280  0.00  0.00    +0.000 A 
ATOM     16  C   UNL     1       8.151  13.761  18.219  0.00  0.00    +0.000 A 
BRANCH  14  17
ATOM     17  C   UNL     1      10.327  16.914  17.928  0.00  0.00    +0.000 C 
BRANCH  17  18
ATOM     18  O   UNL     1      10.832  17.355  16.674  0.00  0.00    +0.000 OA
ATOM     19  H   UNL     1      10.318  16.890  15.993  0.00  0.00    +0.000 HD
ENDBRANCH  17  18
ENDBRANCH  14  17
ENDBRANCH   9  11
ENDBRANCH   4   7
BRANCH   6  20
ATOM     20  C   UNL     1       5.702   7.117  17.062  0.00  0.00    +0.000 C 
BRANCH  20  21
ATOM     21  C   UNL     1       5.779   5.878  16.168  0.00  0.00    +0.000 A 
ATOM     22  C   UNL     1       6.562   5.936  14.985  0.00  0.00    +0.000 A 
ATOM     23  C   UNL     1       6.734   4.844  14.143  0.00  0.00    +0.000 A 
ATOM     24 CL   UNL     1       7.682   4.991  12.719  0.00  0.00    +0.000 Cl
ATOM     25  C   UNL     1       6.149   3.640  14.462  0.00  0.00    +0.000 A 
ATOM     26  C   UNL     1       5.384   3.540  15.623  0.00  0.00    +0.000 A 
ATOM     27  C   UNL     1       5.177   4.637  16.493  0.00  0.00    +0.000 A 
BRANCH  27  28
ATOM     28  O   UNL     1       4.406   4.518  17.647  0.00  0.00    +0.000 OA
BRANCH  28  29
ATOM     29  C   UNL     1       3.893   3.182  17.863  0.00  0.00    +0.000 C 
BRANCH  29  30
ATOM     30  C   UNL     1       2.376   2.987  17.713  0.00  0.00    +0.000 C 
ATOM     31  C   UNL     1       1.802   2.064  18.781  0.00  0.00    +0.000 C 
ATOM     32  C   UNL     1       1.624   4.310  17.645  0.00  0.00    +0.000 C 
ENDBRANCH  29  30
ENDBRANCH  28  29
ENDBRANCH  27  28
ENDBRANCH  20  21
ENDBRANCH   6  20
TORSDOF 9
ENDMDL
MODEL 4
REMARK VINA RESULT:      -7.5      3.523     10.096
REMARK  Name = 
REMARK  12 active torsions:
REMARK  status: ('A' for Active; 'I' for Inactive)
REMARK    1  A    between atoms: C_1  and  C_2
REMARK    2  A    between atoms: C_4  and  C_5
REMARK    3  A    between atoms: N_7  and  C_8
REMARK    4  A    between atoms: C_11  and  C_12
REMARK    5  A    between atoms: C_12  and  O_13
REMARK    6  A    between atoms: N_17  and  C_18
REMARK    7  A    between atoms: C_18  and  C_19
REMARK    8  A    between atoms: C_25  and  O_26
REMARK    9  A    between atoms: O_26  and  C_27
REMARK   10  A    between atoms: C_27  and  C_28
REMARK   11  A    between atoms: C_28  and  C_29
REMARK   12  A    between atoms: C_28  and  C_30
REMARK                            x       y       z     vdW  Elec       q    Type
REMARK                         _______ _______ _______ _____ _____    ______ ____
ROOT
ATOM      1  C   UNL     1       2.251   8.457  17.592  0.00  0.00    +0.000 C 
ATOM      2  C   UNL     1       1.753   8.511  18.984  0.00  0.00    +0.000 A 
ATOM      3  C   UNL     1       0.971   9.474  19.577  0.00  0.00    +0.000 A 
ATOM      4  C   UNL     1       0.852   9.105  20.938  0.00  0.00    +0.000 A 
ATOM      5  N   UNL     1       1.436   7.908  21.166  0.00  0.00    +0.000 NA
ATOM      6  N   UNL     1       2.105   7.643  19.997  0.00  0.00    +0.000 N 
ENDROOT
BRANCH   4   7
ATOM      7  C   UNL     1       0.250   9.967  21.971  0.00  0.00    +0.000 C 
ATOM      8  O   UNL     1       0.500   9.755  23.154  0.00  0.00    +0.000 OA
ATOM      9  N   UNL     1      -0.586  10.959  21.490  0.00  0.00    +0.000 N 
ATOM     10  H   UNL     1      -0.745  10.944  20.487  0.00  0.00    +0.000 HD
BRANCH   9  11
ATOM     11  C   UNL     1      -1.222  11.957  22.268  0.00  0.00    +0.000 A 
ATOM     12  C   UNL     1      -2.475  11.788  22.864  0.00  0.00    +0.000 A 
ATOM     13  C   UNL     1      -3.056  12.794  23.644  0.00  0.00    +0.000 A 
ATOM     14  C   UNL     1      -2.393  14.003  23.861  0.00  0.00    +0.000 A 
ATOM     15  C   UNL     1      -1.152  14.191  23.243  0.00  0.00    +0.000 A 
ATOM     16  C   UNL     1      -0.563  13.175  22.467  0.00  0.00    +0.000 A 
BRANCH  14  17
ATOM     17  C   UNL     1      -3.064  15.068  24.689  0.00  0.00    +0.000 C 
BRANCH  17  18
ATOM     18  O   UNL     1      -3.234  14.659  26.039  0.00  0.00    +0.000 OA
ATOM     19  H   UNL     1      -2.948  15.407  26.590  0.00  0.00    +0.000 HD
ENDBRANCH  17  18
ENDBRANCH  14  17
ENDBRANCH   9  11
ENDBRANCH   4   7
BRANCH   6  20
ATOM     20  C   UNL     1       3.231   6.679  20.002  0.00  0.00    +0.000 C 
BRANCH  20  21
ATOM     21  C   UNL     1       3.007   5.482  19.076  0.00  0.00    +0.000 A 
ATOM     22  C   UNL     1       1.914   4.614  19.335  0.00  0.00    +0.000 A 
ATOM     23  C   UNL     1       1.602   3.535  18.517  0.00  0.00    +0.000 A 
ATOM     24 CL   UNL     1       0.274   2.515  18.900  0.00  0.00    +0.000 Cl
ATOM     25  C   UNL     1       2.355   3.293  17.391  0.00  0.00    +0.000 A 
ATOM     26  C   UNL     1       3.428   4.133  17.096  0.00  0.00    +0.000 A 
ATOM     27  C   UNL     1       3.782   5.230  17.917  0.00  0.00    +0.000 A 
BRANCH  27  28
ATOM     28  O   UNL     1       4.860   6.056  17.607  0.00  0.00    +0.000 OA
BRANCH  28  29
ATOM     29  C   UNL     1       5.284   5.958  16.227  0.00  0.00    +0.000 C 
BRANCH  29  30
ATOM     30  C   UNL     1       6.681   5.373  15.969  0.00  0.00    +0.000 C 
ATOM     31  C   UNL     1       7.250   4.667  17.194  0.00  0.00    +0.000 C 
ATOM     32  C   UNL     1       6.719   4.481  14.734  0.00  0.00    +0.000 C 
ENDBRANCH  29  30
ENDBRANCH  28  29
ENDBRANCH  27  28
ENDBRANCH  20  21
ENDBRANCH   6  20
TORSDOF 9
ENDMDL
MODEL 5
REMARK VINA RESULT:      -7.5      6.080      9.464
REMARK  Name = 
REMARK  12 active torsions:
REMARK  status: ('A' for Active; 'I' for Inactive)
REMARK    1  A    between atoms: C_1  and  C_2
REMARK    2  A    between atoms: C_4  and  C_5
REMARK    3  A    between atoms: N_7  and  C_8
REMARK    4  A    between atoms: C_11  and  C_12
REMARK    5  A    between atoms: C_12  and  O_13
REMARK    6  A    between atoms: N_17  and  C_18
REMARK    7  A    between atoms: C_18  and  C_19
REMARK    8  A    between atoms: C_25  and  O_26
REMARK    9  A    between atoms: O_26  and  C_27
REMARK   10  A    between atoms: C_27  and  C_28
REMARK   11  A    between atoms: C_28  and  C_29
REMARK   12  A    between atoms: C_28  and  C_30
REMARK                            x       y       z     vdW  Elec       q    Type
REMARK                         _______ _______ _______ _____ _____    ______ ____
ROOT
ATOM      1  C   UNL     1       7.593   5.048  19.336  0.00  0.00    +0.000 C 
ATOM      2  C   UNL     1       7.664   6.337  18.612  0.00  0.00    +0.000 A 
ATOM      3  C   UNL     1       8.403   7.454  18.923  0.00  0.00    +0.000 A 
ATOM      4  C   UNL     1       8.048   8.441  17.973  0.00  0.00    +0.000 A 
ATOM      5  N   UNL     1       7.213   7.933  17.040  0.00  0.00    +0.000 NA
ATOM      6  N   UNL     1       6.878   6.699  17.539  0.00  0.00    +0.000 N 
ENDROOT
BRANCH   4   7
ATOM      7  C   UNL     1       8.471   9.850  18.058  0.00  0.00    +0.000 C 
ATOM      8  O   UNL     1       7.867  10.701  17.411  0.00  0.00    +0.000 OA
ATOM      9  N   UNL     1       9.561  10.086  18.877  0.00  0.00    +0.000 N 
ATOM     10  H   UNL     1       9.990   9.256  19.278  0.00  0.00    +0.000 HD
BRANCH   9  11
ATOM     11  C   UNL     1      10.109  11.354  19.185  0.00  0.00    +0.000 A 
ATOM     12  C   UNL     1       9.944  11.985  20.421  0.00  0.00    +0.000 A 
ATOM     13  C   UNL     1      10.523  13.231  20.689  0.00  0.00    +0.000 A 
ATOM     14  C   UNL     1      11.297  13.882  19.728  0.00  0.00    +0.000 A 
ATOM     15  C   UNL     1      11.442  13.270  18.478  0.00  0.00    +0.000 A 
ATOM     16  C   UNL     1      10.868  12.013  18.212  0.00  0.00    +0.000 A 
BRANCH  14  17
ATOM     17  C   UNL     1      11.885  15.231  20.050  0.00  0.00    +0.000 C 
BRANCH  17  18
ATOM     18  O   UNL     1      11.016  16.290  19.670  0.00  0.00    +0.000 OA
ATOM     19  H   UNL     1      11.581  17.068  19.523  0.00  0.00    +0.000 HD
ENDBRANCH  17  18
ENDBRANCH  14  17
ENDBRANCH   9  11
ENDBRANCH   4   7
BRANCH   6  20
ATOM     20  C   UNL     1       5.642   6.030  17.066  0.00  0.00    +0.000 C 
BRANCH  20  21
ATOM     21  C   UNL     1       4.392   6.449  17.841  0.00  0.00    +0.000 A 
ATOM     22  C   UNL     1       3.762   7.678  17.510  0.00  0.00    +0.000 A 
ATOM     23  C   UNL     1       2.593   8.112  18.123  0.00  0.00    +0.000 A 
ATOM     24 CL   UNL     1       1.896   9.619  17.685  0.00  0.00    +0.000 Cl
ATOM     25  C   UNL     1       1.991   7.324  19.076  0.00  0.00    +0.000 A 
ATOM     26  C   UNL     1       2.571   6.104  19.417  0.00  0.00    +0.000 A 
ATOM     27  C   UNL     1       3.770   5.640  18.824  0.00  0.00    +0.000 A 
BRANCH  27  28
ATOM     28  O   UNL     1       4.337   4.419  19.181  0.00  0.00    +0.000 OA
BRANCH  28  29
ATOM     29  C   UNL     1       3.723   3.284  18.526  0.00  0.00    +0.000 C 
BRANCH  29  30
ATOM     30  C   UNL     1       2.718   2.464  19.351  0.00  0.00    +0.000 C 
ATOM     31  C   UNL     1       2.839   2.734  20.845  0.00  0.00    +0.000 C 
ATOM     32  C   UNL     1       1.287   2.635  18.859  0.00  0.00    +0.000 C 
ENDBRANCH  29  30
ENDBRANCH  28  29
ENDBRANCH  27  28
ENDBRANCH  20  21
ENDBRANCH   6  20
TORSDOF 9
ENDMDL
MODEL 6
REMARK VINA RESULT:      -7.5      5.804      9.128
REMARK  Name = 
REMARK  12 active torsions:
REMARK  status: ('A' for Active; 'I' for Inactive)
REMARK    1  A    between atoms: C_1  and  C_2
REMARK    2  A    between atoms: C_4  and  C_5
REMARK    3  A    between atoms: N_7  and  C_8
REMARK    4  A    between atoms: C_11  and  C_12
REMARK    5  A    between atoms: C_12  and  O_13
REMARK    6  A    between atoms: N_17  and  C_18
REMARK    7  A    between atoms: C_18  and  C_19
REMARK    8  A    between atoms: C_25  and  O_26
REMARK    9  A    between atoms: O_26  and  C_27
REMARK   10  A    between atoms: C_27  and  C_28
REMARK   11  A    between atoms: C_28  and  C_29
REMARK   12  A    between atoms: C_28  and  C_30
REMARK                            x       y       z     vdW  Elec       q    Type
REMARK                         _______ _______ _______ _____ _____    ______ ____
ROOT
ATOM      1  C   UNL     1       7.409   4.728  18.862  0.00  0.00    +0.000 C 
ATOM      2  C   UNL     1       7.393   6.091  18.287  0.00  0.00    +0.000 A 
ATOM      3  C   UNL     1       8.220   7.151  18.574  0.00  0.00    +0.000 A 
ATOM      4  C   UNL     1       7.731   8.249  17.826  0.00  0.00    +0.000 A 
ATOM      5  N   UNL     1       6.716   7.868  17.020  0.00  0.00    +0.000 NA
ATOM      6  N   UNL     1       6.432   6.590  17.432  0.00  0.00    +0.000 N 
ENDROOT
BRANCH   4   7
ATOM      7  C   UNL     1       8.217   9.631  17.986  0.00  0.00    +0.000 C 
ATOM      8  O   UNL     1       7.725  10.525  17.305  0.00  0.00    +0.000 OA
ATOM      9  N   UNL     1       9.233   9.790  18.912  0.00  0.00    +0.000 N 
ATOM     10  H   UNL     1       9.577   8.931  19.331  0.00  0.00    +0.000 HD
BRANCH   9  11
ATOM     11  C   UNL     1       9.815  11.021  19.301  0.00  0.00    +0.000 A 
ATOM     12  C   UNL     1      10.741  11.717  18.518  0.00  0.00    +0.000 A 
ATOM     13  C   UNL     1      11.273  12.943  18.933  0.00  0.00    +0.000 A 
ATOM     14  C   UNL     1      10.887  13.517  20.145  0.00  0.00    +0.000 A 
ATOM     15  C   UNL     1       9.984  12.812  20.947  0.00  0.00    +0.000 A 
ATOM     16  C   UNL     1       9.440  11.584  20.526  0.00  0.00    +0.000 A 
BRANCH  14  17
ATOM     17  C   UNL     1      11.501  14.827  20.564  0.00  0.00    +0.000 C 
BRANCH  17  18
ATOM     18  O   UNL     1      10.882  15.353  21.730  0.00  0.00    +0.000 OA
ATOM     19  H   UNL     1       9.925  15.345  21.559  0.00  0.00    +0.000 HD
ENDBRANCH  17  18
ENDBRANCH  14  17
ENDBRANCH   9  11
ENDBRANCH   4   7
BRANCH   6  20
ATOM     20  C   UNL     1       5.104   6.003  17.134  0.00  0.00    +0.000 C 
BRANCH  20  21
ATOM     21  C   UNL     1       3.985   6.557  18.017  0.00  0.00    +0.000 A 
ATOM     22  C   UNL     1       3.382   7.792  17.662  0.00  0.00    +0.000 A 
ATOM     23  C   UNL     1       2.324   8.344  18.373  0.00  0.00    +0.000 A 
ATOM     24 CL   UNL     1       1.655   9.852  17.896  0.00  0.00    +0.000 Cl
ATOM     25  C   UNL     1       1.806   7.670  19.456  0.00  0.00    +0.000 A 
ATOM     26  C   UNL     1       2.362   6.448  19.826  0.00  0.00    +0.000 A 
ATOM     27  C   UNL     1       3.451   5.866  19.133  0.00  0.00    +0.000 A 
BRANCH  27  28
ATOM     28  O   UNL     1       3.995   4.645  19.521  0.00  0.00    +0.000 OA
BRANCH  28  29
ATOM     29  C   UNL     1       3.010   3.594  19.666  0.00  0.00    +0.000 C 
BRANCH  29  30
ATOM     30  C   UNL     1       2.105   3.318  18.455  0.00  0.00    +0.000 C 
ATOM     31  C   UNL     1       2.892   2.850  17.237  0.00  0.00    +0.000 C 
ATOM     32  C   UNL     1       0.962   2.368  18.789  0.00  0.00    +0.000 C 
ENDBRANCH  29  30
ENDBRANCH  28  29
ENDBRANCH  27  28
ENDBRANCH  20  21
ENDBRANCH   6  20
TORSDOF 9
ENDMDL
MODEL 7
REMARK VINA RESULT:      -7.5      3.503      9.823
REMARK  Name = 
REMARK  12 active torsions:
REMARK  status: ('A' for Active; 'I' for Inactive)
REMARK    1  A    between atoms: C_1  and  C_2
REMARK    2  A    between atoms: C_4  and  C_5
REMARK    3  A    between atoms: N_7  and  C_8
REMARK    4  A    between atoms: C_11  and  C_12
REMARK    5  A    between atoms: C_12  and  O_13
REMARK    6  A    between atoms: N_17  and  C_18
REMARK    7  A    between atoms: C_18  and  C_19
REMARK    8  A    between atoms: C_25  and  O_26
REMARK    9  A    between atoms: O_26  and  C_27
REMARK   10  A    between atoms: C_27  and  C_28
REMARK   11  A    between atoms: C_28  and  C_29
REMARK   12  A    between atoms: C_28  and  C_30
REMARK                            x       y       z     vdW  Elec       q    Type
REMARK                         _______ _______ _______ _____ _____    ______ ____
ROOT
ATOM      1  C   UNL     1       2.370   8.294  17.449  0.00  0.00    +0.000 C 
ATOM      2  C   UNL     1       1.873   8.371  18.841  0.00  0.00    +0.000 A 
ATOM      3  C   UNL     1       1.146   9.374  19.437  0.00  0.00    +0.000 A 
ATOM      4  C   UNL     1       1.006   9.009  20.797  0.00  0.00    +0.000 A 
ATOM      5  N   UNL     1       1.521   7.780  21.021  0.00  0.00    +0.000 NA
ATOM      6  N   UNL     1       2.175   7.482  19.851  0.00  0.00    +0.000 N 
ENDROOT
BRANCH   4   7
ATOM      7  C   UNL     1       0.452   9.900  21.831  0.00  0.00    +0.000 C 
ATOM      8  O   UNL     1       0.727   9.698  23.011  0.00  0.00    +0.000 OA
ATOM      9  N   UNL     1      -0.370  10.907  21.358  0.00  0.00    +0.000 N 
ATOM     10  H   UNL     1      -0.554  10.883  20.359  0.00  0.00    +0.000 HD
BRANCH   9  11
ATOM     11  C   UNL     1      -0.960  11.932  22.136  0.00  0.00    +0.000 A 
ATOM     12  C   UNL     1      -2.133  11.758  22.877  0.00  0.00    +0.000 A 
ATOM     13  C   UNL     1      -2.669  12.793  23.652  0.00  0.00    +0.000 A 
ATOM     14  C   UNL     1      -2.039  14.037  23.717  0.00  0.00    +0.000 A 
ATOM     15  C   UNL     1      -0.881  14.227  22.956  0.00  0.00    +0.000 A 
ATOM     16  C   UNL     1      -0.337  13.183  22.185  0.00  0.00    +0.000 A 
BRANCH  14  17
ATOM     17  C   UNL     1      -2.661  15.130  24.546  0.00  0.00    +0.000 C 
BRANCH  17  18
ATOM     18  O   UNL     1      -3.839  14.688  25.206  0.00  0.00    +0.000 OA
ATOM     19  H   UNL     1      -4.528  14.625  24.523  0.00  0.00    +0.000 HD
ENDBRANCH  17  18
ENDBRANCH  14  17
ENDBRANCH   9  11
ENDBRANCH   4   7
BRANCH   6  20
ATOM     20  C   UNL     1       3.245   6.455  19.854  0.00  0.00    +0.000 C 
BRANCH  20  21
ATOM     21  C   UNL     1       2.715   5.028  19.710  0.00  0.00    +0.000 A 
ATOM     22  C   UNL     1       2.171   4.383  20.853  0.00  0.00    +0.000 A 
ATOM     23  C   UNL     1       1.617   3.110  20.804  0.00  0.00    +0.000 A 
ATOM     24 CL   UNL     1       0.993   2.384  22.230  0.00  0.00    +0.000 Cl
ATOM     25  C   UNL     1       1.562   2.436  19.605  0.00  0.00    +0.000 A 
ATOM     26  C   UNL     1       2.073   3.042  18.460  0.00  0.00    +0.000 A 
ATOM     27  C   UNL     1       2.658   4.331  18.478  0.00  0.00    +0.000 A 
BRANCH  27  28
ATOM     28  O   UNL     1       3.167   4.919  17.322  0.00  0.00    +0.000 OA
BRANCH  28  29
ATOM     29  C   UNL     1       4.218   4.145  16.696  0.00  0.00    +0.000 C 
BRANCH  29  30
ATOM     30  C   UNL     1       5.461   4.915  16.223  0.00  0.00    +0.000 C 
ATOM     31  C   UNL     1       5.198   6.409  16.084  0.00  0.00    +0.000 C 
ATOM     32  C   UNL     1       6.683   4.633  17.087  0.00  0.00    +0.000 C 
ENDBRANCH  29  30
ENDBRANCH  28  29
ENDBRANCH  27  28
ENDBRANCH  20  21
ENDBRANCH   6  20
TORSDOF 9
ENDMDL
MODEL 8
REMARK VINA RESULT:      -7.5      3.858     10.164
REMARK  Name = 
REMARK  12 active torsions:
REMARK  status: ('A' for Active; 'I' for Inactive)
REMARK    1  A    between atoms: C_1  and  C_2
REMARK    2  A    between atoms: C_4  and  C_5
REMARK    3  A    between atoms: N_7  and  C_8
REMARK    4  A    between atoms: C_11  and  C_12
REMARK    5  A    between atoms: C_12  and  O_13
REMARK    6  A    between atoms: N_17  and  C_18
REMARK    7  A    between atoms: C_18  and  C_19
REMARK    8  A    between atoms: C_25  and  O_26
REMARK    9  A    between atoms: O_26  and  C_27
REMARK   10  A    between atoms: C_27  and  C_28
REMARK   11  A    between atoms: C_28  and  C_29
REMARK   12  A    between atoms: C_28  and  C_30
REMARK                            x       y       z     vdW  Elec       q    Type
REMARK                         _______ _______ _______ _____ _____    ______ ____
ROOT
ATOM      1  C   UNL     1       2.099   3.387  20.317  0.00  0.00    +0.000 C 
ATOM      2  C   UNL     1       2.238   4.826  20.000  0.00  0.00    +0.000 A 
ATOM      3  C   UNL     1       1.637   5.900  20.614  0.00  0.00    +0.000 A 
ATOM      4  C   UNL     1       2.025   7.045  19.879  0.00  0.00    +0.000 A 
ATOM      5  N   UNL     1       2.919   6.720  18.919  0.00  0.00    +0.000 NA
ATOM      6  N   UNL     1       2.914   5.348  18.917  0.00  0.00    +0.000 N 
ENDROOT
BRANCH   4   7
ATOM      7  C   UNL     1       1.452   8.386  20.088  0.00  0.00    +0.000 C 
ATOM      8  O   UNL     1       1.447   9.191  19.161  0.00  0.00    +0.000 OA
ATOM      9  N   UNL     1       0.972   8.625  21.364  0.00  0.00    +0.000 N 
ATOM     10  H   UNL     1       1.126   7.875  22.032  0.00  0.00    +0.000 HD
BRANCH   9  11
ATOM     11  C   UNL     1       0.309   9.800  21.794  0.00  0.00    +0.000 A 
ATOM     12  C   UNL     1      -0.686   9.806  22.776  0.00  0.00    +0.000 A 
ATOM     13  C   UNL     1      -1.299  10.996  23.187  0.00  0.00    +0.000 A 
ATOM     14  C   UNL     1      -0.925  12.221  22.634  0.00  0.00    +0.000 A 
ATOM     15  C   UNL     1       0.050  12.219  21.631  0.00  0.00    +0.000 A 
ATOM     16  C   UNL     1       0.673  11.024  21.224  0.00  0.00    +0.000 A 
BRANCH  14  17
ATOM     17  C   UNL     1      -1.626  13.475  23.090  0.00  0.00    +0.000 C 
BRANCH  17  18
ATOM     18  O   UNL     1      -1.317  14.585  22.258  0.00  0.00    +0.000 OA
ATOM     19  H   UNL     1      -1.185  14.228  21.363  0.00  0.00    +0.000 HD
ENDBRANCH  17  18
ENDBRANCH  14  17
ENDBRANCH   9  11
ENDBRANCH   4   7
BRANCH   6  20
ATOM     20  C   UNL     1       3.389   4.616  17.719  0.00  0.00    +0.000 C 
BRANCH  20  21
ATOM     21  C   UNL     1       4.906   4.683  17.531  0.00  0.00    +0.000 A 
ATOM     22  C   UNL     1       5.717   5.041  18.640  0.00  0.00    +0.000 A 
ATOM     23  C   UNL     1       7.104   5.075  18.577  0.00  0.00    +0.000 A 
ATOM     24 CL   UNL     1       8.021   5.534  19.954  0.00  0.00    +0.000 Cl
ATOM     25  C   UNL     1       7.741   4.727  17.407  0.00  0.00    +0.000 A 
ATOM     26  C   UNL     1       6.979   4.356  16.301  0.00  0.00    +0.000 A 
ATOM     27  C   UNL     1       5.564   4.327  16.327  0.00  0.00    +0.000 A 
BRANCH  27  28
ATOM     28  O   UNL     1       4.820   3.957  15.210  0.00  0.00    +0.000 OA
BRANCH  28  29
ATOM     29  C   UNL     1       5.322   4.514  13.972  0.00  0.00    +0.000 C 
BRANCH  29  30
ATOM     30  C   UNL     1       5.692   3.519  12.861  0.00  0.00    +0.000 C 
ATOM     31  C   UNL     1       4.562   3.326  11.857  0.00  0.00    +0.000 C 
ATOM     32  C   UNL     1       7.004   3.875  12.175  0.00  0.00    +0.000 C 
ENDBRANCH  29  30
ENDBRANCH  28  29
ENDBRANCH  27  28
ENDBRANCH  20  21
ENDBRANCH   6  20
TORSDOF 9
ENDMDL
MODEL 9
REMARK VINA RESULT:      -7.4      3.566      9.999
REMARK  Name = 
REMARK  12 active torsions:
REMARK  status: ('A' for Active; 'I' for Inactive)
REMARK    1  A    between atoms: C_1  and  C_2
REMARK    2  A    between atoms: C_4  and  C_5
REMARK    3  A    between atoms: N_7  and  C_8
REMARK    4  A    between atoms: C_11  and  C_12
REMARK    5  A    between atoms: C_12  and  O_13
REMARK    6  A    between atoms: N_17  and  C_18
REMARK    7  A    between atoms: C_18  and  C_19
REMARK    8  A    between atoms: C_25  and  O_26
REMARK    9  A    between atoms: O_26  and  C_27
REMARK   10  A    between atoms: C_27  and  C_28
REMARK   11  A    between atoms: C_28  and  C_29
REMARK   12  A    between atoms: C_28  and  C_30
REMARK                            x       y       z     vdW  Elec       q    Type
REMARK                         _______ _______ _______ _____ _____    ______ ____
ROOT
ATOM      1  C   UNL     1       4.062   7.060  16.805  0.00  0.00    +0.000 C 
ATOM      2  C   UNL     1       3.075   7.488  17.821  0.00  0.00    +0.000 A 
ATOM      3  C   UNL     1       2.254   8.591  17.805  0.00  0.00    +0.000 A 
ATOM      4  C   UNL     1       1.573   8.596  19.045  0.00  0.00    +0.000 A 
ATOM      5  N   UNL     1       1.865   7.487  19.759  0.00  0.00    +0.000 NA
ATOM      6  N   UNL     1       2.895   6.909  19.059  0.00  0.00    +0.000 N 
ENDROOT
BRANCH   4   7
ATOM      7  C   UNL     1       0.733   9.713  19.514  0.00  0.00    +0.000 C 
ATOM      8  O   UNL     1      -0.072  10.226  18.743  0.00  0.00    +0.000 OA
ATOM      9  N   UNL     1       0.955  10.102  20.823  0.00  0.00    +0.000 N 
ATOM     10  H   UNL     1       1.715   9.621  21.296  0.00  0.00    +0.000 HD
BRANCH   9  11
ATOM     11  C   UNL     1       0.230  11.093  21.528  0.00  0.00    +0.000 A 
ATOM     12  C   UNL     1       0.437  12.465  21.360  0.00  0.00    +0.000 A 
ATOM     13  C   UNL     1      -0.320  13.410  22.062  0.00  0.00    +0.000 A 
ATOM     14  C   UNL     1      -1.319  13.010  22.951  0.00  0.00    +0.000 A 
ATOM     15  C   UNL     1      -1.512  11.638  23.146  0.00  0.00    +0.000 A 
ATOM     16  C   UNL     1      -0.758  10.688  22.433  0.00  0.00    +0.000 A 
BRANCH  14  17
ATOM     17  C   UNL     1      -2.095  14.060  23.702  0.00  0.00    +0.000 C 
BRANCH  17  18
ATOM     18  O   UNL     1      -3.376  14.282  23.128  0.00  0.00    +0.000 OA
ATOM     19  H   UNL     1      -3.394  13.780  22.295  0.00  0.00    +0.000 HD
ENDBRANCH  17  18
ENDBRANCH  14  17
ENDBRANCH   9  11
ENDBRANCH   4   7
BRANCH   6  20
ATOM     20  C   UNL     1       3.798   5.953  19.743  0.00  0.00    +0.000 C 
BRANCH  20  21
ATOM     21  C   UNL     1       3.550   4.497  19.349  0.00  0.00    +0.000 A 
ATOM     22  C   UNL     1       2.211   4.046  19.207  0.00  0.00    +0.000 A 
ATOM     23  C   UNL     1       1.891   2.757  18.799  0.00  0.00    +0.000 A 
ATOM     24 CL   UNL     1       0.248   2.275  18.665  0.00  0.00    +0.000 Cl
ATOM     25  C   UNL     1       2.898   1.871  18.492  0.00  0.00    +0.000 A 
ATOM     26  C   UNL     1       4.224   2.281  18.606  0.00  0.00    +0.000 A 
ATOM     27  C   UNL     1       4.584   3.581  19.033  0.00  0.00    +0.000 A 
BRANCH  27  28
ATOM     28  O   UNL     1       5.916   3.971  19.144  0.00  0.00    +0.000 OA
BRANCH  28  29
ATOM     29  C   UNL     1       6.448   4.561  17.934  0.00  0.00    +0.000 C 
BRANCH  29  30
ATOM     30  C   UNL     1       7.628   5.532  18.094  0.00  0.00    +0.000 C 
ATOM     31  C   UNL     1       7.405   6.843  17.352  0.00  0.00    +0.000 C 
ATOM     32  C   UNL     1       7.996   5.764  19.554  0.00  0.00    +0.000 C 
ENDBRANCH  29  30
ENDBRANCH  28  29
ENDBRANCH  27  28
ENDBRANCH  20  21
ENDBRANCH   6  20
TORSDOF 9
ENDMDL
