MODEL 1
REMARK VINA RESULT:      -7.3      0.000      0.000
REMARK  Name = 
REMARK  3 active torsions:
REMARK  status: ('A' for Active; 'I' for Inactive)
REMARK    1  A    between atoms: C_11  and  P_12
REMARK    2  A    between atoms: P_12  and  O_14
REMARK    3  A    between atoms: P_12  and  O_15
REMARK                            x       y       z     vdW  Elec       q    Type
REMARK                         _______ _______ _______ _____ _____    ______ ____
ROOT
ATOM      1  O   UNL     1       4.213   2.231  20.101  0.00  0.00    +0.000 OA
ATOM      2  C   UNL     1       4.493   3.204  19.408  0.00  0.00    +0.000 A 
ATOM      3  O   UNL     1       5.749   3.819  19.442  0.00  0.00    +0.000 OA
ATOM      4  C   UNL     1       6.038   4.973  18.676  0.00  0.00    +0.000 A 
ATOM      5  C   UNL     1       7.290   5.567  18.803  0.00  0.00    +0.000 A 
ATOM      6  C   UNL     1       7.577   6.722  18.067  0.00  0.00    +0.000 A 
ATOM      7  C   UNL     1       6.620   7.269  17.212  0.00  0.00    +0.000 A 
ATOM      8  C   UNL     1       5.368   6.663  17.088  0.00  0.00    +0.000 A 
ATOM      9  C   UNL     1       5.081   5.512  17.824  0.00  0.00    +0.000 A 
ATOM     10  C   UNL     1       3.788   4.873  17.755  0.00  0.00    +0.000 A 
ATOM     11  C   UNL     1       3.510   3.798  18.513  0.00  0.00    +0.000 A 
ENDROOT
BRANCH  11  12
ATOM     12  P   UNL     1       1.844   3.042  18.506  0.00  0.00    +0.000 P 
ATOM     13  O   UNL     1       1.296   3.894  17.342  0.00  0.00    +0.000 OA
BRANCH  12  14
ATOM     14  O   UNL     1       2.396   1.695  17.747  0.00  0.00    +0.000 OA
ATOM     15  H   UNL     1       1.664   1.226  17.308  0.00  0.00    +0.000 HD
ENDBRANCH  12  14
BRANCH  12  16
ATOM     16  O   UNL     1       0.269   2.326  18.499  0.00  0.00    +0.000 OA
ATOM     17  H   UNL     1      -0.335   3.082  18.647  0.00  0.00    +0.000 HD
ENDBRANCH  12  16
ENDBRANCH  11  12
TORSDOF 3
ENDMDL
MODEL 2
REMARK VINA RESULT:      -7.2      3.052      5.045
REMARK  Name = 
REMARK  3 active torsions:
REMARK  status: ('A' for Active; 'I' for Inactive)
REMARK    1  A    between atoms: C_11  and  P_12
REMARK    2  A    between atoms: P_12  and  O_14
REMARK    3  A    between atoms: P_12  and  O_15
REMARK                            x       y       z     vdW  Elec       q    Type
REMARK                         _______ _______ _______ _____ _____    ______ ____
ROOT
ATOM      1  O   UNL     1       7.516   4.495  18.436  0.00  0.00    +0.000 OA
ATOM      2  C   UNL     1       6.307   4.374  18.269  0.00  0.00    +0.000 A 
ATOM      3  O   UNL     1       5.439   3.979  19.293  0.00  0.00    +0.000 OA
ATOM      4  C   UNL     1       4.054   3.791  19.069  0.00  0.00    +0.000 A 
ATOM      5  C   UNL     1       3.259   3.341  20.119  0.00  0.00    +0.000 A 
ATOM      6  C   UNL     1       1.893   3.132  19.901  0.00  0.00    +0.000 A 
ATOM      7  C   UNL     1       1.334   3.375  18.645  0.00  0.00    +0.000 A 
ATOM      8  C   UNL     1       2.139   3.830  17.600  0.00  0.00    +0.000 A 
ATOM      9  C   UNL     1       3.502   4.038  17.817  0.00  0.00    +0.000 A 
ATOM     10  C   UNL     1       4.380   4.474  16.756  0.00  0.00    +0.000 A 
ATOM     11  C   UNL     1       5.699   4.615  16.968  0.00  0.00    +0.000 A 
ENDROOT
BRANCH  11  12
ATOM     12  P   UNL     1       6.832   5.070  15.605  0.00  0.00    +0.000 P 
ATOM     13  O   UNL     1       5.751   5.732  14.725  0.00  0.00    +0.000 OA
BRANCH  12  14
ATOM     14  O   UNL     1       7.439   6.337  16.456  0.00  0.00    +0.000 OA
ATOM     15  H   UNL     1       8.157   6.768  15.959  0.00  0.00    +0.000 HD
ENDBRANCH  12  14
BRANCH  12  16
ATOM     16  O   UNL     1       7.903   5.501  14.317  0.00  0.00    +0.000 OA
ATOM     17  H   UNL     1       8.796   5.367  14.696  0.00  0.00    +0.000 HD
ENDBRANCH  12  16
ENDBRANCH  11  12
TORSDOF 3
ENDMDL
MODEL 3
REMARK VINA RESULT:      -6.8      2.973      5.065
REMARK  Name = 
REMARK  3 active torsions:
REMARK  status: ('A' for Active; 'I' for Inactive)
REMARK    1  A    between atoms: C_11  and  P_12
REMARK    2  A    between atoms: P_12  and  O_14
REMARK    3  A    between atoms: P_12  and  O_15
REMARK                            x       y       z     vdW  Elec       q    Type
REMARK                         _______ _______ _______ _____ _____    ______ ____
ROOT
ATOM      1  O   UNL     1       6.525   5.802  19.049  0.00  0.00    +0.000 OA
ATOM      2  C   UNL     1       5.445   5.272  18.809  0.00  0.00    +0.000 A 
ATOM      3  O   UNL     1       4.485   5.032  19.799  0.00  0.00    +0.000 OA
ATOM      4  C   UNL     1       3.267   4.371  19.514  0.00  0.00    +0.000 A 
ATOM      5  C   UNL     1       2.383   4.113  20.558  0.00  0.00    +0.000 A 
ATOM      6  C   UNL     1       1.186   3.441  20.290  0.00  0.00    +0.000 A 
ATOM      7  C   UNL     1       0.879   3.037  18.990  0.00  0.00    +0.000 A 
ATOM      8  C   UNL     1       1.771   3.305  17.948  0.00  0.00    +0.000 A 
ATOM      9  C   UNL     1       2.966   3.974  18.216  0.00  0.00    +0.000 A 
ATOM     10  C   UNL     1       3.933   4.241  17.177  0.00  0.00    +0.000 A 
ATOM     11  C   UNL     1       5.103   4.836  17.463  0.00  0.00    +0.000 A 
ENDROOT
BRANCH  11  12
ATOM     12  P   UNL     1       6.375   5.088  16.172  0.00  0.00    +0.000 P 
ATOM     13  O   UNL     1       5.456   4.736  14.984  0.00  0.00    +0.000 OA
BRANCH  12  14
ATOM     14  O   UNL     1       6.236   6.721  16.273  0.00  0.00    +0.000 OA
ATOM     15  H   UNL     1       7.042   7.108  16.659  0.00  0.00    +0.000 HD
ENDBRANCH  12  14
BRANCH  12  16
ATOM     16  O   UNL     1       7.578   5.326  14.952  0.00  0.00    +0.000 OA
ATOM     17  H   UNL     1       8.274   5.844  15.404  0.00  0.00    +0.000 HD
ENDBRANCH  12  16
ENDBRANCH  11  12
TORSDOF 3
ENDMDL
MODEL 4
REMARK VINA RESULT:      -6.7      3.170      5.353
REMARK  Name = 
REMARK  3 active torsions:
REMARK  status: ('A' for Active; 'I' for Inactive)
REMARK    1  A    between atoms: C_11  and  P_12
REMARK    2  A    between atoms: P_12  and  O_14
REMARK    3  A    between atoms: P_12  and  O_15
REMARK                            x       y       z     vdW  Elec       q    Type
REMARK                         _______ _______ _______ _____ _____    ______ ____
ROOT
ATOM      1  O   UNL     1       5.269   7.061  17.380  0.00  0.00    +0.000 OA
ATOM      2  C   UNL     1       4.628   6.018  17.452  0.00  0.00    +0.000 A 
ATOM      3  O   UNL     1       3.538   5.859  18.316  0.00  0.00    +0.000 OA
ATOM      4  C   UNL     1       2.843   4.631  18.426  0.00  0.00    +0.000 A 
ATOM      5  C   UNL     1       1.806   4.527  19.348  0.00  0.00    +0.000 A 
ATOM      6  C   UNL     1       1.128   3.310  19.479  0.00  0.00    +0.000 A 
ATOM      7  C   UNL     1       1.485   2.215  18.691  0.00  0.00    +0.000 A 
ATOM      8  C   UNL     1       2.525   2.331  17.766  0.00  0.00    +0.000 A 
ATOM      9  C   UNL     1       3.202   3.544  17.637  0.00  0.00    +0.000 A 
ATOM     10  C   UNL     1       4.306   3.700  16.718  0.00  0.00    +0.000 A 
ATOM     11  C   UNL     1       4.983   4.859  16.647  0.00  0.00    +0.000 A 
ENDROOT
BRANCH  11  12
ATOM     12  P   UNL     1       6.444   5.033  15.559  0.00  0.00    +0.000 P 
ATOM     13  O   UNL     1       7.486   4.717  16.653  0.00  0.00    +0.000 OA
BRANCH  12  14
ATOM     14  O   UNL     1       6.179   3.567  14.870  0.00  0.00    +0.000 OA
ATOM     15  H   UNL     1       5.746   2.967  15.504  0.00  0.00    +0.000 HD
ENDBRANCH  12  14
BRANCH  12  16
ATOM     16  O   UNL     1       7.825   5.199  14.530  0.00  0.00    +0.000 OA
ATOM     17  H   UNL     1       7.853   4.356  14.034  0.00  0.00    +0.000 HD
ENDBRANCH  12  16
ENDBRANCH  11  12
TORSDOF 3
ENDMDL
MODEL 5
REMARK VINA RESULT:      -6.7      3.767      4.726
REMARK  Name = 
REMARK  3 active torsions:
REMARK  status: ('A' for Active; 'I' for Inactive)
REMARK    1  A    between atoms: C_11  and  P_12
REMARK    2  A    between atoms: P_12  and  O_14
REMARK    3  A    between atoms: P_12  and  O_15
REMARK                            x       y       z     vdW  Elec       q    Type
REMARK                         _______ _______ _______ _____ _____    ______ ____
ROOT
ATOM      1  O   UNL     1       7.395   6.571  17.552  0.00  0.00    +0.000 OA
ATOM      2  C   UNL     1       6.957   5.873  16.643  0.00  0.00    +0.000 A 
ATOM      3  O   UNL     1       7.600   5.756  15.405  0.00  0.00    +0.000 OA
ATOM      4  C   UNL     1       7.053   4.990  14.348  0.00  0.00    +0.000 A 
ATOM      5  C   UNL     1       7.716   4.965  13.125  0.00  0.00    +0.000 A 
ATOM      6  C   UNL     1       7.171   4.228  12.067  0.00  0.00    +0.000 A 
ATOM      7  C   UNL     1       5.980   3.523  12.239  0.00  0.00    +0.000 A 
ATOM      8  C   UNL     1       5.325   3.551  13.472  0.00  0.00    +0.000 A 
ATOM      9  C   UNL     1       5.867   4.288  14.526  0.00  0.00    +0.000 A 
ATOM     10  C   UNL     1       5.206   4.374  15.808  0.00  0.00    +0.000 A 
ATOM     11  C   UNL     1       5.713   5.133  16.794  0.00  0.00    +0.000 A 
ENDROOT
BRANCH  11  12
ATOM     12  P   UNL     1       4.831   5.328  18.385  0.00  0.00    +0.000 P 
ATOM     13  O   UNL     1       3.763   4.252  18.099  0.00  0.00    +0.000 OA
BRANCH  12  14
ATOM     14  O   UNL     1       5.988   4.490  19.194  0.00  0.00    +0.000 OA
ATOM     15  H   UNL     1       6.482   3.914  18.583  0.00  0.00    +0.000 HD
ENDBRANCH  12  14
BRANCH  12  16
ATOM     16  O   UNL     1       3.998   5.512  19.890  0.00  0.00    +0.000 OA
ATOM     17  H   UNL     1       3.526   6.364  19.796  0.00  0.00    +0.000 HD
ENDBRANCH  12  16
ENDBRANCH  11  12
TORSDOF 3
ENDMDL
MODEL 6
REMARK VINA RESULT:      -6.7      3.259      5.342
REMARK  Name = 
REMARK  3 active torsions:
REMARK  status: ('A' for Active; 'I' for Inactive)
REMARK    1  A    between atoms: C_11  and  P_12
REMARK    2  A    between atoms: P_12  and  O_14
REMARK    3  A    between atoms: P_12  and  O_15
REMARK                            x       y       z     vdW  Elec       q    Type
REMARK                         _______ _______ _______ _____ _____    ______ ____
ROOT
ATOM      1  O   UNL     1       5.174   6.990  17.772  0.00  0.00    +0.000 OA
ATOM      2  C   UNL     1       4.495   5.968  17.787  0.00  0.00    +0.000 A 
ATOM      3  O   UNL     1       3.416   5.792  18.661  0.00  0.00    +0.000 OA
ATOM      4  C   UNL     1       2.678   4.586  18.704  0.00  0.00    +0.000 A 
ATOM      5  C   UNL     1       1.654   4.458  19.638  0.00  0.00    +0.000 A 
ATOM      6  C   UNL     1       0.933   3.261  19.702  0.00  0.00    +0.000 A 
ATOM      7  C   UNL     1       1.234   2.208  18.837  0.00  0.00    +0.000 A 
ATOM      8  C   UNL     1       2.260   2.348  17.901  0.00  0.00    +0.000 A 
ATOM      9  C   UNL     1       2.981   3.542  17.838  0.00  0.00    +0.000 A 
ATOM     10  C   UNL     1       4.073   3.718  16.909  0.00  0.00    +0.000 A 
ATOM     11  C   UNL     1       4.793   4.853  16.901  0.00  0.00    +0.000 A 
ENDROOT
BRANCH  11  12
ATOM     12  P   UNL     1       6.240   5.046  15.798  0.00  0.00    +0.000 P 
ATOM     13  O   UNL     1       5.879   3.869  14.867  0.00  0.00    +0.000 OA
BRANCH  12  14
ATOM     14  O   UNL     1       5.562   6.335  15.039  0.00  0.00    +0.000 OA
ATOM     15  H   UNL     1       5.924   6.430  14.140  0.00  0.00    +0.000 HD
ENDBRANCH  12  14
BRANCH  12  16
ATOM     16  O   UNL     1       7.608   5.229  14.755  0.00  0.00    +0.000 OA
ATOM     17  H   UNL     1       7.295   4.889  13.892  0.00  0.00    +0.000 HD
ENDBRANCH  12  16
ENDBRANCH  11  12
TORSDOF 3
ENDMDL
MODEL 7
REMARK VINA RESULT:      -6.7      2.706      5.513
REMARK  Name = 
REMARK  3 active torsions:
REMARK  status: ('A' for Active; 'I' for Inactive)
REMARK    1  A    between atoms: C_11  and  P_12
REMARK    2  A    between atoms: P_12  and  O_14
REMARK    3  A    between atoms: P_12  and  O_15
REMARK                            x       y       z     vdW  Elec       q    Type
REMARK                         _______ _______ _______ _____ _____    ______ ____
ROOT
ATOM      1  O   UNL     1       5.270   4.584  16.169  0.00  0.00    +0.000 OA
ATOM      2  C   UNL     1       4.642   4.345  17.195  0.00  0.00    +0.000 A 
ATOM      3  O   UNL     1       3.390   3.720  17.185  0.00  0.00    +0.000 OA
ATOM      4  C   UNL     1       2.654   3.500  18.374  0.00  0.00    +0.000 A 
ATOM      5  C   UNL     1       1.390   2.926  18.284  0.00  0.00    +0.000 A 
ATOM      6  C   UNL     1       0.646   2.726  19.452  0.00  0.00    +0.000 A 
ATOM      7  C   UNL     1       1.168   3.093  20.693  0.00  0.00    +0.000 A 
ATOM      8  C   UNL     1       2.440   3.664  20.773  0.00  0.00    +0.000 A 
ATOM      9  C   UNL     1       3.181   3.866  19.607  0.00  0.00    +0.000 A 
ATOM     10  C   UNL     1       4.485   4.486  19.638  0.00  0.00    +0.000 A 
ATOM     11  C   UNL     1       5.161   4.724  18.501  0.00  0.00    +0.000 A 
ENDROOT
BRANCH  11  12
ATOM     12  P   UNL     1       6.769   5.597  18.523  0.00  0.00    +0.000 P 
ATOM     13  O   UNL     1       7.009   5.434  20.038  0.00  0.00    +0.000 OA
BRANCH  12  14
ATOM     14  O   UNL     1       7.547   4.301  17.885  0.00  0.00    +0.000 OA
ATOM     15  H   UNL     1       7.036   3.486  18.039  0.00  0.00    +0.000 HD
ENDBRANCH  12  14
BRANCH  12  16
ATOM     16  O   UNL     1       8.288   6.424  18.543  0.00  0.00    +0.000 OA
ATOM     17  H   UNL     1       8.915   5.757  18.890  0.00  0.00    +0.000 HD
ENDBRANCH  12  16
ENDBRANCH  11  12
TORSDOF 3
ENDMDL
MODEL 8
REMARK VINA RESULT:      -6.6      2.108      2.667
REMARK  Name = 
REMARK  3 active torsions:
REMARK  status: ('A' for Active; 'I' for Inactive)
REMARK    1  A    between atoms: C_11  and  P_12
REMARK    2  A    between atoms: P_12  and  O_14
REMARK    3  A    between atoms: P_12  and  O_15
REMARK                            x       y       z     vdW  Elec       q    Type
REMARK                         _______ _______ _______ _____ _____    ______ ____
ROOT
ATOM      1  O   UNL     1       3.205   1.248  18.705  0.00  0.00    +0.000 OA
ATOM      2  C   UNL     1       3.431   2.415  18.404  0.00  0.00    +0.000 A 
ATOM      3  O   UNL     1       4.105   2.776  17.232  0.00  0.00    +0.000 OA
ATOM      4  C   UNL     1       4.406   4.125  16.927  0.00  0.00    +0.000 A 
ATOM      5  C   UNL     1       5.130   4.407  15.772  0.00  0.00    +0.000 A 
ATOM      6  C   UNL     1       5.451   5.736  15.474  0.00  0.00    +0.000 A 
ATOM      7  C   UNL     1       5.045   6.767  16.322  0.00  0.00    +0.000 A 
ATOM      8  C   UNL     1       4.315   6.474  17.476  0.00  0.00    +0.000 A 
ATOM      9  C   UNL     1       3.997   5.148  17.774  0.00  0.00    +0.000 A 
ATOM     10  C   UNL     1       3.274   4.795  18.974  0.00  0.00    +0.000 A 
ATOM     11  C   UNL     1       3.025   3.509  19.274  0.00  0.00    +0.000 A 
ENDROOT
BRANCH  11  12
ATOM     12  P   UNL     1       2.199   3.047  20.840  0.00  0.00    +0.000 P 
ATOM     13  O   UNL     1       2.130   4.482  21.403  0.00  0.00    +0.000 OA
BRANCH  12  14
ATOM     14  O   UNL     1       0.748   2.876  20.091  0.00  0.00    +0.000 OA
ATOM     15  H   UNL     1       0.545   3.666  19.558  0.00  0.00    +0.000 HD
ENDBRANCH  12  14
BRANCH  12  16
ATOM     16  O   UNL     1       1.417   2.610  22.320  0.00  0.00    +0.000 OA
ATOM     17  H   UNL     1       0.942   3.423  22.586  0.00  0.00    +0.000 HD
ENDBRANCH  12  16
ENDBRANCH  11  12
TORSDOF 3
ENDMDL
MODEL 9
REMARK VINA RESULT:      -6.5      2.935      5.356
REMARK  Name = 
REMARK  3 active torsions:
REMARK  status: ('A' for Active; 'I' for Inactive)
REMARK    1  A    between atoms: C_11  and  P_12
REMARK    2  A    between atoms: P_12  and  O_14
REMARK    3  A    between atoms: P_12  and  O_15
REMARK                            x       y       z     vdW  Elec       q    Type
REMARK                         _______ _______ _______ _____ _____    ______ ____
ROOT
ATOM      1  O   UNL     1       5.076   3.990  15.571  0.00  0.00    +0.000 OA
ATOM      2  C   UNL     1       4.532   4.156  16.658  0.00  0.00    +0.000 A 
ATOM      3  O   UNL     1       3.386   3.452  17.044  0.00  0.00    +0.000 OA
ATOM      4  C   UNL     1       2.740   3.694  18.280  0.00  0.00    +0.000 A 
ATOM      5  C   UNL     1       1.571   2.999  18.574  0.00  0.00    +0.000 A 
ATOM      6  C   UNL     1       0.913   3.249  19.783  0.00  0.00    +0.000 A 
ATOM      7  C   UNL     1       1.427   4.180  20.687  0.00  0.00    +0.000 A 
ATOM      8  C   UNL     1       2.603   4.869  20.384  0.00  0.00    +0.000 A 
ATOM      9  C   UNL     1       3.258   4.622  19.177  0.00  0.00    +0.000 A 
ATOM     10  C   UNL     1       4.458   5.336  18.807  0.00  0.00    +0.000 A 
ATOM     11  C   UNL     1       5.043   5.126  17.615  0.00  0.00    +0.000 A 
ENDROOT
BRANCH  11  12
ATOM     12  P   UNL     1       6.505   6.097  17.097  0.00  0.00    +0.000 P 
ATOM     13  O   UNL     1       6.954   6.469  18.526  0.00  0.00    +0.000 OA
BRANCH  12  14
ATOM     14  O   UNL     1       7.369   4.737  16.783  0.00  0.00    +0.000 OA
ATOM     15  H   UNL     1       8.272   4.817  17.140  0.00  0.00    +0.000 HD
ENDBRANCH  12  14
BRANCH  12  16
ATOM     16  O   UNL     1       7.887   7.015  16.607  0.00  0.00    +0.000 OA
ATOM     17  H   UNL     1       7.705   7.236  15.671  0.00  0.00    +0.000 HD
ENDBRANCH  12  16
ENDBRANCH  11  12
TORSDOF 3
ENDMDL
