MODEL 1
REMARK VINA RESULT:      -7.1      0.000      0.000
REMARK  Name = 
REMARK  5 active torsions:
REMARK  status: ('A' for Active; 'I' for Inactive)
REMARK    1  A    between atoms: C_2  and  C_3
REMARK    2  A    between atoms: C_3  and  N_4
REMARK    3  A    between atoms: C_7  and  C_8
REMARK    4  A    between atoms: C_11  and  O_12
REMARK    5  A    between atoms: C_18  and  C_19
REMARK                            x       y       z     vdW  Elec       q    Type
REMARK                         _______ _______ _______ _____ _____    ______ ____
ROOT
ATOM      1  N   UNL     1       5.596   4.712  14.625  0.00  0.00    +0.000 NA
ATOM      2  C   UNL     1       6.871   5.370  15.035  0.00  0.00    +0.000 C 
ATOM      3  C   UNL     1       7.391   4.840  16.551  0.00  0.00    +0.000 C 
ATOM      4  C   UNL     1       6.213   4.934  17.925  0.00  0.00    +0.000 C 
ATOM      5  C   UNL     1       7.193   4.879  19.089  0.00  0.00    +0.000 C 
ATOM      6  C   UNL     1       4.780   4.580  18.618  0.00  0.00    +0.000 A 
ATOM      7  C   UNL     1       4.256   5.565  19.530  0.00  0.00    +0.000 A 
ATOM      8  C   UNL     1       2.874   5.814  19.609  0.00  0.00    +0.000 A 
ATOM      9  C   UNL     1       1.950   4.972  19.015  0.00  0.00    +0.000 A 
ATOM     10  C   UNL     1       2.408   3.932  18.220  0.00  0.00    +0.000 A 
ATOM     11  C   UNL     1       3.785   3.843  17.928  0.00  0.00    +0.000 A 
ATOM     12  C   UNL     1       4.132   3.360  16.550  0.00  0.00    +0.000 C 
ATOM     13  C   UNL     1       5.081   4.452  15.959  0.00  0.00    +0.000 C 
ATOM     14  C   UNL     1       5.388   5.834  17.036  0.00  0.00    +0.000 C 
ATOM     15  C   UNL     1       6.126   7.201  17.130  0.00  0.00    +0.000 C 
ENDROOT
BRANCH   8  16
ATOM     16  O   UNL     1       2.397   6.995  20.114  0.00  0.00    +0.000 OA
ATOM     17  H   UNL     1       2.317   6.889  21.080  0.00  0.00    +0.000 HD
ENDBRANCH   8  16
BRANCH   1  18
ATOM     18  C   UNL     1       5.998   3.530  13.833  0.00  0.00    +0.000 C 
BRANCH  18  20
ATOM     19  C   UNL     1       4.616   3.252  11.675  0.00  0.00    +0.000 C 
ATOM     20  C   UNL     1       5.769   3.393  12.356  0.00  0.00    +0.000 C 
ENDBRANCH  18  20
ENDBRANCH   1  18
TORSDOF 3
ENDMDL
MODEL 2
REMARK VINA RESULT:      -6.9      2.590      5.480
REMARK  Name = 
REMARK  5 active torsions:
REMARK  status: ('A' for Active; 'I' for Inactive)
REMARK    1  A    between atoms: C_2  and  C_3
REMARK    2  A    between atoms: C_3  and  N_4
REMARK    3  A    between atoms: C_7  and  C_8
REMARK    4  A    between atoms: C_11  and  O_12
REMARK    5  A    between atoms: C_18  and  C_19
REMARK                            x       y       z     vdW  Elec       q    Type
REMARK                         _______ _______ _______ _____ _____    ______ ____
ROOT
ATOM      1  N   UNL     1       3.550   4.496  19.715  0.00  0.00    +0.000 NA
ATOM      2  C   UNL     1       2.662   4.713  18.534  0.00  0.00    +0.000 C 
ATOM      3  C   UNL     1       3.489   4.491  17.080  0.00  0.00    +0.000 C 
ATOM      4  C   UNL     1       5.028   5.420  16.837  0.00  0.00    +0.000 C 
ATOM      5  C   UNL     1       5.122   5.340  15.319  0.00  0.00    +0.000 C 
ATOM      6  C   UNL     1       6.534   5.853  17.289  0.00  0.00    +0.000 A 
ATOM      7  C   UNL     1       6.949   7.182  16.920  0.00  0.00    +0.000 A 
ATOM      8  C   UNL     1       7.767   7.947  17.772  0.00  0.00    +0.000 A 
ATOM      9  C   UNL     1       8.405   7.382  18.863  0.00  0.00    +0.000 A 
ATOM     10  C   UNL     1       8.128   6.064  19.191  0.00  0.00    +0.000 A 
ATOM     11  C   UNL     1       7.110   5.380  18.495  0.00  0.00    +0.000 A 
ATOM     12  C   UNL     1       6.289   4.423  19.310  0.00  0.00    +0.000 C 
ATOM     13  C   UNL     1       4.805   4.851  19.075  0.00  0.00    +0.000 C 
ATOM     14  C   UNL     1       4.596   6.263  18.013  0.00  0.00    +0.000 C 
ATOM     15  C   UNL     1       3.527   7.213  17.397  0.00  0.00    +0.000 C 
ENDROOT
BRANCH   8  16
ATOM     16  O   UNL     1       7.814   9.312  17.667  0.00  0.00    +0.000 OA
ATOM     17  H   UNL     1       8.236   9.524  16.813  0.00  0.00    +0.000 HD
ENDBRANCH   8  16
BRANCH   1  18
ATOM     18  C   UNL     1       3.377   3.075  20.083  0.00  0.00    +0.000 C 
BRANCH  18  20
ATOM     19  C   UNL     1       1.299   2.794  21.583  0.00  0.00    +0.000 C 
ATOM     20  C   UNL     1       2.598   2.607  21.277  0.00  0.00    +0.000 C 
ENDBRANCH  18  20
ENDBRANCH   1  18
TORSDOF 3
ENDMDL
MODEL 3
REMARK VINA RESULT:      -6.9      1.206      1.325
REMARK  Name = 
REMARK  5 active torsions:
REMARK  status: ('A' for Active; 'I' for Inactive)
REMARK    1  A    between atoms: C_2  and  C_3
REMARK    2  A    between atoms: C_3  and  N_4
REMARK    3  A    between atoms: C_7  and  C_8
REMARK    4  A    between atoms: C_11  and  O_12
REMARK    5  A    between atoms: C_18  and  C_19
REMARK                            x       y       z     vdW  Elec       q    Type
REMARK                         _______ _______ _______ _____ _____    ______ ____
ROOT
ATOM      1  N   UNL     1       5.181   4.636  14.877  0.00  0.00    +0.000 NA
ATOM      2  C   UNL     1       5.914   5.843  15.358  0.00  0.00    +0.000 C 
ATOM      3  C   UNL     1       6.578   5.603  16.891  0.00  0.00    +0.000 C 
ATOM      4  C   UNL     1       5.472   5.025  18.205  0.00  0.00    +0.000 C 
ATOM      5  C   UNL     1       6.296   5.442  19.416  0.00  0.00    +0.000 C 
ATOM      6  C   UNL     1       4.406   3.956  18.821  0.00  0.00    +0.000 A 
ATOM      7  C   UNL     1       3.415   4.495  19.718  0.00  0.00    +0.000 A 
ATOM      8  C   UNL     1       2.101   3.990  19.731  0.00  0.00    +0.000 A 
ATOM      9  C   UNL     1       1.770   2.814  19.081  0.00  0.00    +0.000 A 
ATOM     10  C   UNL     1       2.729   2.191  18.298  0.00  0.00    +0.000 A 
ATOM     11  C   UNL     1       3.963   2.836  18.074  0.00  0.00    +0.000 A 
ATOM     12  C   UNL     1       4.560   2.653  16.709  0.00  0.00    +0.000 C 
ATOM     13  C   UNL     1       4.827   4.099  16.179  0.00  0.00    +0.000 C 
ATOM     14  C   UNL     1       4.334   5.400  17.288  0.00  0.00    +0.000 C 
ATOM     15  C   UNL     1       4.253   6.948  17.435  0.00  0.00    +0.000 C 
ENDROOT
BRANCH   8  16
ATOM     16  O   UNL     1       1.064   4.736  20.226  0.00  0.00    +0.000 OA
ATOM     17  H   UNL     1       0.630   4.207  20.920  0.00  0.00    +0.000 HD
ENDBRANCH   8  16
BRANCH   1  18
ATOM     18  C   UNL     1       6.165   3.862  14.091  0.00  0.00    +0.000 C 
BRANCH  18  20
ATOM     19  C   UNL     1       4.853   3.348  11.932  0.00  0.00    +0.000 C 
ATOM     20  C   UNL     1       5.985   3.496  12.647  0.00  0.00    +0.000 C 
ENDBRANCH  18  20
ENDBRANCH   1  18
TORSDOF 3
ENDMDL
MODEL 4
REMARK VINA RESULT:      -6.6      2.599      5.023
REMARK  Name = 
REMARK  5 active torsions:
REMARK  status: ('A' for Active; 'I' for Inactive)
REMARK    1  A    between atoms: C_2  and  C_3
REMARK    2  A    between atoms: C_3  and  N_4
REMARK    3  A    between atoms: C_7  and  C_8
REMARK    4  A    between atoms: C_11  and  O_12
REMARK    5  A    between atoms: C_18  and  C_19
REMARK                            x       y       z     vdW  Elec       q    Type
REMARK                         _______ _______ _______ _____ _____    ______ ____
ROOT
ATOM      1  N   UNL     1       3.222   4.682  19.723  0.00  0.00    +0.000 NA
ATOM      2  C   UNL     1       2.389   4.935  18.510  0.00  0.00    +0.000 C 
ATOM      3  C   UNL     1       3.233   4.598  17.088  0.00  0.00    +0.000 C 
ATOM      4  C   UNL     1       4.851   5.385  16.864  0.00  0.00    +0.000 C 
ATOM      5  C   UNL     1       4.979   5.248  15.353  0.00  0.00    +0.000 C 
ATOM      6  C   UNL     1       6.376   5.702  17.348  0.00  0.00    +0.000 A 
ATOM      7  C   UNL     1       6.913   6.979  16.951  0.00  0.00    +0.000 A 
ATOM      8  C   UNL     1       7.770   7.699  17.804  0.00  0.00    +0.000 A 
ATOM      9  C   UNL     1       8.328   7.118  18.931  0.00  0.00    +0.000 A 
ATOM     10  C   UNL     1       7.930   5.839  19.289  0.00  0.00    +0.000 A 
ATOM     11  C   UNL     1       6.876   5.222  18.583  0.00  0.00    +0.000 A 
ATOM     12  C   UNL     1       5.955   4.364  19.402  0.00  0.00    +0.000 C 
ATOM     13  C   UNL     1       4.520   4.909  19.110  0.00  0.00    +0.000 C 
ATOM     14  C   UNL     1       4.462   6.298  18.001  0.00  0.00    +0.000 C 
ATOM     15  C   UNL     1       3.495   7.316  17.326  0.00  0.00    +0.000 C 
ENDROOT
BRANCH   8  16
ATOM     16  O   UNL     1       7.937   9.051  17.660  0.00  0.00    +0.000 OA
ATOM     17  H   UNL     1       8.878   9.209  17.458  0.00  0.00    +0.000 HD
ENDBRANCH   8  16
BRANCH   1  18
ATOM     18  C   UNL     1       2.919   3.294  20.128  0.00  0.00    +0.000 C 
BRANCH  18  20
ATOM     19  C   UNL     1       3.594   1.361  18.561  0.00  0.00    +0.000 C 
ATOM     20  C   UNL     1       2.698   2.167  19.161  0.00  0.00    +0.000 C 
ENDBRANCH  18  20
ENDBRANCH   1  18
TORSDOF 3
ENDMDL
MODEL 5
REMARK VINA RESULT:      -6.6      2.773      4.887
REMARK  Name = 
REMARK  5 active torsions:
REMARK  status: ('A' for Active; 'I' for Inactive)
REMARK    1  A    between atoms: C_2  and  C_3
REMARK    2  A    between atoms: C_3  and  N_4
REMARK    3  A    between atoms: C_7  and  C_8
REMARK    4  A    between atoms: C_11  and  O_12
REMARK    5  A    between atoms: C_18  and  C_19
REMARK                            x       y       z     vdW  Elec       q    Type
REMARK                         _______ _______ _______ _____ _____    ______ ____
ROOT
ATOM      1  N   UNL     1       3.307   7.308  18.417  0.00  0.00    +0.000 NA
ATOM      2  C   UNL     1       4.632   7.501  17.757  0.00  0.00    +0.000 C 
ATOM      3  C   UNL     1       4.797   6.530  16.386  0.00  0.00    +0.000 C 
ATOM      4  C   UNL     1       4.485   4.754  16.571  0.00  0.00    +0.000 C 
ATOM      5  C   UNL     1       5.220   4.250  15.337  0.00  0.00    +0.000 C 
ATOM      6  C   UNL     1       3.536   3.495  16.989  0.00  0.00    +0.000 A 
ATOM      7  C   UNL     1       4.217   2.322  17.474  0.00  0.00    +0.000 A 
ATOM      8  C   UNL     1       3.660   1.534  18.498  0.00  0.00    +0.000 A 
ATOM      9  C   UNL     1       2.347   1.698  18.906  0.00  0.00    +0.000 A 
ATOM     10  C   UNL     1       1.609   2.746  18.377  0.00  0.00    +0.000 A 
ATOM     11  C   UNL     1       2.250   3.692  17.550  0.00  0.00    +0.000 A 
ATOM     12  C   UNL     1       1.782   5.111  17.694  0.00  0.00    +0.000 C 
ATOM     13  C   UNL     1       3.074   5.943  17.976  0.00  0.00    +0.000 C 
ATOM     14  C   UNL     1       4.572   4.987  18.060  0.00  0.00    +0.000 C 
ATOM     15  C   UNL     1       6.104   5.090  18.317  0.00  0.00    +0.000 C 
ENDROOT
BRANCH   8  16
ATOM     16  O   UNL     1       4.443   0.707  19.258  0.00  0.00    +0.000 OA
ATOM     17  H   UNL     1       5.222   1.221  19.541  0.00  0.00    +0.000 HD
ENDBRANCH   8  16
BRANCH   1  18
ATOM     18  C   UNL     1       2.424   8.345  17.843  0.00  0.00    +0.000 C 
BRANCH  18  20
ATOM     19  C   UNL     1       0.408   9.897  18.255  0.00  0.00    +0.000 C 
ATOM     20  C   UNL     1       1.480   9.184  18.652  0.00  0.00    +0.000 C 
ENDBRANCH  18  20
ENDBRANCH   1  18
TORSDOF 3
ENDMDL
MODEL 6
REMARK VINA RESULT:      -6.5      2.739      4.751
REMARK  Name = 
REMARK  5 active torsions:
REMARK  status: ('A' for Active; 'I' for Inactive)
REMARK    1  A    between atoms: C_2  and  C_3
REMARK    2  A    between atoms: C_3  and  N_4
REMARK    3  A    between atoms: C_7  and  C_8
REMARK    4  A    between atoms: C_11  and  O_12
REMARK    5  A    between atoms: C_18  and  C_19
REMARK                            x       y       z     vdW  Elec       q    Type
REMARK                         _______ _______ _______ _____ _____    ______ ____
ROOT
ATOM      1  N   UNL     1       3.324   7.574  18.283  0.00  0.00    +0.000 NA
ATOM      2  C   UNL     1       4.562   7.561  17.450  0.00  0.00    +0.000 C 
ATOM      3  C   UNL     1       4.665   6.169  16.502  0.00  0.00    +0.000 C 
ATOM      4  C   UNL     1       4.502   4.569  17.337  0.00  0.00    +0.000 C 
ATOM      5  C   UNL     1       5.150   3.679  16.284  0.00  0.00    +0.000 C 
ATOM      6  C   UNL     1       3.690   3.513  18.278  0.00  0.00    +0.000 A 
ATOM      7  C   UNL     1       4.497   2.615  19.065  0.00  0.00    +0.000 A 
ATOM      8  C   UNL     1       4.098   2.230  20.358  0.00  0.00    +0.000 A 
ATOM      9  C   UNL     1       2.821   2.486  20.830  0.00  0.00    +0.000 A 
ATOM     10  C   UNL     1       1.963   3.249  20.053  0.00  0.00    +0.000 A 
ATOM     11  C   UNL     1       2.452   3.855  18.877  0.00  0.00    +0.000 A 
ATOM     12  C   UNL     1       1.899   5.215  18.563  0.00  0.00    +0.000 C 
ATOM     13  C   UNL     1       3.149   6.136  18.383  0.00  0.00    +0.000 C 
ATOM     14  C   UNL     1       4.713   5.323  18.627  0.00  0.00    +0.000 C 
ATOM     15  C   UNL     1       6.251   5.563  18.653  0.00  0.00    +0.000 C 
ENDROOT
BRANCH   8  16
ATOM     16  O   UNL     1       5.008   1.757  21.266  0.00  0.00    +0.000 OA
ATOM     17  H   UNL     1       4.566   1.731  22.135  0.00  0.00    +0.000 HD
ENDBRANCH   8  16
BRANCH   1  18
ATOM     18  C   UNL     1       2.318   8.306  17.484  0.00  0.00    +0.000 C 
BRANCH  18  20
ATOM     19  C   UNL     1       1.051   9.568  19.341  0.00  0.00    +0.000 C 
ATOM     20  C   UNL     1       1.365   9.314  18.056  0.00  0.00    +0.000 C 
ENDBRANCH  18  20
ENDBRANCH   1  18
TORSDOF 3
ENDMDL
MODEL 7
REMARK VINA RESULT:      -6.4      2.372      4.247
REMARK  Name = 
REMARK  5 active torsions:
REMARK  status: ('A' for Active; 'I' for Inactive)
REMARK    1  A    between atoms: C_2  and  C_3
REMARK    2  A    between atoms: C_3  and  N_4
REMARK    3  A    between atoms: C_7  and  C_8
REMARK    4  A    between atoms: C_11  and  O_12
REMARK    5  A    between atoms: C_18  and  C_19
REMARK                            x       y       z     vdW  Elec       q    Type
REMARK                         _______ _______ _______ _____ _____    ______ ____
ROOT
ATOM      1  N   UNL     1       6.342   5.684  18.257  0.00  0.00    +0.000 NA
ATOM      2  C   UNL     1       6.523   4.418  17.487  0.00  0.00    +0.000 C 
ATOM      3  C   UNL     1       5.156   4.041  16.571  0.00  0.00    +0.000 C 
ATOM      4  C   UNL     1       3.559   3.985  17.427  0.00  0.00    +0.000 C 
ATOM      5  C   UNL     1       2.777   3.147  16.425  0.00  0.00    +0.000 C 
ATOM      6  C   UNL     1       2.396   4.663  18.347  0.00  0.00    +0.000 A 
ATOM      7  C   UNL     1       1.650   3.763  19.190  0.00  0.00    +0.000 A 
ATOM      8  C   UNL     1       1.218   4.161  20.469  0.00  0.00    +0.000 A 
ATOM      9  C   UNL     1       1.267   5.485  20.871  0.00  0.00    +0.000 A 
ATOM     10  C   UNL     1       1.872   6.414  20.039  0.00  0.00    +0.000 A 
ATOM     11  C   UNL     1       2.537   5.969  18.877  0.00  0.00    +0.000 A 
ATOM     12  C   UNL     1       3.785   6.719  18.511  0.00  0.00    +0.000 C 
ATOM     13  C   UNL     1       4.895   5.628  18.375  0.00  0.00    +0.000 C 
ATOM     14  C   UNL     1       4.352   3.967  18.712  0.00  0.00    +0.000 C 
ATOM     15  C   UNL     1       4.839   2.492  18.810  0.00  0.00    +0.000 C 
ENDROOT
BRANCH   8  16
ATOM     16  O   UNL     1       0.910   3.235  21.430  0.00  0.00    +0.000 OA
ATOM     17  H   UNL     1       1.168   3.611  22.291  0.00  0.00    +0.000 HD
ENDBRANCH   8  16
BRANCH   1  18
ATOM     18  C   UNL     1       6.891   6.752  17.395  0.00  0.00    +0.000 C 
BRANCH  18  20
ATOM     19  C   UNL     1       7.978   9.051  17.822  0.00  0.00    +0.000 C 
ATOM     20  C   UNL     1       7.970   7.704  17.824  0.00  0.00    +0.000 C 
ENDBRANCH  18  20
ENDBRANCH   1  18
TORSDOF 3
ENDMDL
MODEL 8
REMARK VINA RESULT:      -6.0      2.649      5.409
REMARK  Name = 
REMARK  5 active torsions:
REMARK  status: ('A' for Active; 'I' for Inactive)
REMARK    1  A    between atoms: C_2  and  C_3
REMARK    2  A    between atoms: C_3  and  N_4
REMARK    3  A    between atoms: C_7  and  C_8
REMARK    4  A    between atoms: C_11  and  O_12
REMARK    5  A    between atoms: C_18  and  C_19
REMARK                            x       y       z     vdW  Elec       q    Type
REMARK                         _______ _______ _______ _____ _____    ______ ____
ROOT
ATOM      1  N   UNL     1       4.577   3.006  19.317  0.00  0.00    +0.000 NA
ATOM      2  C   UNL     1       4.698   4.268  20.106  0.00  0.00    +0.000 C 
ATOM      3  C   UNL     1       4.065   5.591  19.273  0.00  0.00    +0.000 C 
ATOM      4  C   UNL     1       4.665   5.891  17.588  0.00  0.00    +0.000 C 
ATOM      5  C   UNL     1       4.274   7.356  17.449  0.00  0.00    +0.000 C 
ATOM      6  C   UNL     1       4.927   5.419  16.049  0.00  0.00    +0.000 A 
ATOM      7  C   UNL     1       6.073   6.000  15.396  0.00  0.00    +0.000 A 
ATOM      8  C   UNL     1       6.847   5.249  14.492  0.00  0.00    +0.000 A 
ATOM      9  C   UNL     1       6.411   4.028  14.005  0.00  0.00    +0.000 A 
ATOM     10  C   UNL     1       5.246   3.481  14.519  0.00  0.00    +0.000 A 
ATOM     11  C   UNL     1       4.613   4.109  15.612  0.00  0.00    +0.000 A 
ATOM     12  C   UNL     1       3.981   3.191  16.618  0.00  0.00    +0.000 C 
ATOM     13  C   UNL     1       4.590   3.608  17.995  0.00  0.00    +0.000 C 
ATOM     14  C   UNL     1       5.781   4.928  17.913  0.00  0.00    +0.000 C 
ATOM     15  C   UNL     1       6.753   5.786  18.776  0.00  0.00    +0.000 C 
ENDROOT
BRANCH   8  16
ATOM     16  O   UNL     1       8.138   5.603  14.204  0.00  0.00    +0.000 OA
ATOM     17  H   UNL     1       8.617   4.789  13.961  0.00  0.00    +0.000 HD
ENDBRANCH   8  16
BRANCH   1  18
ATOM     18  C   UNL     1       3.303   2.392  19.748  0.00  0.00    +0.000 C 
BRANCH  18  20
ATOM     19  C   UNL     1       1.315   2.990  21.276  0.00  0.00    +0.000 C 
ATOM     20  C   UNL     1       2.612   2.714  21.041  0.00  0.00    +0.000 C 
ENDBRANCH  18  20
ENDBRANCH   1  18
TORSDOF 3
ENDMDL
MODEL 9
REMARK VINA RESULT:      -6.0      1.608      3.159
REMARK  Name = 
REMARK  5 active torsions:
REMARK  status: ('A' for Active; 'I' for Inactive)
REMARK    1  A    between atoms: C_2  and  C_3
REMARK    2  A    between atoms: C_3  and  N_4
REMARK    3  A    between atoms: C_7  and  C_8
REMARK    4  A    between atoms: C_11  and  O_12
REMARK    5  A    between atoms: C_18  and  C_19
REMARK                            x       y       z     vdW  Elec       q    Type
REMARK                         _______ _______ _______ _____ _____    ______ ____
ROOT
ATOM      1  N   UNL     1       6.300   5.475  16.989  0.00  0.00    +0.000 NA
ATOM      2  C   UNL     1       6.113   4.036  17.340  0.00  0.00    +0.000 C 
ATOM      3  C   UNL     1       4.518   3.536  17.106  0.00  0.00    +0.000 C 
ATOM      4  C   UNL     1       3.207   4.509  17.895  0.00  0.00    +0.000 C 
ATOM      5  C   UNL     1       2.091   3.473  17.874  0.00  0.00    +0.000 C 
ATOM      6  C   UNL     1       2.420   5.912  18.163  0.00  0.00    +0.000 A 
ATOM      7  C   UNL     1       1.815   6.060  19.462  0.00  0.00    +0.000 A 
ATOM      8  C   UNL     1       1.787   7.310  20.108  0.00  0.00    +0.000 A 
ATOM      9  C   UNL     1       2.105   8.479  19.439  0.00  0.00    +0.000 A 
ATOM     10  C   UNL     1       2.580   8.396  18.139  0.00  0.00    +0.000 A 
ATOM     11  C   UNL     1       2.857   7.129  17.585  0.00  0.00    +0.000 A 
ATOM     12  C   UNL     1       4.049   7.059  16.675  0.00  0.00    +0.000 C 
ATOM     13  C   UNL     1       4.939   5.911  17.251  0.00  0.00    +0.000 C 
ATOM     14  C   UNL     1       4.300   5.140  18.722  0.00  0.00    +0.000 C 
ATOM     15  C   UNL     1       4.609   4.055  19.795  0.00  0.00    +0.000 C 
ENDROOT
BRANCH   8  16
ATOM     16  O   UNL     1       1.629   7.399  21.466  0.00  0.00    +0.000 OA
ATOM     17  H   UNL     1       1.947   8.280  21.739  0.00  0.00    +0.000 HD
ENDBRANCH   8  16
BRANCH   1  18
ATOM     18  C   UNL     1       6.732   5.484  15.575  0.00  0.00    +0.000 C 
BRANCH  18  20
ATOM     19  C   UNL     1       5.960   3.978  13.630  0.00  0.00    +0.000 C 
ATOM     20  C   UNL     1       6.736   4.270  14.692  0.00  0.00    +0.000 C 
ENDBRANCH  18  20
ENDBRANCH   1  18
TORSDOF 3
ENDMDL
