MODEL 1
REMARK VINA RESULT:      -8.0      0.000      0.000
REMARK  Name = 
REMARK  3 active torsions:
REMARK  status: ('A' for Active; 'I' for Inactive)
REMARK    1  A    between atoms: S_2  and  C_4
REMARK    2  A    between atoms: S_2  and  N_14
REMARK    3  A    between atoms: C_8  and  C_9
REMARK                            x       y       z     vdW  Elec       q    Type
REMARK                         _______ _______ _______ _____ _____    ______ ____
ROOT
ATOM      1  O   UNL     1       2.135   3.592  16.774  0.00  0.00    +0.000 OA
ATOM      2  S   UNL     1       3.117   3.259  17.786  0.00  0.00    +0.000 S 
ATOM      3  O   UNL     1       3.342   1.905  18.248  0.00  0.00    +0.000 OA
ENDROOT
BRANCH   2   4
ATOM      4  N   UNL     1       2.638   4.145  19.132  0.00  0.00    +0.000 N 
ATOM      5  C   UNL     1       2.613   3.593  20.378  0.00  0.00    +0.000 A 
ATOM      6  N   UNL     1       1.914   4.339  21.197  0.00  0.00    +0.000 NA
ATOM      7  C   UNL     1       1.812   5.548  20.553  0.00  0.00    +0.000 A 
ATOM      8  C   UNL     1       1.317   6.756  21.060  0.00  0.00    +0.000 A 
ATOM      9  C   UNL     1       1.567   7.928  20.347  0.00  0.00    +0.000 A 
ATOM     10  C   UNL     1       2.221   7.880  19.112  0.00  0.00    +0.000 A 
ATOM     11  C   UNL     1       2.590   6.656  18.517  0.00  0.00    +0.000 A 
ATOM     12  C   UNL     1       2.382   5.499  19.271  0.00  0.00    +0.000 A 
ENDBRANCH   2   4
BRANCH   2  13
ATOM     13  C   UNL     1       4.705   3.901  17.219  0.00  0.00    +0.000 A 
ATOM     14  C   UNL     1       5.130   3.778  15.890  0.00  0.00    +0.000 A 
ATOM     15  C   UNL     1       6.415   4.181  15.520  0.00  0.00    +0.000 A 
ATOM     16  C   UNL     1       7.266   4.751  16.454  0.00  0.00    +0.000 A 
ATOM     17  C   UNL     1       6.854   4.930  17.787  0.00  0.00    +0.000 A 
ATOM     18  C   UNL     1       5.567   4.493  18.160  0.00  0.00    +0.000 A 
BRANCH  17  19
ATOM     19  C   UNL     1       7.788   5.580  18.788  0.00  0.00    +0.000 C 
ATOM     20  F   UNL     1       7.199   5.840  19.991  0.00  0.00    +0.000 F 
ATOM     21  F   UNL     1       8.870   4.808  19.067  0.00  0.00    +0.000 F 
ATOM     22  F   UNL     1       8.275   6.774  18.352  0.00  0.00    +0.000 F 
ENDBRANCH  17  19
ENDBRANCH   2  13
TORSDOF 3
ENDMDL
MODEL 2
REMARK VINA RESULT:      -7.9      2.417      3.003
REMARK  Name = 
REMARK  3 active torsions:
REMARK  status: ('A' for Active; 'I' for Inactive)
REMARK    1  A    between atoms: S_2  and  C_4
REMARK    2  A    between atoms: S_2  and  N_14
REMARK    3  A    between atoms: C_8  and  C_9
REMARK                            x       y       z     vdW  Elec       q    Type
REMARK                         _______ _______ _______ _____ _____    ______ ____
ROOT
ATOM      1  O   UNL     1       2.187   3.265  16.919  0.00  0.00    +0.000 OA
ATOM      2  S   UNL     1       3.233   3.117  17.911  0.00  0.00    +0.000 S 
ATOM      3  O   UNL     1       3.526   1.858  18.564  0.00  0.00    +0.000 OA
ENDROOT
BRANCH   2   4
ATOM      4  N   UNL     1       2.802   4.193  19.128  0.00  0.00    +0.000 N 
ATOM      5  C   UNL     1       2.822   3.830  20.442  0.00  0.00    +0.000 A 
ATOM      6  N   UNL     1       2.152   4.692  21.166  0.00  0.00    +0.000 NA
ATOM      7  C   UNL     1       2.027   5.793  20.355  0.00  0.00    +0.000 A 
ATOM      8  C   UNL     1       1.549   7.066  20.697  0.00  0.00    +0.000 A 
ATOM      9  C   UNL     1       1.774   8.119  19.810  0.00  0.00    +0.000 A 
ATOM     10  C   UNL     1       2.383   7.887  18.574  0.00  0.00    +0.000 A 
ATOM     11  C   UNL     1       2.732   6.587  18.153  0.00  0.00    +0.000 A 
ATOM     12  C   UNL     1       2.551   5.554  19.076  0.00  0.00    +0.000 A 
ENDBRANCH   2   4
BRANCH   2  13
ATOM     13  C   UNL     1       4.767   3.696  17.156  0.00  0.00    +0.000 A 
ATOM     14  C   UNL     1       5.802   4.265  17.908  0.00  0.00    +0.000 A 
ATOM     15  C   UNL     1       6.920   4.809  17.271  0.00  0.00    +0.000 A 
ATOM     16  C   UNL     1       7.037   4.751  15.891  0.00  0.00    +0.000 A 
ATOM     17  C   UNL     1       6.036   4.145  15.110  0.00  0.00    +0.000 A 
ATOM     18  C   UNL     1       4.897   3.625  15.757  0.00  0.00    +0.000 A 
BRANCH  17  19
ATOM     19  C   UNL     1       6.194   4.065  13.605  0.00  0.00    +0.000 C 
ATOM     20  F   UNL     1       6.608   2.841  13.166  0.00  0.00    +0.000 F 
ATOM     21  F   UNL     1       5.034   4.320  12.945  0.00  0.00    +0.000 F 
ATOM     22  F   UNL     1       7.107   4.954  13.125  0.00  0.00    +0.000 F 
ENDBRANCH  17  19
ENDBRANCH   2  13
TORSDOF 3
ENDMDL
MODEL 3
REMARK VINA RESULT:      -7.5      0.928      1.202
REMARK  Name = 
REMARK  3 active torsions:
REMARK  status: ('A' for Active; 'I' for Inactive)
REMARK    1  A    between atoms: S_2  and  C_4
REMARK    2  A    between atoms: S_2  and  N_14
REMARK    3  A    between atoms: C_8  and  C_9
REMARK                            x       y       z     vdW  Elec       q    Type
REMARK                         _______ _______ _______ _____ _____    ______ ____
ROOT
ATOM      1  O   UNL     1       2.219   3.459  16.821  0.00  0.00    +0.000 OA
ATOM      2  S   UNL     1       3.342   3.400  17.735  0.00  0.00    +0.000 S 
ATOM      3  O   UNL     1       3.798   2.167  18.343  0.00  0.00    +0.000 OA
ENDROOT
BRANCH   2   4
ATOM      4  N   UNL     1       2.899   4.416  18.999  0.00  0.00    +0.000 N 
ATOM      5  C   UNL     1       3.005   4.024  20.300  0.00  0.00    +0.000 A 
ATOM      6  N   UNL     1       2.314   4.821  21.077  0.00  0.00    +0.000 NA
ATOM      7  C   UNL     1       2.079   5.931  20.302  0.00  0.00    +0.000 A 
ATOM      8  C   UNL     1       1.534   7.159  20.699  0.00  0.00    +0.000 A 
ATOM      9  C   UNL     1       1.646   8.246  19.832  0.00  0.00    +0.000 A 
ATOM     10  C   UNL     1       2.209   8.085  18.563  0.00  0.00    +0.000 A 
ATOM     11  C   UNL     1       2.623   6.822  18.092  0.00  0.00    +0.000 A 
ATOM     12  C   UNL     1       2.556   5.757  18.994  0.00  0.00    +0.000 A 
ENDBRANCH   2   4
BRANCH   2  13
ATOM     13  C   UNL     1       4.757   4.132  16.887  0.00  0.00    +0.000 A 
ATOM     14  C   UNL     1       5.258   3.616  15.685  0.00  0.00    +0.000 A 
ATOM     15  C   UNL     1       6.426   4.138  15.125  0.00  0.00    +0.000 A 
ATOM     16  C   UNL     1       7.076   5.203  15.729  0.00  0.00    +0.000 A 
ATOM     17  C   UNL     1       6.574   5.775  16.913  0.00  0.00    +0.000 A 
ATOM     18  C   UNL     1       5.412   5.223  17.488  0.00  0.00    +0.000 A 
BRANCH  17  19
ATOM     19  C   UNL     1       7.282   6.957  17.543  0.00  0.00    +0.000 C 
ATOM     20  F   UNL     1       7.968   6.637  18.679  0.00  0.00    +0.000 F 
ATOM     21  F   UNL     1       8.194   7.523  16.709  0.00  0.00    +0.000 F 
ATOM     22  F   UNL     1       6.425   7.952  17.901  0.00  0.00    +0.000 F 
ENDBRANCH  17  19
ENDBRANCH   2  13
TORSDOF 3
ENDMDL
MODEL 4
REMARK VINA RESULT:      -7.5      4.337      5.481
REMARK  Name = 
REMARK  3 active torsions:
REMARK  status: ('A' for Active; 'I' for Inactive)
REMARK    1  A    between atoms: S_2  and  C_4
REMARK    2  A    between atoms: S_2  and  N_14
REMARK    3  A    between atoms: C_8  and  C_9
REMARK                            x       y       z     vdW  Elec       q    Type
REMARK                         _______ _______ _______ _____ _____    ______ ____
ROOT
ATOM      1  O   UNL     1       7.294   4.152  17.134  0.00  0.00    +0.000 OA
ATOM      2  S   UNL     1       6.970   5.376  16.427  0.00  0.00    +0.000 S 
ATOM      3  O   UNL     1       7.672   6.623  16.650  0.00  0.00    +0.000 OA
ENDROOT
BRANCH   2   4
ATOM      4  N   UNL     1       5.360   5.663  16.818  0.00  0.00    +0.000 N 
ATOM      5  C   UNL     1       4.806   6.902  16.693  0.00  0.00    +0.000 A 
ATOM      6  N   UNL     1       3.672   6.965  17.347  0.00  0.00    +0.000 NA
ATOM      7  C   UNL     1       3.336   5.652  17.572  0.00  0.00    +0.000 A 
ATOM      8  C   UNL     1       2.132   5.145  18.078  0.00  0.00    +0.000 A 
ATOM      9  C   UNL     1       1.885   3.777  17.958  0.00  0.00    +0.000 A 
ATOM     10  C   UNL     1       2.857   2.926  17.426  0.00  0.00    +0.000 A 
ATOM     11  C   UNL     1       4.132   3.399  17.054  0.00  0.00    +0.000 A 
ATOM     12  C   UNL     1       4.341   4.779  17.128  0.00  0.00    +0.000 A 
ENDBRANCH   2   4
BRANCH   2  13
ATOM     13  C   UNL     1       7.071   5.014  14.663  0.00  0.00    +0.000 A 
ATOM     14  C   UNL     1       8.099   5.514  13.854  0.00  0.00    +0.000 A 
ATOM     15  C   UNL     1       8.073   5.309  12.472  0.00  0.00    +0.000 A 
ATOM     16  C   UNL     1       7.054   4.568  11.893  0.00  0.00    +0.000 A 
ATOM     17  C   UNL     1       6.032   4.013  12.683  0.00  0.00    +0.000 A 
ATOM     18  C   UNL     1       6.048   4.249  14.072  0.00  0.00    +0.000 A 
BRANCH  17  19
ATOM     19  C   UNL     1       4.941   3.182  12.037  0.00  0.00    +0.000 C 
ATOM     20  F   UNL     1       3.848   3.006  12.833  0.00  0.00    +0.000 F 
ATOM     21  F   UNL     1       4.475   3.738  10.888  0.00  0.00    +0.000 F 
ATOM     22  F   UNL     1       5.361   1.929  11.708  0.00  0.00    +0.000 F 
ENDBRANCH  17  19
ENDBRANCH   2  13
TORSDOF 3
ENDMDL
MODEL 5
REMARK VINA RESULT:      -7.5      3.336      6.038
REMARK  Name = 
REMARK  3 active torsions:
REMARK  status: ('A' for Active; 'I' for Inactive)
REMARK    1  A    between atoms: S_2  and  C_4
REMARK    2  A    between atoms: S_2  and  N_14
REMARK    3  A    between atoms: C_8  and  C_9
REMARK                            x       y       z     vdW  Elec       q    Type
REMARK                         _______ _______ _______ _____ _____    ______ ____
ROOT
ATOM      1  O   UNL     1       2.877   4.272  20.355  0.00  0.00    +0.000 OA
ATOM      2  S   UNL     1       2.869   4.691  18.967  0.00  0.00    +0.000 S 
ATOM      3  O   UNL     1       2.111   4.004  17.942  0.00  0.00    +0.000 OA
ENDROOT
BRANCH   2   4
ATOM      4  N   UNL     1       4.482   4.604  18.501  0.00  0.00    +0.000 N 
ATOM      5  C   UNL     1       5.476   4.385  19.408  0.00  0.00    +0.000 A 
ATOM      6  N   UNL     1       6.643   4.678  18.890  0.00  0.00    +0.000 NA
ATOM      7  C   UNL     1       6.411   4.726  17.537  0.00  0.00    +0.000 A 
ATOM      8  C   UNL     1       7.353   4.827  16.504  0.00  0.00    +0.000 A 
ATOM      9  C   UNL     1       6.936   4.570  15.198  0.00  0.00    +0.000 A 
ATOM     10  C   UNL     1       5.591   4.305  14.922  0.00  0.00    +0.000 A 
ATOM     11  C   UNL     1       4.606   4.350  15.931  0.00  0.00    +0.000 A 
ATOM     12  C   UNL     1       5.051   4.554  17.240  0.00  0.00    +0.000 A 
ENDBRANCH   2   4
BRANCH   2  13
ATOM     13  C   UNL     1       2.361   6.422  18.938  0.00  0.00    +0.000 A 
ATOM     14  C   UNL     1       2.568   7.244  17.823  0.00  0.00    +0.000 A 
ATOM     15  C   UNL     1       2.269   8.607  17.885  0.00  0.00    +0.000 A 
ATOM     16  C   UNL     1       1.721   9.152  19.036  0.00  0.00    +0.000 A 
ATOM     17  C   UNL     1       1.459   8.345  20.158  0.00  0.00    +0.000 A 
ATOM     18  C   UNL     1       1.791   6.977  20.099  0.00  0.00    +0.000 A 
BRANCH  17  19
ATOM     19  C   UNL     1       0.834   8.952  21.398  0.00  0.00    +0.000 C 
ATOM     20  F   UNL     1       0.498  10.266  21.249  0.00  0.00    +0.000 F 
ATOM     21  F   UNL     1      -0.309   8.318  21.768  0.00  0.00    +0.000 F 
ATOM     22  F   UNL     1       1.661   8.906  22.479  0.00  0.00    +0.000 F 
ENDBRANCH  17  19
ENDBRANCH   2  13
TORSDOF 3
ENDMDL
MODEL 6
REMARK VINA RESULT:      -7.4      0.949      1.425
REMARK  Name = 
REMARK  3 active torsions:
REMARK  status: ('A' for Active; 'I' for Inactive)
REMARK    1  A    between atoms: S_2  and  C_4
REMARK    2  A    between atoms: S_2  and  N_14
REMARK    3  A    between atoms: C_8  and  C_9
REMARK                            x       y       z     vdW  Elec       q    Type
REMARK                         _______ _______ _______ _____ _____    ______ ____
ROOT
ATOM      1  O   UNL     1       1.783   4.030  17.215  0.00  0.00    +0.000 OA
ATOM      2  S   UNL     1       2.721   4.011  18.320  0.00  0.00    +0.000 S 
ATOM      3  O   UNL     1       2.824   2.902  19.246  0.00  0.00    +0.000 OA
ENDROOT
BRANCH   2   4
ATOM      4  N   UNL     1       2.304   5.357  19.238  0.00  0.00    +0.000 N 
ATOM      5  C   UNL     1       2.165   5.282  20.592  0.00  0.00    +0.000 A 
ATOM      6  N   UNL     1       1.532   6.334  21.046  0.00  0.00    +0.000 NA
ATOM      7  C   UNL     1       1.605   7.244  20.020  0.00  0.00    +0.000 A 
ATOM      8  C   UNL     1       1.242   8.598  20.041  0.00  0.00    +0.000 A 
ATOM      9  C   UNL     1       1.662   9.413  18.990  0.00  0.00    +0.000 A 
ATOM     10  C   UNL     1       2.350   8.870  17.902  0.00  0.00    +0.000 A 
ATOM     11  C   UNL     1       2.589   7.484  17.795  0.00  0.00    +0.000 A 
ATOM     12  C   UNL     1       2.212   6.691  18.882  0.00  0.00    +0.000 A 
ENDBRANCH   2   4
BRANCH   2  13
ATOM     13  C   UNL     1       4.365   4.282  17.627  0.00  0.00    +0.000 A 
ATOM     14  C   UNL     1       4.694   3.918  16.315  0.00  0.00    +0.000 A 
ATOM     15  C   UNL     1       6.008   4.036  15.858  0.00  0.00    +0.000 A 
ATOM     16  C   UNL     1       6.992   4.558  16.683  0.00  0.00    +0.000 A 
ATOM     17  C   UNL     1       6.686   4.976  17.991  0.00  0.00    +0.000 A 
ATOM     18  C   UNL     1       5.364   4.826  18.456  0.00  0.00    +0.000 A 
BRANCH  17  19
ATOM     19  C   UNL     1       7.769   5.570  18.870  0.00  0.00    +0.000 C 
ATOM     20  F   UNL     1       8.224   6.778  18.429  0.00  0.00    +0.000 F 
ATOM     21  F   UNL     1       7.348   5.777  20.145  0.00  0.00    +0.000 F 
ATOM     22  F   UNL     1       8.869   4.773  18.958  0.00  0.00    +0.000 F 
ENDBRANCH  17  19
ENDBRANCH   2  13
TORSDOF 3
ENDMDL
MODEL 7
REMARK VINA RESULT:      -7.4      4.046      5.811
REMARK  Name = 
REMARK  3 active torsions:
REMARK  status: ('A' for Active; 'I' for Inactive)
REMARK    1  A    between atoms: S_2  and  C_4
REMARK    2  A    between atoms: S_2  and  N_14
REMARK    3  A    between atoms: C_8  and  C_9
REMARK                            x       y       z     vdW  Elec       q    Type
REMARK                         _______ _______ _______ _____ _____    ______ ____
ROOT
ATOM      1  O   UNL     1       4.128   6.352  16.695  0.00  0.00    +0.000 OA
ATOM      2  S   UNL     1       3.824   6.295  18.111  0.00  0.00    +0.000 S 
ATOM      3  O   UNL     1       4.845   6.333  19.137  0.00  0.00    +0.000 OA
ENDROOT
BRANCH   2   4
ATOM      4  N   UNL     1       3.017   4.833  18.300  0.00  0.00    +0.000 N 
ATOM      5  C   UNL     1       2.892   3.948  17.271  0.00  0.00    +0.000 A 
ATOM      6  N   UNL     1       1.970   3.057  17.541  0.00  0.00    +0.000 NA
ATOM      7  C   UNL     1       1.780   3.165  18.897  0.00  0.00    +0.000 A 
ATOM      8  C   UNL     1       1.033   2.324  19.733  0.00  0.00    +0.000 A 
ATOM      9  C   UNL     1       1.203   2.438  21.112  0.00  0.00    +0.000 A 
ATOM     10  C   UNL     1       2.033   3.428  21.645  0.00  0.00    +0.000 A 
ATOM     11  C   UNL     1       2.673   4.379  20.823  0.00  0.00    +0.000 A 
ATOM     12  C   UNL     1       2.536   4.214  19.442  0.00  0.00    +0.000 A 
ENDBRANCH   2   4
BRANCH   2  13
ATOM     13  C   UNL     1       2.665   7.634  18.460  0.00  0.00    +0.000 A 
ATOM     14  C   UNL     1       2.383   8.640  17.529  0.00  0.00    +0.000 A 
ATOM     15  C   UNL     1       1.573   9.722  17.883  0.00  0.00    +0.000 A 
ATOM     16  C   UNL     1       1.003   9.787  19.145  0.00  0.00    +0.000 A 
ATOM     17  C   UNL     1       1.230   8.768  20.089  0.00  0.00    +0.000 A 
ATOM     18  C   UNL     1       2.072   7.696  19.735  0.00  0.00    +0.000 A 
BRANCH  17  19
ATOM     19  C   UNL     1       0.576   8.841  21.454  0.00  0.00    +0.000 C 
ATOM     20  F   UNL     1       0.031  10.061  21.731  0.00  0.00    +0.000 F 
ATOM     21  F   UNL     1      -0.436   7.945  21.595  0.00  0.00    +0.000 F 
ATOM     22  F   UNL     1       1.449   8.590  22.468  0.00  0.00    +0.000 F 
ENDBRANCH  17  19
ENDBRANCH   2  13
TORSDOF 3
ENDMDL
MODEL 8
REMARK VINA RESULT:      -7.2      2.402      3.102
REMARK  Name = 
REMARK  3 active torsions:
REMARK  status: ('A' for Active; 'I' for Inactive)
REMARK    1  A    between atoms: S_2  and  C_4
REMARK    2  A    between atoms: S_2  and  N_14
REMARK    3  A    between atoms: C_8  and  C_9
REMARK                            x       y       z     vdW  Elec       q    Type
REMARK                         _______ _______ _______ _____ _____    ______ ____
ROOT
ATOM      1  O   UNL     1       1.782   4.685  17.714  0.00  0.00    +0.000 OA
ATOM      2  S   UNL     1       2.597   4.806  18.906  0.00  0.00    +0.000 S 
ATOM      3  O   UNL     1       2.558   3.844  19.987  0.00  0.00    +0.000 OA
ENDROOT
BRANCH   2   4
ATOM      4  N   UNL     1       2.140   6.282  19.569  0.00  0.00    +0.000 N 
ATOM      5  C   UNL     1       1.949   6.433  20.911  0.00  0.00    +0.000 A 
ATOM      6  N   UNL     1       1.295   7.540  21.159  0.00  0.00    +0.000 NA
ATOM      7  C   UNL     1       1.403   8.267  19.998  0.00  0.00    +0.000 A 
ATOM      8  C   UNL     1       1.034   9.601  19.779  0.00  0.00    +0.000 A 
ATOM      9  C   UNL     1       1.490  10.233  18.622  0.00  0.00    +0.000 A 
ATOM     10  C   UNL     1       2.222   9.523  17.667  0.00  0.00    +0.000 A 
ATOM     11  C   UNL     1       2.470   8.141  17.802  0.00  0.00    +0.000 A 
ATOM     12  C   UNL     1       2.055   7.538  18.992  0.00  0.00    +0.000 A 
ENDBRANCH   2   4
BRANCH   2  13
ATOM     13  C   UNL     1       4.314   4.934  18.366  0.00  0.00    +0.000 A 
ATOM     14  C   UNL     1       5.347   5.301  19.237  0.00  0.00    +0.000 A 
ATOM     15  C   UNL     1       6.641   5.504  18.752  0.00  0.00    +0.000 A 
ATOM     16  C   UNL     1       6.926   5.299  17.411  0.00  0.00    +0.000 A 
ATOM     17  C   UNL     1       5.921   4.886  16.517  0.00  0.00    +0.000 A 
ATOM     18  C   UNL     1       4.612   4.712  17.008  0.00  0.00    +0.000 A 
BRANCH  17  19
ATOM     19  C   UNL     1       6.257   4.640  15.060  0.00  0.00    +0.000 C 
ATOM     20  F   UNL     1       7.459   5.164  14.683  0.00  0.00    +0.000 F 
ATOM     21  F   UNL     1       6.321   3.316  14.757  0.00  0.00    +0.000 F 
ATOM     22  F   UNL     1       5.339   5.179  14.212  0.00  0.00    +0.000 F 
ENDBRANCH  17  19
ENDBRANCH   2  13
TORSDOF 3
ENDMDL
MODEL 9
REMARK VINA RESULT:      -7.1      3.293      4.144
REMARK  Name = 
REMARK  3 active torsions:
REMARK  status: ('A' for Active; 'I' for Inactive)
REMARK    1  A    between atoms: S_2  and  C_4
REMARK    2  A    between atoms: S_2  and  N_14
REMARK    3  A    between atoms: C_8  and  C_9
REMARK                            x       y       z     vdW  Elec       q    Type
REMARK                         _______ _______ _______ _____ _____    ______ ____
ROOT
ATOM      1  O   UNL     1       3.845   2.964  17.381  0.00  0.00    +0.000 OA
ATOM      2  S   UNL     1       4.839   3.948  17.761  0.00  0.00    +0.000 S 
ATOM      3  O   UNL     1       5.733   3.769  18.886  0.00  0.00    +0.000 OA
ENDROOT
BRANCH   2   4
ATOM      4  N   UNL     1       3.943   5.334  18.084  0.00  0.00    +0.000 N 
ATOM      5  C   UNL     1       3.874   6.362  17.193  0.00  0.00    +0.000 A 
ATOM      6  N   UNL     1       3.410   7.441  17.773  0.00  0.00    +0.000 NA
ATOM      7  C   UNL     1       2.840   6.984  18.935  0.00  0.00    +0.000 A 
ATOM      8  C   UNL     1       2.045   7.696  19.844  0.00  0.00    +0.000 A 
ATOM      9  C   UNL     1       1.329   6.979  20.803  0.00  0.00    +0.000 A 
ATOM     10  C   UNL     1       1.474   5.593  20.906  0.00  0.00    +0.000 A 
ATOM     11  C   UNL     1       2.385   4.882  20.098  0.00  0.00    +0.000 A 
ATOM     12  C   UNL     1       3.051   5.608  19.107  0.00  0.00    +0.000 A 
ENDBRANCH   2   4
BRANCH   2  13
ATOM     13  C   UNL     1       5.863   4.259  16.309  0.00  0.00    +0.000 A 
ATOM     14  C   UNL     1       7.029   5.032  16.367  0.00  0.00    +0.000 A 
ATOM     15  C   UNL     1       7.727   5.347  15.198  0.00  0.00    +0.000 A 
ATOM     16  C   UNL     1       7.297   4.859  13.974  0.00  0.00    +0.000 A 
ATOM     17  C   UNL     1       6.155   4.042  13.886  0.00  0.00    +0.000 A 
ATOM     18  C   UNL     1       5.440   3.753  15.065  0.00  0.00    +0.000 A 
BRANCH  17  19
ATOM     19  C   UNL     1       5.716   3.494  12.543  0.00  0.00    +0.000 C 
ATOM     20  F   UNL     1       5.881   2.145  12.426  0.00  0.00    +0.000 F 
ATOM     21  F   UNL     1       4.402   3.729  12.290  0.00  0.00    +0.000 F 
ATOM     22  F   UNL     1       6.406   4.039  11.503  0.00  0.00    +0.000 F 
ENDBRANCH  17  19
ENDBRANCH   2  13
TORSDOF 3
ENDMDL
