MODEL 1
REMARK VINA RESULT:      -7.6      0.000      0.000
REMARK  Name = 
REMARK  1 active torsions:
REMARK  status: ('A' for Active; 'I' for Inactive)
REMARK    1  A    between atoms: C_2  and  C_3
REMARK                            x       y       z     vdW  Elec       q    Type
REMARK                         _______ _______ _______ _____ _____    ______ ____
ROOT
ATOM      1  O   UNL     1       4.062   5.097  19.978  0.00  0.00    +0.000 OA
ATOM      2  C   UNL     1       3.886   5.833  18.998  0.00  0.00    +0.000 C 
ATOM      3  N   UNL     1       2.844   6.748  18.944  0.00  0.00    +0.000 N 
ATOM      4  C   UNL     1       1.826   6.757  20.013  0.00  0.00    +0.000 C 
ATOM      5  C   UNL     1       1.576   8.178  20.574  0.00  0.00    +0.000 C 
ATOM      6  N   UNL     1       1.342   9.121  19.481  0.00  0.00    +0.000 N 
ATOM      7  C   UNL     1       0.245   9.939  19.380  0.00  0.00    +0.000 A 
ATOM      8  C   UNL     1      -0.372  10.512  20.495  0.00  0.00    +0.000 A 
ATOM      9  N   UNL     1      -1.445  11.344  20.440  0.00  0.00    +0.000 NA
ATOM     10  C   UNL     1      -1.904  11.592  19.198  0.00  0.00    +0.000 A 
ATOM     11  C   UNL     1      -1.315  11.040  18.077  0.00  0.00    +0.000 A 
ATOM     12  N   UNL     1      -0.239  10.223  18.145  0.00  0.00    +0.000 NA
ATOM     13  C   UNL     1       2.335   9.142  18.417  0.00  0.00    +0.000 C 
ATOM     14  C   UNL     1       2.585   7.734  17.879  0.00  0.00    +0.000 C 
ENDROOT
BRANCH   2  15
ATOM     15  C   UNL     1       4.871   5.775  17.866  0.00  0.00    +0.000 A 
ATOM     16  C   UNL     1       6.133   6.522  17.839  0.00  0.00    +0.000 A 
ATOM     17  C   UNL     1       7.074   6.298  16.906  0.00  0.00    +0.000 A 
ATOM     18  C   UNL     1       6.781   5.446  15.809  0.00  0.00    +0.000 A 
ATOM     19  N   UNL     1       7.488   5.129  14.747  0.00  0.00    +0.000 NA
ATOM     20  C   UNL     1       6.653   4.361  13.977  0.00  0.00    +0.000 A 
ATOM     21  C   UNL     1       5.435   4.181  14.592  0.00  0.00    +0.000 A 
ATOM     22  N   UNL     1       5.515   4.868  15.775  0.00  0.00    +0.000 N 
ATOM     23  C   UNL     1       4.576   5.004  16.797  0.00  0.00    +0.000 A 
ENDBRANCH   2  15
TORSDOF 1
ENDMDL
MODEL 2
REMARK VINA RESULT:      -6.8      1.013      1.683
REMARK  Name = 
REMARK  1 active torsions:
REMARK  status: ('A' for Active; 'I' for Inactive)
REMARK    1  A    between atoms: C_2  and  C_3
REMARK                            x       y       z     vdW  Elec       q    Type
REMARK                         _______ _______ _______ _____ _____    ______ ____
ROOT
ATOM      1  O   UNL     1       3.243   4.728  20.801  0.00  0.00    +0.000 OA
ATOM      2  C   UNL     1       3.072   5.284  19.708  0.00  0.00    +0.000 C 
ATOM      3  N   UNL     1       2.208   6.360  19.558  0.00  0.00    +0.000 N 
ATOM      4  C   UNL     1       1.356   6.773  20.690  0.00  0.00    +0.000 C 
ATOM      5  C   UNL     1       1.434   8.295  20.959  0.00  0.00    +0.000 C 
ATOM      6  N   UNL     1       1.228   9.041  19.718  0.00  0.00    +0.000 N 
ATOM      7  C   UNL     1       0.287  10.025  19.548  0.00  0.00    +0.000 A 
ATOM      8  C   UNL     1      -0.069  10.911  20.568  0.00  0.00    +0.000 A 
ATOM      9  N   UNL     1      -0.978  11.913  20.439  0.00  0.00    +0.000 NA
ATOM     10  C   UNL     1      -1.545  12.005  19.220  0.00  0.00    +0.000 A 
ATOM     11  C   UNL     1      -1.213  11.145  18.191  0.00  0.00    +0.000 A 
ATOM     12  N   UNL     1      -0.296  10.159  18.331  0.00  0.00    +0.000 NA
ATOM     13  C   UNL     1       2.062   8.663  18.587  0.00  0.00    +0.000 C 
ATOM     14  C   UNL     1       1.989   7.158  18.338  0.00  0.00    +0.000 C 
ENDROOT
BRANCH   2  15
ATOM     15  C   UNL     1       3.876   4.818  18.528  0.00  0.00    +0.000 A 
ATOM     16  C   UNL     1       3.432   3.776  17.596  0.00  0.00    +0.000 A 
ATOM     17  C   UNL     1       4.084   3.523  16.447  0.00  0.00    +0.000 A 
ATOM     18  C   UNL     1       5.334   4.149  16.202  0.00  0.00    +0.000 A 
ATOM     19  N   UNL     1       6.187   4.016  15.211  0.00  0.00    +0.000 NA
ATOM     20  C   UNL     1       7.268   4.782  15.564  0.00  0.00    +0.000 A 
ATOM     21  C   UNL     1       7.057   5.415  16.768  0.00  0.00    +0.000 A 
ATOM     22  N   UNL     1       5.810   5.020  17.177  0.00  0.00    +0.000 N 
ATOM     23  C   UNL     1       5.087   5.376  18.315  0.00  0.00    +0.000 A 
ENDBRANCH   2  15
TORSDOF 1
ENDMDL
MODEL 3
REMARK VINA RESULT:      -6.8      2.946      4.348
REMARK  Name = 
REMARK  1 active torsions:
REMARK  status: ('A' for Active; 'I' for Inactive)
REMARK    1  A    between atoms: C_2  and  C_3
REMARK                            x       y       z     vdW  Elec       q    Type
REMARK                         _______ _______ _______ _____ _____    ______ ____
ROOT
ATOM      1  O   UNL     1       2.567   8.010  17.481  0.00  0.00    +0.000 OA
ATOM      2  C   UNL     1       2.243   7.855  18.666  0.00  0.00    +0.000 C 
ATOM      3  N   UNL     1       1.606   8.853  19.390  0.00  0.00    +0.000 N 
ATOM      4  C   UNL     1       1.431  10.190  18.789  0.00  0.00    +0.000 C 
ATOM      5  C   UNL     1      -0.024  10.704  18.914  0.00  0.00    +0.000 C 
ATOM      6  N   UNL     1      -0.491  10.573  20.294  0.00  0.00    +0.000 N 
ATOM      7  C   UNL     1      -1.012  11.600  21.040  0.00  0.00    +0.000 A 
ATOM      8  C   UNL     1      -1.800  12.611  20.483  0.00  0.00    +0.000 A 
ATOM      9  N   UNL     1      -2.354  13.634  21.186  0.00  0.00    +0.000 NA
ATOM     10  C   UNL     1      -2.086  13.620  22.507  0.00  0.00    +0.000 A 
ATOM     11  C   UNL     1      -1.312  12.634  23.086  0.00  0.00    +0.000 A 
ATOM     12  N   UNL     1      -0.777  11.614  22.375  0.00  0.00    +0.000 NA
ATOM     13  C   UNL     1      -0.340   9.263  20.910  0.00  0.00    +0.000 C 
ATOM     14  C   UNL     1       1.095   8.759  20.769  0.00  0.00    +0.000 C 
ENDROOT
BRANCH   2  15
ATOM     15  C   UNL     1       2.492   6.523  19.314  0.00  0.00    +0.000 A 
ATOM     16  C   UNL     1       1.682   5.984  20.412  0.00  0.00    +0.000 A 
ATOM     17  C   UNL     1       1.811   4.714  20.834  0.00  0.00    +0.000 A 
ATOM     18  C   UNL     1       2.874   3.917  20.336  0.00  0.00    +0.000 A 
ATOM     19  N   UNL     1       3.254   2.695  20.638  0.00  0.00    +0.000 NA
ATOM     20  C   UNL     1       4.407   2.491  19.924  0.00  0.00    +0.000 A 
ATOM     21  C   UNL     1       4.714   3.589  19.153  0.00  0.00    +0.000 A 
ATOM     22  N   UNL     1       3.726   4.505  19.405  0.00  0.00    +0.000 N 
ATOM     23  C   UNL     1       3.531   5.780  18.877  0.00  0.00    +0.000 A 
ENDBRANCH   2  15
TORSDOF 1
ENDMDL
MODEL 4
REMARK VINA RESULT:      -6.4      3.151      4.087
REMARK  Name = 
REMARK  1 active torsions:
REMARK  status: ('A' for Active; 'I' for Inactive)
REMARK    1  A    between atoms: C_2  and  C_3
REMARK                            x       y       z     vdW  Elec       q    Type
REMARK                         _______ _______ _______ _____ _____    ______ ____
ROOT
ATOM      1  O   UNL     1       2.860   8.192  16.885  0.00  0.00    +0.000 OA
ATOM      2  C   UNL     1       2.520   7.871  18.031  0.00  0.00    +0.000 C 
ATOM      3  N   UNL     1       1.860   8.752  18.876  0.00  0.00    +0.000 N 
ATOM      4  C   UNL     1       1.678  10.158  18.463  0.00  0.00    +0.000 C 
ATOM      5  C   UNL     1       0.215  10.635  18.634  0.00  0.00    +0.000 C 
ATOM      6  N   UNL     1      -0.272  10.309  19.974  0.00  0.00    +0.000 N 
ATOM      7  C   UNL     1      -0.817  11.217  20.846  0.00  0.00    +0.000 A 
ATOM      8  C   UNL     1      -1.608  12.288  20.422  0.00  0.00    +0.000 A 
ATOM      9  N   UNL     1      -2.186  13.197  21.250  0.00  0.00    +0.000 NA
ATOM     10  C   UNL     1      -1.938  13.003  22.561  0.00  0.00    +0.000 A 
ATOM     11  C   UNL     1      -1.161  11.953  23.011  0.00  0.00    +0.000 A 
ATOM     12  N   UNL     1      -0.603  11.048  22.174  0.00  0.00    +0.000 NA
ATOM     13  C   UNL     1      -0.115   8.928  20.404  0.00  0.00    +0.000 C 
ATOM     14  C   UNL     1       1.328   8.462  20.219  0.00  0.00    +0.000 C 
ENDROOT
BRANCH   2  15
ATOM     15  C   UNL     1       2.775   6.464  18.492  0.00  0.00    +0.000 A 
ATOM     16  C   UNL     1       3.970   6.050  19.234  0.00  0.00    +0.000 A 
ATOM     17  C   UNL     1       4.073   4.833  19.796  0.00  0.00    +0.000 A 
ATOM     18  C   UNL     1       3.084   3.852  19.524  0.00  0.00    +0.000 A 
ATOM     19  N   UNL     1       2.996   2.591  19.884  0.00  0.00    +0.000 NA
ATOM     20  C   UNL     1       1.887   2.110  19.235  0.00  0.00    +0.000 A 
ATOM     21  C   UNL     1       1.275   3.099  18.498  0.00  0.00    +0.000 A 
ATOM     22  N   UNL     1       2.035   4.224  18.689  0.00  0.00    +0.000 N 
ATOM     23  C   UNL     1       1.860   5.516  18.196  0.00  0.00    +0.000 A 
ENDBRANCH   2  15
TORSDOF 1
ENDMDL
MODEL 5
REMARK VINA RESULT:      -6.3      1.259      1.494
REMARK  Name = 
REMARK  1 active torsions:
REMARK  status: ('A' for Active; 'I' for Inactive)
REMARK    1  A    between atoms: C_2  and  C_3
REMARK                            x       y       z     vdW  Elec       q    Type
REMARK                         _______ _______ _______ _____ _____    ______ ____
ROOT
ATOM      1  O   UNL     1       3.741   3.480  18.900  0.00  0.00    +0.000 OA
ATOM      2  C   UNL     1       3.768   4.587  18.347  0.00  0.00    +0.000 C 
ATOM      3  N   UNL     1       2.909   5.613  18.716  0.00  0.00    +0.000 N 
ATOM      4  C   UNL     1       1.834   5.348  19.692  0.00  0.00    +0.000 C 
ATOM      5  C   UNL     1       1.797   6.401  20.826  0.00  0.00    +0.000 C 
ATOM      6  N   UNL     1       1.810   7.752  20.265  0.00  0.00    +0.000 N 
ATOM      7  C   UNL     1       0.884   8.722  20.549  0.00  0.00    +0.000 A 
ATOM      8  C   UNL     1       0.298   8.858  21.810  0.00  0.00    +0.000 A 
ATOM      9  N   UNL     1      -0.606   9.817  22.143  0.00  0.00    +0.000 NA
ATOM     10  C   UNL     1      -0.924  10.662  21.143  0.00  0.00    +0.000 A 
ATOM     11  C   UNL     1      -0.362  10.554  19.886  0.00  0.00    +0.000 A 
ATOM     12  N   UNL     1       0.547   9.601  19.573  0.00  0.00    +0.000 NA
ATOM     13  C   UNL     1       2.866   8.046  19.306  0.00  0.00    +0.000 C 
ATOM     14  C   UNL     1       2.903   6.994  18.199  0.00  0.00    +0.000 C 
ENDROOT
BRANCH   2  15
ATOM     15  C   UNL     1       4.806   4.844  17.293  0.00  0.00    +0.000 A 
ATOM     16  C   UNL     1       5.972   5.712  17.487  0.00  0.00    +0.000 A 
ATOM     17  C   UNL     1       6.977   5.764  16.595  0.00  0.00    +0.000 A 
ATOM     18  C   UNL     1       6.838   5.104  15.346  0.00  0.00    +0.000 A 
ATOM     19  N   UNL     1       7.628   5.065  14.296  0.00  0.00    +0.000 NA
ATOM     20  C   UNL     1       6.926   4.368  13.346  0.00  0.00    +0.000 A 
ATOM     21  C   UNL     1       5.709   3.950  13.834  0.00  0.00    +0.000 A 
ATOM     22  N   UNL     1       5.652   4.411  15.124  0.00  0.00    +0.000 N 
ATOM     23  C   UNL     1       4.655   4.256  16.087  0.00  0.00    +0.000 A 
ENDBRANCH   2  15
TORSDOF 1
ENDMDL
MODEL 6
REMARK VINA RESULT:      -6.3      1.696      2.268
REMARK  Name = 
REMARK  1 active torsions:
REMARK  status: ('A' for Active; 'I' for Inactive)
REMARK    1  A    between atoms: C_2  and  C_3
REMARK                            x       y       z     vdW  Elec       q    Type
REMARK                         _______ _______ _______ _____ _____    ______ ____
ROOT
ATOM      1  O   UNL     1       4.078   2.937  17.804  0.00  0.00    +0.000 OA
ATOM      2  C   UNL     1       4.105   4.083  17.339  0.00  0.00    +0.000 C 
ATOM      3  N   UNL     1       3.312   5.102  17.848  0.00  0.00    +0.000 N 
ATOM      4  C   UNL     1       2.300   4.793  18.877  0.00  0.00    +0.000 C 
ATOM      5  C   UNL     1       2.382   5.753  20.088  0.00  0.00    +0.000 C 
ATOM      6  N   UNL     1       2.404   7.143  19.633  0.00  0.00    +0.000 N 
ATOM      7  C   UNL     1       1.536   8.116  20.059  0.00  0.00    +0.000 A 
ATOM      8  C   UNL     1       1.047   8.169  21.367  0.00  0.00    +0.000 A 
ATOM      9  N   UNL     1       0.204   9.125  21.838  0.00  0.00    +0.000 NA
ATOM     10  C   UNL     1      -0.154  10.056  20.932  0.00  0.00    +0.000 A 
ATOM     11  C   UNL     1       0.313  10.031  19.633  0.00  0.00    +0.000 A 
ATOM     12  N   UNL     1       1.163   9.079  19.181  0.00  0.00    +0.000 NA
ATOM     13  C   UNL     1       3.399   7.480  18.625  0.00  0.00    +0.000 C 
ATOM     14  C   UNL     1       3.320   6.519  17.441  0.00  0.00    +0.000 C 
ENDROOT
BRANCH   2  15
ATOM     15  C   UNL     1       5.075   4.391  16.233  0.00  0.00    +0.000 A 
ATOM     16  C   UNL     1       6.228   5.285  16.382  0.00  0.00    +0.000 A 
ATOM     17  C   UNL     1       7.178   5.385  15.436  0.00  0.00    +0.000 A 
ATOM     18  C   UNL     1       6.984   4.749  14.182  0.00  0.00    +0.000 A 
ATOM     19  N   UNL     1       7.713   4.755  13.088  0.00  0.00    +0.000 NA
ATOM     20  C   UNL     1       6.976   4.062  12.163  0.00  0.00    +0.000 A 
ATOM     21  C   UNL     1       5.800   3.601  12.709  0.00  0.00    +0.000 A 
ATOM     22  N   UNL     1       5.805   4.030  14.010  0.00  0.00    +0.000 N 
ATOM     23  C   UNL     1       4.869   3.827  15.024  0.00  0.00    +0.000 A 
ENDBRANCH   2  15
TORSDOF 1
ENDMDL
MODEL 7
REMARK VINA RESULT:      -6.3      3.163      5.664
REMARK  Name = 
REMARK  1 active torsions:
REMARK  status: ('A' for Active; 'I' for Inactive)
REMARK    1  A    between atoms: C_2  and  C_3
REMARK                            x       y       z     vdW  Elec       q    Type
REMARK                         _______ _______ _______ _____ _____    ______ ____
ROOT
ATOM      1  O   UNL     1       1.129  11.373  20.877  0.00  0.00    +0.000 OA
ATOM      2  C   UNL     1       0.483  10.602  20.156  0.00  0.00    +0.000 C 
ATOM      3  N   UNL     1      -0.877  10.765  19.936  0.00  0.00    +0.000 N 
ATOM      4  C   UNL     1      -1.617  11.797  20.688  0.00  0.00    +0.000 C 
ATOM      5  C   UNL     1      -2.486  12.687  19.766  0.00  0.00    +0.000 C 
ATOM      6  N   UNL     1      -3.300  11.856  18.880  0.00  0.00    +0.000 N 
ATOM      7  C   UNL     1      -4.664  11.950  18.759  0.00  0.00    +0.000 A 
ATOM      8  C   UNL     1      -5.345  13.167  18.845  0.00  0.00    +0.000 A 
ATOM      9  N   UNL     1      -6.689  13.311  18.710  0.00  0.00    +0.000 NA
ATOM     10  C   UNL     1      -7.359  12.163  18.485  0.00  0.00    +0.000 A 
ATOM     11  C   UNL     1      -6.714  10.945  18.394  0.00  0.00    +0.000 A 
ATOM     12  N   UNL     1      -5.372  10.820  18.518  0.00  0.00    +0.000 NA
ATOM     13  C   UNL     1      -2.596  10.836  18.117  0.00  0.00    +0.000 C 
ATOM     14  C   UNL     1      -1.731   9.972  19.033  0.00  0.00    +0.000 C 
ENDROOT
BRANCH   2  15
ATOM     15  C   UNL     1       1.213   9.495  19.448  0.00  0.00    +0.000 A 
ATOM     16  C   UNL     1       1.658   9.571  18.052  0.00  0.00    +0.000 A 
ATOM     17  C   UNL     1       2.473   8.647  17.514  0.00  0.00    +0.000 A 
ATOM     18  C   UNL     1       2.775   7.470  18.247  0.00  0.00    +0.000 A 
ATOM     19  N   UNL     1       3.472   6.404  17.922  0.00  0.00    +0.000 NA
ATOM     20  C   UNL     1       3.328   5.545  18.981  0.00  0.00    +0.000 A 
ATOM     21  C   UNL     1       2.562   6.108  19.977  0.00  0.00    +0.000 A 
ATOM     22  N   UNL     1       2.213   7.350  19.515  0.00  0.00    +0.000 N 
ATOM     23  C   UNL     1       1.462   8.354  20.125  0.00  0.00    +0.000 A 
ENDBRANCH   2  15
TORSDOF 1
ENDMDL
MODEL 8
REMARK VINA RESULT:      -6.2      3.488      9.623
REMARK  Name = 
REMARK  1 active torsions:
REMARK  status: ('A' for Active; 'I' for Inactive)
REMARK    1  A    between atoms: C_2  and  C_3
REMARK                            x       y       z     vdW  Elec       q    Type
REMARK                         _______ _______ _______ _____ _____    ______ ____
ROOT
ATOM      1  O   UNL     1      -0.511  12.234  18.613  0.00  0.00    +0.000 OA
ATOM      2  C   UNL     1      -0.625  11.517  19.616  0.00  0.00    +0.000 C 
ATOM      3  N   UNL     1      -0.110  10.229  19.660  0.00  0.00    +0.000 N 
ATOM      4  C   UNL     1       0.465   9.632  18.439  0.00  0.00    +0.000 C 
ATOM      5  C   UNL     1       1.860   9.010  18.690  0.00  0.00    +0.000 C 
ATOM      6  N   UNL     1       1.820   8.128  19.856  0.00  0.00    +0.000 N 
ATOM      7  C   UNL     1       2.224   6.817  19.856  0.00  0.00    +0.000 A 
ATOM      8  C   UNL     1       3.302   6.362  19.092  0.00  0.00    +0.000 A 
ATOM      9  N   UNL     1       3.750   5.079  19.077  0.00  0.00    +0.000 NA
ATOM     10  C   UNL     1       3.064   4.233  19.870  0.00  0.00    +0.000 A 
ATOM     11  C   UNL     1       1.995   4.653  20.637  0.00  0.00    +0.000 A 
ATOM     12  N   UNL     1       1.568   5.938  20.651  0.00  0.00    +0.000 NA
ATOM     13  C   UNL     1       1.267   8.693  21.078  0.00  0.00    +0.000 C 
ATOM     14  C   UNL     1      -0.103   9.317  20.818  0.00  0.00    +0.000 C 
ENDROOT
BRANCH   2  15
ATOM     15  C   UNL     1      -1.282  12.087  20.840  0.00  0.00    +0.000 A 
ATOM     16  C   UNL     1      -0.558  12.456  22.061  0.00  0.00    +0.000 A 
ATOM     17  C   UNL     1      -1.147  13.140  23.059  0.00  0.00    +0.000 A 
ATOM     18  C   UNL     1      -2.548  13.361  23.022  0.00  0.00    +0.000 A 
ATOM     19  N   UNL     1      -3.357  13.924  23.891  0.00  0.00    +0.000 NA
ATOM     20  C   UNL     1      -4.615  13.754  23.372  0.00  0.00    +0.000 A 
ATOM     21  C   UNL     1      -4.568  13.108  22.157  0.00  0.00    +0.000 A 
ATOM     22  N   UNL     1      -3.240  12.863  21.922  0.00  0.00    +0.000 N 
ATOM     23  C   UNL     1      -2.622  12.256  20.829  0.00  0.00    +0.000 A 
ENDBRANCH   2  15
TORSDOF 1
ENDMDL
MODEL 9
REMARK VINA RESULT:      -6.2      3.121      5.050
REMARK  Name = 
REMARK  1 active torsions:
REMARK  status: ('A' for Active; 'I' for Inactive)
REMARK    1  A    between atoms: C_2  and  C_3
REMARK                            x       y       z     vdW  Elec       q    Type
REMARK                         _______ _______ _______ _____ _____    ______ ____
ROOT
ATOM      1  O   UNL     1       1.682   9.425  22.553  0.00  0.00    +0.000 OA
ATOM      2  C   UNL     1       1.010   9.295  21.521  0.00  0.00    +0.000 C 
ATOM      3  N   UNL     1      -0.158  10.016  21.310  0.00  0.00    +0.000 N 
ATOM      4  C   UNL     1      -0.702  10.855  22.395  0.00  0.00    +0.000 C 
ATOM      5  C   UNL     1      -1.042  12.287  21.915  0.00  0.00    +0.000 C 
ATOM      6  N   UNL     1      -1.854  12.235  20.699  0.00  0.00    +0.000 N 
ATOM      7  C   UNL     1      -3.066  12.858  20.545  0.00  0.00    +0.000 A 
ATOM      8  C   UNL     1      -3.355  14.097  21.122  0.00  0.00    +0.000 A 
ATOM      9  N   UNL     1      -4.533  14.760  20.979  0.00  0.00    +0.000 NA
ATOM     10  C   UNL     1      -5.448  14.126  20.219  0.00  0.00    +0.000 A 
ATOM     11  C   UNL     1      -5.191  12.901  19.634  0.00  0.00    +0.000 A 
ATOM     12  N   UNL     1      -4.009  12.258  19.776  0.00  0.00    +0.000 NA
ATOM     13  C   UNL     1      -1.337  11.422  19.608  0.00  0.00    +0.000 C 
ATOM     14  C   UNL     1      -0.991  10.016  20.094  0.00  0.00    +0.000 C 
ENDROOT
BRANCH   2  15
ATOM     15  C   UNL     1       1.512   8.379  20.442  0.00  0.00    +0.000 A 
ATOM     16  C   UNL     1       1.827   8.817  19.078  0.00  0.00    +0.000 A 
ATOM     17  C   UNL     1       2.455   8.016  18.199  0.00  0.00    +0.000 A 
ATOM     18  C   UNL     1       2.666   6.651  18.527  0.00  0.00    +0.000 A 
ATOM     19  N   UNL     1       3.178   5.664  17.827  0.00  0.00    +0.000 NA
ATOM     20  C   UNL     1       3.024   4.550  18.612  0.00  0.00    +0.000 A 
ATOM     21  C   UNL     1       2.440   4.869  19.817  0.00  0.00    +0.000 A 
ATOM     22  N   UNL     1       2.218   6.221  19.772  0.00  0.00    +0.000 N 
ATOM     23  C   UNL     1       1.671   7.071  20.733  0.00  0.00    +0.000 A 
ENDBRANCH   2  15
TORSDOF 1
ENDMDL
