MODEL 1
REMARK VINA RESULT:      -7.0      0.000      0.000
REMARK  Name = 
REMARK  11 active torsions:
REMARK  status: ('A' for Active; 'I' for Inactive)
REMARK    1  A    between atoms: C_1  and  C_2
REMARK    2  A    between atoms: C_2  and  C_3
REMARK    3  A    between atoms: C_3  and  C_4
REMARK    4  A    between atoms: C_4  and  C_5
REMARK    5  A    between atoms: C_5  and  C_6
REMARK    6  A    between atoms: C_6  and  C_7
REMARK    7  A    between atoms: C_11  and  C_12
REMARK    8  A    between atoms: C_12  and  O_14
REMARK    9  A    between atoms: O_14  and  C_15
REMARK   10  A    between atoms: C_15  and  C_16
REMARK   11  A    between atoms: C_21  and  C_22
REMARK                            x       y       z     vdW  Elec       q    Type
REMARK                         _______ _______ _______ _____ _____    ______ ____
ROOT
ATOM      1  C   UNL     1       2.302   5.995  19.880  0.00  0.00    +0.000 A 
ATOM      2  S   UNL     1       3.110   6.895  18.664  0.00  0.00    +0.000 S 
ATOM      3  C   UNL     1       3.821   5.505  18.008  0.00  0.00    +0.000 A 
ATOM      4  N   UNL     1       4.624   5.594  16.919  0.00  0.00    +0.000 NA
ATOM      5  C   UNL     1       5.133   4.461  16.542  0.00  0.00    +0.000 A 
ATOM      6  N   UNL     1       4.876   3.249  17.148  0.00  0.00    +0.000 N 
ATOM      7  C   UNL     1       4.083   3.117  18.262  0.00  0.00    +0.000 A 
ATOM      8  O   UNL     1       3.904   2.025  18.789  0.00  0.00    +0.000 OA
ATOM      9  C   UNL     1       3.510   4.370  18.730  0.00  0.00    +0.000 A 
ATOM     10  C   UNL     1       2.660   4.651  19.861  0.00  0.00    +0.000 A 
ATOM     11  C   UNL     1       2.202   3.654  20.879  0.00  0.00    +0.000 C 
ATOM     12  H   UNL     1       5.329   2.413  16.796  0.00  0.00    +0.000 HD
ENDROOT
BRANCH   5  13
ATOM     13  C   UNL     1       6.139   4.392  15.401  0.00  0.00    +0.000 C 
ATOM     14  O   UNL     1       7.327   4.580  15.611  0.00  0.00    +0.000 OA
BRANCH  13  15
ATOM     15  O   UNL     1       5.507   4.265  14.222  0.00  0.00    +0.000 OA
BRANCH  15  16
ATOM     16  C   UNL     1       6.255   3.638  13.176  0.00  0.00    +0.000 C 
ATOM     17  C   UNL     1       5.288   3.259  12.068  0.00  0.00    +0.000 C 
ENDBRANCH  15  16
ENDBRANCH  13  15
ENDBRANCH   5  13
BRANCH   1  18
ATOM     18  C   UNL     1       1.358   6.714  20.807  0.00  0.00    +0.000 C 
BRANCH  18  19
ATOM     19  C   UNL     1       1.470   8.234  20.648  0.00  0.00    +0.000 C 
BRANCH  19  20
ATOM     20  C   UNL     1       1.223   8.970  21.962  0.00  0.00    +0.000 C 
BRANCH  20  21
ATOM     21  C   UNL     1      -0.261   8.915  22.327  0.00  0.00    +0.000 C 
BRANCH  21  23
ATOM     22  C   UNL     1      -0.495  11.412  22.197  0.00  0.00    +0.000 C 
ATOM     23  C   UNL     1      -0.708  10.178  23.058  0.00  0.00    +0.000 C 
ENDBRANCH  21  23
ENDBRANCH  20  21
ENDBRANCH  19  20
ENDBRANCH  18  19
ENDBRANCH   1  18
TORSDOF 8
ENDMDL
MODEL 2
REMARK VINA RESULT:      -6.8      2.974      8.160
REMARK  Name = 
REMARK  11 active torsions:
REMARK  status: ('A' for Active; 'I' for Inactive)
REMARK    1  A    between atoms: C_1  and  C_2
REMARK    2  A    between atoms: C_2  and  C_3
REMARK    3  A    between atoms: C_3  and  C_4
REMARK    4  A    between atoms: C_4  and  C_5
REMARK    5  A    between atoms: C_5  and  C_6
REMARK    6  A    between atoms: C_6  and  C_7
REMARK    7  A    between atoms: C_11  and  C_12
REMARK    8  A    between atoms: C_12  and  O_14
REMARK    9  A    between atoms: O_14  and  C_15
REMARK   10  A    between atoms: C_15  and  C_16
REMARK   11  A    between atoms: C_21  and  C_22
REMARK                            x       y       z     vdW  Elec       q    Type
REMARK                         _______ _______ _______ _____ _____    ______ ____
ROOT
ATOM      1  C   UNL     1       4.826   4.760  17.368  0.00  0.00    +0.000 A 
ATOM      2  S   UNL     1       4.383   6.362  16.950  0.00  0.00    +0.000 S 
ATOM      3  C   UNL     1       3.424   6.536  18.336  0.00  0.00    +0.000 A 
ATOM      4  N   UNL     1       2.778   7.701  18.581  0.00  0.00    +0.000 NA
ATOM      5  C   UNL     1       2.050   7.686  19.656  0.00  0.00    +0.000 A 
ATOM      6  N   UNL     1       1.945   6.612  20.515  0.00  0.00    +0.000 N 
ATOM      7  C   UNL     1       2.570   5.409  20.295  0.00  0.00    +0.000 A 
ATOM      8  O   UNL     1       2.427   4.468  21.067  0.00  0.00    +0.000 OA
ATOM      9  C   UNL     1       3.380   5.377  19.086  0.00  0.00    +0.000 A 
ATOM     10  C   UNL     1       4.158   4.311  18.503  0.00  0.00    +0.000 A 
ATOM     11  C   UNL     1       4.259   2.914  19.030  0.00  0.00    +0.000 C 
ATOM     12  H   UNL     1       1.341   6.683  21.326  0.00  0.00    +0.000 HD
ENDROOT
BRANCH   5  13
ATOM     13  C   UNL     1       1.174   8.875  20.028  0.00  0.00    +0.000 C 
ATOM     14  O   UNL     1       1.219   9.906  19.375  0.00  0.00    +0.000 OA
BRANCH  13  15
ATOM     15  O   UNL     1       0.537   8.647  21.189  0.00  0.00    +0.000 OA
BRANCH  15  16
ATOM     16  C   UNL     1       1.001   9.398  22.315  0.00  0.00    +0.000 C 
ATOM     17  C   UNL     1      -0.157   9.555  23.285  0.00  0.00    +0.000 C 
ENDBRANCH  15  16
ENDBRANCH  13  15
ENDBRANCH   5  13
BRANCH   1  18
ATOM     18  C   UNL     1       5.820   4.033  16.501  0.00  0.00    +0.000 C 
BRANCH  18  19
ATOM     19  C   UNL     1       6.816   5.004  15.860  0.00  0.00    +0.000 C 
BRANCH  19  20
ATOM     20  C   UNL     1       6.841   4.882  14.339  0.00  0.00    +0.000 C 
BRANCH  20  21
ATOM     21  C   UNL     1       5.913   3.755  13.885  0.00  0.00    +0.000 C 
BRANCH  21  23
ATOM     22  C   UNL     1       4.694   3.300  11.737  0.00  0.00    +0.000 C 
ATOM     23  C   UNL     1       6.054   3.476  12.391  0.00  0.00    +0.000 C 
ENDBRANCH  21  23
ENDBRANCH  20  21
ENDBRANCH  19  20
ENDBRANCH  18  19
ENDBRANCH   1  18
TORSDOF 8
ENDMDL
MODEL 3
REMARK VINA RESULT:      -6.8      3.547      7.452
REMARK  Name = 
REMARK  11 active torsions:
REMARK  status: ('A' for Active; 'I' for Inactive)
REMARK    1  A    between atoms: C_1  and  C_2
REMARK    2  A    between atoms: C_2  and  C_3
REMARK    3  A    between atoms: C_3  and  C_4
REMARK    4  A    between atoms: C_4  and  C_5
REMARK    5  A    between atoms: C_5  and  C_6
REMARK    6  A    between atoms: C_6  and  C_7
REMARK    7  A    between atoms: C_11  and  C_12
REMARK    8  A    between atoms: C_12  and  O_14
REMARK    9  A    between atoms: O_14  and  C_15
REMARK   10  A    between atoms: C_15  and  C_16
REMARK   11  A    between atoms: C_21  and  C_22
REMARK                            x       y       z     vdW  Elec       q    Type
REMARK                         _______ _______ _______ _____ _____    ______ ____
ROOT
ATOM      1  C   UNL     1       4.636   5.116  17.358  0.00  0.00    +0.000 A 
ATOM      2  S   UNL     1       4.126   6.712  16.996  0.00  0.00    +0.000 S 
ATOM      3  C   UNL     1       3.201   6.814  18.411  0.00  0.00    +0.000 A 
ATOM      4  N   UNL     1       2.522   7.949  18.706  0.00  0.00    +0.000 NA
ATOM      5  C   UNL     1       1.825   7.880  19.799  0.00  0.00    +0.000 A 
ATOM      6  N   UNL     1       1.781   6.780  20.630  0.00  0.00    +0.000 N 
ATOM      7  C   UNL     1       2.440   5.606  20.360  0.00  0.00    +0.000 A 
ATOM      8  O   UNL     1       2.352   4.640  21.109  0.00  0.00    +0.000 OA
ATOM      9  C   UNL     1       3.217   5.635  19.130  0.00  0.00    +0.000 A 
ATOM     10  C   UNL     1       4.015   4.614  18.497  0.00  0.00    +0.000 A 
ATOM     11  C   UNL     1       4.179   3.207  18.982  0.00  0.00    +0.000 C 
ATOM     12  H   UNL     1       1.197   6.808  21.458  0.00  0.00    +0.000 HD
ENDROOT
BRANCH   5  13
ATOM     13  C   UNL     1       0.918   9.027  20.227  0.00  0.00    +0.000 C 
ATOM     14  O   UNL     1       0.254   9.632  19.400  0.00  0.00    +0.000 OA
BRANCH  13  15
ATOM     15  O   UNL     1       1.105   9.316  21.526  0.00  0.00    +0.000 OA
BRANCH  15  16
ATOM     16  C   UNL     1       0.279  10.355  22.060  0.00  0.00    +0.000 C 
ATOM     17  C   UNL     1      -0.689   9.725  23.046  0.00  0.00    +0.000 C 
ENDBRANCH  15  16
ENDBRANCH  13  15
ENDBRANCH   5  13
BRANCH   1  18
ATOM     18  C   UNL     1       5.630   4.448  16.445  0.00  0.00    +0.000 C 
BRANCH  18  19
ATOM     19  C   UNL     1       7.044   4.997  16.663  0.00  0.00    +0.000 C 
BRANCH  19  20
ATOM     20  C   UNL     1       7.440   4.996  18.137  0.00  0.00    +0.000 C 
BRANCH  20  21
ATOM     21  C   UNL     1       7.849   6.403  18.574  0.00  0.00    +0.000 C 
BRANCH  21  23
ATOM     22  C   UNL     1       8.118   8.802  17.881  0.00  0.00    +0.000 C 
ATOM     23  C   UNL     1       7.636   7.423  17.459  0.00  0.00    +0.000 C 
ENDBRANCH  21  23
ENDBRANCH  20  21
ENDBRANCH  19  20
ENDBRANCH  18  19
ENDBRANCH   1  18
TORSDOF 8
ENDMDL
MODEL 4
REMARK VINA RESULT:      -6.7      2.771      4.466
REMARK  Name = 
REMARK  11 active torsions:
REMARK  status: ('A' for Active; 'I' for Inactive)
REMARK    1  A    between atoms: C_1  and  C_2
REMARK    2  A    between atoms: C_2  and  C_3
REMARK    3  A    between atoms: C_3  and  C_4
REMARK    4  A    between atoms: C_4  and  C_5
REMARK    5  A    between atoms: C_5  and  C_6
REMARK    6  A    between atoms: C_6  and  C_7
REMARK    7  A    between atoms: C_11  and  C_12
REMARK    8  A    between atoms: C_12  and  O_14
REMARK    9  A    between atoms: O_14  and  C_15
REMARK   10  A    between atoms: C_15  and  C_16
REMARK   11  A    between atoms: C_21  and  C_22
REMARK                            x       y       z     vdW  Elec       q    Type
REMARK                         _______ _______ _______ _____ _____    ______ ____
ROOT
ATOM      1  C   UNL     1       3.520   4.722  20.009  0.00  0.00    +0.000 A 
ATOM      2  S   UNL     1       4.639   3.606  19.343  0.00  0.00    +0.000 S 
ATOM      3  C   UNL     1       5.017   4.644  18.058  0.00  0.00    +0.000 A 
ATOM      4  N   UNL     1       5.937   4.280  17.131  0.00  0.00    +0.000 NA
ATOM      5  C   UNL     1       6.104   5.150  16.182  0.00  0.00    +0.000 A 
ATOM      6  N   UNL     1       5.448   6.361  16.107  0.00  0.00    +0.000 N 
ATOM      7  C   UNL     1       4.498   6.760  17.015  0.00  0.00    +0.000 A 
ATOM      8  O   UNL     1       3.915   7.832  16.896  0.00  0.00    +0.000 OA
ATOM      9  C   UNL     1       4.265   5.801  18.085  0.00  0.00    +0.000 A 
ATOM     10  C   UNL     1       3.347   5.838  19.197  0.00  0.00    +0.000 A 
ATOM     11  C   UNL     1       2.346   6.917  19.468  0.00  0.00    +0.000 C 
ATOM     12  H   UNL     1       5.629   6.975  15.321  0.00  0.00    +0.000 HD
ENDROOT
BRANCH   5  13
ATOM     13  C   UNL     1       7.022   4.859  15.002  0.00  0.00    +0.000 C 
ATOM     14  O   UNL     1       7.874   5.666  14.667  0.00  0.00    +0.000 OA
BRANCH  13  15
ATOM     15  O   UNL     1       6.637   3.736  14.371  0.00  0.00    +0.000 OA
BRANCH  15  16
ATOM     16  C   UNL     1       5.549   3.879  13.451  0.00  0.00    +0.000 C 
ATOM     17  C   UNL     1       5.977   3.284  12.122  0.00  0.00    +0.000 C 
ENDBRANCH  15  16
ENDBRANCH  13  15
ENDBRANCH   5  13
BRANCH   1  18
ATOM     18  C   UNL     1       2.859   4.390  21.321  0.00  0.00    +0.000 C 
BRANCH  18  19
ATOM     19  C   UNL     1       2.057   3.087  21.226  0.00  0.00    +0.000 C 
BRANCH  19  20
ATOM     20  C   UNL     1       0.686   3.301  20.592  0.00  0.00    +0.000 C 
BRANCH  20  21
ATOM     21  C   UNL     1       0.758   3.056  19.084  0.00  0.00    +0.000 C 
BRANCH  21  23
ATOM     22  C   UNL     1       2.438   2.049  17.513  0.00  0.00    +0.000 C 
ATOM     23  C   UNL     1       1.591   1.821  18.754  0.00  0.00    +0.000 C 
ENDBRANCH  21  23
ENDBRANCH  20  21
ENDBRANCH  19  20
ENDBRANCH  18  19
ENDBRANCH   1  18
TORSDOF 8
ENDMDL
MODEL 5
REMARK VINA RESULT:      -6.7      3.897      8.009
REMARK  Name = 
REMARK  11 active torsions:
REMARK  status: ('A' for Active; 'I' for Inactive)
REMARK    1  A    between atoms: C_1  and  C_2
REMARK    2  A    between atoms: C_2  and  C_3
REMARK    3  A    between atoms: C_3  and  C_4
REMARK    4  A    between atoms: C_4  and  C_5
REMARK    5  A    between atoms: C_5  and  C_6
REMARK    6  A    between atoms: C_6  and  C_7
REMARK    7  A    between atoms: C_11  and  C_12
REMARK    8  A    between atoms: C_12  and  O_14
REMARK    9  A    between atoms: O_14  and  C_15
REMARK   10  A    between atoms: C_15  and  C_16
REMARK   11  A    between atoms: C_21  and  C_22
REMARK                            x       y       z     vdW  Elec       q    Type
REMARK                         _______ _______ _______ _____ _____    ______ ____
ROOT
ATOM      1  C   UNL     1       5.888   4.647  16.112  0.00  0.00    +0.000 A 
ATOM      2  S   UNL     1       5.254   3.085  16.427  0.00  0.00    +0.000 S 
ATOM      3  C   UNL     1       3.882   3.718  17.192  0.00  0.00    +0.000 A 
ATOM      4  N   UNL     1       2.925   2.890  17.677  0.00  0.00    +0.000 NA
ATOM      5  C   UNL     1       1.947   3.503  18.271  0.00  0.00    +0.000 A 
ATOM      6  N   UNL     1       1.839   4.873  18.389  0.00  0.00    +0.000 N 
ATOM      7  C   UNL     1       2.794   5.745  17.927  0.00  0.00    +0.000 A 
ATOM      8  O   UNL     1       2.675   6.956  18.078  0.00  0.00    +0.000 OA
ATOM      9  C   UNL     1       3.919   5.095  17.272  0.00  0.00    +0.000 A 
ATOM     10  C   UNL     1       5.115   5.651  16.687  0.00  0.00    +0.000 A 
ATOM     11  C   UNL     1       5.491   7.099  16.675  0.00  0.00    +0.000 C 
ATOM     12  H   UNL     1       1.047   5.267  18.883  0.00  0.00    +0.000 HD
ENDROOT
BRANCH   5  13
ATOM     13  C   UNL     1       0.837   2.724  18.966  0.00  0.00    +0.000 C 
ATOM     14  O   UNL     1       0.115   1.974  18.328  0.00  0.00    +0.000 OA
BRANCH  13  15
ATOM     15  O   UNL     1       0.718   3.113  20.246  0.00  0.00    +0.000 OA
BRANCH  15  16
ATOM     16  C   UNL     1       1.694   2.590  21.153  0.00  0.00    +0.000 C 
ATOM     17  C   UNL     1       2.370   3.761  21.844  0.00  0.00    +0.000 C 
ENDBRANCH  15  16
ENDBRANCH  13  15
ENDBRANCH   5  13
BRANCH   1  18
ATOM     18  C   UNL     1       7.157   4.766  15.310  0.00  0.00    +0.000 C 
BRANCH  18  19
ATOM     19  C   UNL     1       6.859   4.992  13.824  0.00  0.00    +0.000 C 
BRANCH  19  20
ATOM     20  C   UNL     1       6.422   3.708  13.124  0.00  0.00    +0.000 C 
BRANCH  20  21
ATOM     21  C   UNL     1       4.970   3.829  12.659  0.00  0.00    +0.000 C 
BRANCH  21  23
ATOM     22  C   UNL     1       3.408   3.376  10.745  0.00  0.00    +0.000 C 
ATOM     23  C   UNL     1       4.697   2.960  11.433  0.00  0.00    +0.000 C 
ENDBRANCH  21  23
ENDBRANCH  20  21
ENDBRANCH  19  20
ENDBRANCH  18  19
ENDBRANCH   1  18
TORSDOF 8
ENDMDL
MODEL 6
REMARK VINA RESULT:      -6.7      1.828      2.014
REMARK  Name = 
REMARK  11 active torsions:
REMARK  status: ('A' for Active; 'I' for Inactive)
REMARK    1  A    between atoms: C_1  and  C_2
REMARK    2  A    between atoms: C_2  and  C_3
REMARK    3  A    between atoms: C_3  and  C_4
REMARK    4  A    between atoms: C_4  and  C_5
REMARK    5  A    between atoms: C_5  and  C_6
REMARK    6  A    between atoms: C_6  and  C_7
REMARK    7  A    between atoms: C_11  and  C_12
REMARK    8  A    between atoms: C_12  and  O_14
REMARK    9  A    between atoms: O_14  and  C_15
REMARK   10  A    between atoms: C_15  and  C_16
REMARK   11  A    between atoms: C_21  and  C_22
REMARK                            x       y       z     vdW  Elec       q    Type
REMARK                         _______ _______ _______ _____ _____    ______ ____
ROOT
ATOM      1  C   UNL     1       2.490   6.955  19.400  0.00  0.00    +0.000 A 
ATOM      2  S   UNL     1       3.279   7.573  18.009  0.00  0.00    +0.000 S 
ATOM      3  C   UNL     1       3.964   6.067  17.642  0.00  0.00    +0.000 A 
ATOM      4  N   UNL     1       4.744   5.919  16.544  0.00  0.00    +0.000 NA
ATOM      5  C   UNL     1       5.234   4.725  16.400  0.00  0.00    +0.000 A 
ATOM      6  N   UNL     1       4.980   3.668  17.249  0.00  0.00    +0.000 N 
ATOM      7  C   UNL     1       4.209   3.781  18.381  0.00  0.00    +0.000 A 
ATOM      8  O   UNL     1       4.032   2.824  19.127  0.00  0.00    +0.000 OA
ATOM      9  C   UNL     1       3.658   5.111  18.590  0.00  0.00    +0.000 A 
ATOM     10  C   UNL     1       2.835   5.632  19.653  0.00  0.00    +0.000 A 
ATOM     11  C   UNL     1       2.390   4.874  20.865  0.00  0.00    +0.000 C 
ATOM     12  H   UNL     1       5.417   2.772  17.070  0.00  0.00    +0.000 HD
ENDROOT
BRANCH   5  13
ATOM     13  C   UNL     1       6.215   4.408  15.280  0.00  0.00    +0.000 C 
ATOM     14  O   UNL     1       7.413   4.582  15.438  0.00  0.00    +0.000 OA
BRANCH  13  15
ATOM     15  O   UNL     1       5.556   4.094  14.151  0.00  0.00    +0.000 OA
BRANCH  15  16
ATOM     16  C   UNL     1       6.370   3.726  13.033  0.00  0.00    +0.000 C 
ATOM     17  C   UNL     1       5.463   3.154  11.958  0.00  0.00    +0.000 C 
ENDBRANCH  15  16
ENDBRANCH  13  15
ENDBRANCH   5  13
BRANCH   1  18
ATOM     18  C   UNL     1       1.573   7.864  20.176  0.00  0.00    +0.000 C 
BRANCH  18  19
ATOM     19  C   UNL     1       1.192   9.103  19.358  0.00  0.00    +0.000 C 
BRANCH  19  20
ATOM     20  C   UNL     1       0.033   9.872  19.985  0.00  0.00    +0.000 C 
BRANCH  20  21
ATOM     21  C   UNL     1      -0.560  10.851  18.972  0.00  0.00    +0.000 C 
BRANCH  21  23
ATOM     22  C   UNL     1      -2.239  11.098  17.121  0.00  0.00    +0.000 C 
ATOM     23  C   UNL     1      -1.358  10.128  17.890  0.00  0.00    +0.000 C 
ENDBRANCH  21  23
ENDBRANCH  20  21
ENDBRANCH  19  20
ENDBRANCH  18  19
ENDBRANCH   1  18
TORSDOF 8
ENDMDL
MODEL 7
REMARK VINA RESULT:      -6.6      3.444      7.330
REMARK  Name = 
REMARK  11 active torsions:
REMARK  status: ('A' for Active; 'I' for Inactive)
REMARK    1  A    between atoms: C_1  and  C_2
REMARK    2  A    between atoms: C_2  and  C_3
REMARK    3  A    between atoms: C_3  and  C_4
REMARK    4  A    between atoms: C_4  and  C_5
REMARK    5  A    between atoms: C_5  and  C_6
REMARK    6  A    between atoms: C_6  and  C_7
REMARK    7  A    between atoms: C_11  and  C_12
REMARK    8  A    between atoms: C_12  and  O_14
REMARK    9  A    between atoms: O_14  and  C_15
REMARK   10  A    between atoms: C_15  and  C_16
REMARK   11  A    between atoms: C_21  and  C_22
REMARK                            x       y       z     vdW  Elec       q    Type
REMARK                         _______ _______ _______ _____ _____    ______ ____
ROOT
ATOM      1  C   UNL     1       3.892   4.941  17.510  0.00  0.00    +0.000 A 
ATOM      2  S   UNL     1       3.658   6.638  17.458  0.00  0.00    +0.000 S 
ATOM      3  C   UNL     1       2.822   6.640  18.931  0.00  0.00    +0.000 A 
ATOM      4  N   UNL     1       2.365   7.801  19.459  0.00  0.00    +0.000 NA
ATOM      5  C   UNL     1       1.711   7.656  20.571  0.00  0.00    +0.000 A 
ATOM      6  N   UNL     1       1.508   6.449  21.207  0.00  0.00    +0.000 N 
ATOM      7  C   UNL     1       1.939   5.249  20.698  0.00  0.00    +0.000 A 
ATOM      8  O   UNL     1       1.711   4.193  21.278  0.00  0.00    +0.000 OA
ATOM      9  C   UNL     1       2.659   5.366  19.439  0.00  0.00    +0.000 A 
ATOM     10  C   UNL     1       3.239   4.355  18.589  0.00  0.00    +0.000 A 
ATOM     11  C   UNL     1       3.172   2.877  18.818  0.00  0.00    +0.000 C 
ATOM     12  H   UNL     1       0.972   6.426  22.066  0.00  0.00    +0.000 HD
ENDROOT
BRANCH   5  13
ATOM     13  C   UNL     1       1.038   8.844  21.248  0.00  0.00    +0.000 C 
ATOM     14  O   UNL     1       1.529   9.347  22.245  0.00  0.00    +0.000 OA
BRANCH  13  15
ATOM     15  O   UNL     1      -0.159   9.089  20.688  0.00  0.00    +0.000 OA
BRANCH  15  16
ATOM     16  C   UNL     1      -0.364  10.422  20.211  0.00  0.00    +0.000 C 
ATOM     17  C   UNL     1      -0.853  10.339  18.776  0.00  0.00    +0.000 C 
ENDBRANCH  15  16
ENDBRANCH  13  15
ENDBRANCH   5  13
BRANCH   1  18
ATOM     18  C   UNL     1       4.716   4.290  16.430  0.00  0.00    +0.000 C 
BRANCH  18  19
ATOM     19  C   UNL     1       5.479   5.332  15.606  0.00  0.00    +0.000 C 
BRANCH  19  20
ATOM     20  C   UNL     1       6.985   5.262  15.841  0.00  0.00    +0.000 C 
BRANCH  20  21
ATOM     21  C   UNL     1       7.276   4.695  17.231  0.00  0.00    +0.000 C 
BRANCH  21  23
ATOM     22  C   UNL     1       7.605   7.157  17.599  0.00  0.00    +0.000 C 
ATOM     23  C   UNL     1       7.442   5.803  18.268  0.00  0.00    +0.000 C 
ENDBRANCH  21  23
ENDBRANCH  20  21
ENDBRANCH  19  20
ENDBRANCH  18  19
ENDBRANCH   1  18
TORSDOF 8
ENDMDL
MODEL 8
REMARK VINA RESULT:      -6.6      1.082      1.195
REMARK  Name = 
REMARK  11 active torsions:
REMARK  status: ('A' for Active; 'I' for Inactive)
REMARK    1  A    between atoms: C_1  and  C_2
REMARK    2  A    between atoms: C_2  and  C_3
REMARK    3  A    between atoms: C_3  and  C_4
REMARK    4  A    between atoms: C_4  and  C_5
REMARK    5  A    between atoms: C_5  and  C_6
REMARK    6  A    between atoms: C_6  and  C_7
REMARK    7  A    between atoms: C_11  and  C_12
REMARK    8  A    between atoms: C_12  and  O_14
REMARK    9  A    between atoms: O_14  and  C_15
REMARK   10  A    between atoms: C_15  and  C_16
REMARK   11  A    between atoms: C_21  and  C_22
REMARK                            x       y       z     vdW  Elec       q    Type
REMARK                         _______ _______ _______ _____ _____    ______ ____
ROOT
ATOM      1  C   UNL     1       2.754   6.793  18.997  0.00  0.00    +0.000 A 
ATOM      2  S   UNL     1       3.576   7.520  17.679  0.00  0.00    +0.000 S 
ATOM      3  C   UNL     1       4.262   6.047  17.202  0.00  0.00    +0.000 A 
ATOM      4  N   UNL     1       5.066   5.985  16.112  0.00  0.00    +0.000 NA
ATOM      5  C   UNL     1       5.554   4.805  15.880  0.00  0.00    +0.000 A 
ATOM      6  N   UNL     1       5.277   3.683  16.632  0.00  0.00    +0.000 N 
ATOM      7  C   UNL     1       4.482   3.705  17.753  0.00  0.00    +0.000 A 
ATOM      8  O   UNL     1       4.285   2.690  18.412  0.00  0.00    +0.000 OA
ATOM      9  C   UNL     1       3.932   5.016  18.060  0.00  0.00    +0.000 A 
ATOM     10  C   UNL     1       3.088   5.451  19.146  0.00  0.00    +0.000 A 
ATOM     11  C   UNL     1       2.614   4.597  20.280  0.00  0.00    +0.000 C 
ATOM     12  H   UNL     1       5.714   2.802  16.388  0.00  0.00    +0.000 HD
ENDROOT
BRANCH   5  13
ATOM     13  C   UNL     1       6.558   4.577  14.758  0.00  0.00    +0.000 C 
ATOM     14  O   UNL     1       7.448   5.386  14.549  0.00  0.00    +0.000 OA
BRANCH  13  15
ATOM     15  O   UNL     1       6.205   3.511  14.019  0.00  0.00    +0.000 OA
BRANCH  15  16
ATOM     16  C   UNL     1       6.345   3.658  12.603  0.00  0.00    +0.000 C 
ATOM     17  C   UNL     1       5.039   3.236  11.954  0.00  0.00    +0.000 C 
ENDBRANCH  15  16
ENDBRANCH  13  15
ENDBRANCH   5  13
BRANCH   1  18
ATOM     18  C   UNL     1       1.824   7.639  19.826  0.00  0.00    +0.000 C 
BRANCH  18  19
ATOM     19  C   UNL     1       1.499   8.962  19.125  0.00  0.00    +0.000 C 
BRANCH  19  20
ATOM     20  C   UNL     1       0.249   9.625  19.698  0.00  0.00    +0.000 C 
BRANCH  20  21
ATOM     21  C   UNL     1      -0.076   9.038  21.073  0.00  0.00    +0.000 C 
BRANCH  21  23
ATOM     22  C   UNL     1      -0.644  10.938  22.613  0.00  0.00    +0.000 C 
ATOM     23  C   UNL     1       0.422   9.938  22.201  0.00  0.00    +0.000 C 
ENDBRANCH  21  23
ENDBRANCH  20  21
ENDBRANCH  19  20
ENDBRANCH  18  19
ENDBRANCH   1  18
TORSDOF 8
ENDMDL
MODEL 9
REMARK VINA RESULT:      -6.6      1.221      1.657
REMARK  Name = 
REMARK  11 active torsions:
REMARK  status: ('A' for Active; 'I' for Inactive)
REMARK    1  A    between atoms: C_1  and  C_2
REMARK    2  A    between atoms: C_2  and  C_3
REMARK    3  A    between atoms: C_3  and  C_4
REMARK    4  A    between atoms: C_4  and  C_5
REMARK    5  A    between atoms: C_5  and  C_6
REMARK    6  A    between atoms: C_6  and  C_7
REMARK    7  A    between atoms: C_11  and  C_12
REMARK    8  A    between atoms: C_12  and  O_14
REMARK    9  A    between atoms: O_14  and  C_15
REMARK   10  A    between atoms: C_15  and  C_16
REMARK   11  A    between atoms: C_21  and  C_22
REMARK                            x       y       z     vdW  Elec       q    Type
REMARK                         _______ _______ _______ _____ _____    ______ ____
ROOT
ATOM      1  C   UNL     1       2.115   5.800  19.827  0.00  0.00    +0.000 A 
ATOM      2  S   UNL     1       3.300   6.828  19.135  0.00  0.00    +0.000 S 
ATOM      3  C   UNL     1       4.028   5.545  18.301  0.00  0.00    +0.000 A 
ATOM      4  N   UNL     1       5.098   5.768  17.500  0.00  0.00    +0.000 NA
ATOM      5  C   UNL     1       5.580   4.695  16.950  0.00  0.00    +0.000 A 
ATOM      6  N   UNL     1       5.058   3.429  17.116  0.00  0.00    +0.000 N 
ATOM      7  C   UNL     1       3.986   3.158  17.932  0.00  0.00    +0.000 A 
ATOM      8  O   UNL     1       3.571   2.014  18.076  0.00  0.00    +0.000 OA
ATOM      9  C   UNL     1       3.429   4.334  18.584  0.00  0.00    +0.000 A 
ATOM     10  C   UNL     1       2.337   4.462  19.517  0.00  0.00    +0.000 A 
ATOM     11  C   UNL     1       1.531   3.334  20.081  0.00  0.00    +0.000 C 
ATOM     12  H   UNL     1       5.507   2.644  16.660  0.00  0.00    +0.000 HD
ENDROOT
BRANCH   5  13
ATOM     13  C   UNL     1       6.845   4.746  16.103  0.00  0.00    +0.000 C 
ATOM     14  O   UNL     1       7.906   4.341  16.550  0.00  0.00    +0.000 OA
BRANCH  13  15
ATOM     15  O   UNL     1       6.617   5.410  14.956  0.00  0.00    +0.000 OA
BRANCH  15  16
ATOM     16  C   UNL     1       7.095   4.780  13.764  0.00  0.00    +0.000 C 
ATOM     17  C   UNL     1       6.067   3.750  13.331  0.00  0.00    +0.000 C 
ENDBRANCH  15  16
ENDBRANCH  13  15
ENDBRANCH   5  13
BRANCH   1  18
ATOM     18  C   UNL     1       1.029   6.412  20.672  0.00  0.00    +0.000 C 
BRANCH  18  19
ATOM     19  C   UNL     1       1.408   7.825  21.130  0.00  0.00    +0.000 C 
BRANCH  19  20
ATOM     20  C   UNL     1       0.193   8.741  21.235  0.00  0.00    +0.000 C 
BRANCH  20  21
ATOM     21  C   UNL     1       0.455  10.054  20.496  0.00  0.00    +0.000 C 
BRANCH  21  23
ATOM     22  C   UNL     1       1.302   9.891  18.137  0.00  0.00    +0.000 C 
ATOM     23  C   UNL     1       0.069   9.957  19.022  0.00  0.00    +0.000 C 
ENDBRANCH  21  23
ENDBRANCH  20  21
ENDBRANCH  19  20
ENDBRANCH  18  19
ENDBRANCH   1  18
TORSDOF 8
ENDMDL
