MODEL 1
REMARK VINA RESULT:      -8.2      0.000      0.000
REMARK  Name = 
REMARK  7 active torsions:
REMARK  status: ('A' for Active; 'I' for Inactive)
REMARK    1  A    between atoms: C_1  and  O_2
REMARK    2  A    between atoms: O_2  and  C_3
REMARK    3  A    between atoms: C_6  and  C_7
REMARK    4  A    between atoms: C_11  and  C_13
REMARK    5  A    between atoms: C_13  and  C_14
REMARK    6  A    between atoms: C_14  and  C_15
REMARK    7  A    between atoms: C_25  and  C_26
REMARK                            x       y       z     vdW  Elec       q    Type
REMARK                         _______ _______ _______ _____ _____    ______ ____
ROOT
ATOM      1  C   UNL     1       3.845   4.852  19.071  0.00  0.00    +0.000 A 
ATOM      2  N   UNL     1       3.031   5.915  19.411  0.00  0.00    +0.000 NA
ATOM      3  C   UNL     1       2.169   5.546  20.313  0.00  0.00    +0.000 A 
ATOM      4  N   UNL     1       1.194   6.290  20.913  0.00  0.00    +0.000 N 
ATOM      5  C   UNL     1       1.181   7.667  20.836  0.00  0.00    +0.000 C 
ATOM      6  O   UNL     1       1.942   8.383  20.196  0.00  0.00    +0.000 OA
ATOM      7  S   UNL     1       2.272   3.931  20.839  0.00  0.00    +0.000 S 
ATOM      8  C   UNL     1       3.638   3.694  19.808  0.00  0.00    +0.000 A 
ATOM      9  C   UNL     1       4.372   2.396  19.831  0.00  0.00    +0.000 C 
ATOM     10  H   UNL     1       0.570   5.785  21.522  0.00  0.00    +0.000 HD
ENDROOT
BRANCH   1  14
ATOM     11  C   UNL     1       6.760   5.248  15.975  0.00  0.00    +0.000 A 
ATOM     12  C   UNL     1       5.619   4.468  15.791  0.00  0.00    +0.000 A 
ATOM     13  C   UNL     1       4.655   4.382  16.796  0.00  0.00    +0.000 A 
ATOM     14  C   UNL     1       4.825   5.055  18.011  0.00  0.00    +0.000 A 
ATOM     15  C   UNL     1       5.992   5.803  18.205  0.00  0.00    +0.000 A 
ATOM     16  C   UNL     1       6.948   5.906  17.190  0.00  0.00    +0.000 A 
BRANCH  11  18
ATOM     17  C   UNL     1       7.120   4.818  13.687  0.00  0.00    +0.000 C 
ATOM     18  O   UNL     1       7.646   5.245  14.935  0.00  0.00    +0.000 OA
ENDBRANCH  11  18
ENDBRANCH   1  14
BRANCH   5  19
ATOM     19  C   UNL     1       0.102   8.296  21.705  0.00  0.00    +0.000 C 
BRANCH  19  20
ATOM     20  C   UNL     1       0.598   9.637  22.233  0.00  0.00    +0.000 C 
BRANCH  20  21
ATOM     21  C   UNL     1      -0.294  10.842  22.102  0.00  0.00    +0.000 A 
ATOM     22  C   UNL     1      -0.277  11.741  21.007  0.00  0.00    +0.000 A 
ATOM     23  C   UNL     1      -1.286  12.705  20.865  0.00  0.00    +0.000 A 
ATOM     24  C   UNL     1      -2.296  12.715  21.801  0.00  0.00    +0.000 A 
ATOM     25  C   UNL     1      -2.268  11.896  22.904  0.00  0.00    +0.000 A 
ATOM     26  C   UNL     1      -1.261  10.991  23.106  0.00  0.00    +0.000 A 
ATOM     27  O   UNL     1      -3.388  12.008  23.668  0.00  0.00    +0.000 OA
ATOM     28  C   UNL     1      -4.222  12.728  22.741  0.00  0.00    +0.000 C 
ATOM     29  O   UNL     1      -3.455  13.429  21.738  0.00  0.00    +0.000 OA
ENDBRANCH  20  21
ENDBRANCH  19  20
ENDBRANCH   5  19
TORSDOF 5
ENDMDL
MODEL 2
REMARK VINA RESULT:      -8.2      2.560      3.254
REMARK  Name = 
REMARK  7 active torsions:
REMARK  status: ('A' for Active; 'I' for Inactive)
REMARK    1  A    between atoms: C_1  and  O_2
REMARK    2  A    between atoms: O_2  and  C_3
REMARK    3  A    between atoms: C_6  and  C_7
REMARK    4  A    between atoms: C_11  and  C_13
REMARK    5  A    between atoms: C_13  and  C_14
REMARK    6  A    between atoms: C_14  and  C_15
REMARK    7  A    between atoms: C_25  and  C_26
REMARK                            x       y       z     vdW  Elec       q    Type
REMARK                         _______ _______ _______ _____ _____    ______ ____
ROOT
ATOM      1  C   UNL     1       3.879   5.095  18.850  0.00  0.00    +0.000 A 
ATOM      2  N   UNL     1       3.142   6.255  18.984  0.00  0.00    +0.000 NA
ATOM      3  C   UNL     1       2.266   6.120  19.937  0.00  0.00    +0.000 A 
ATOM      4  N   UNL     1       1.349   7.028  20.386  0.00  0.00    +0.000 N 
ATOM      5  C   UNL     1       1.428   8.364  20.052  0.00  0.00    +0.000 C 
ATOM      6  O   UNL     1       2.228   8.894  19.291  0.00  0.00    +0.000 OA
ATOM      7  S   UNL     1       2.267   4.629  20.757  0.00  0.00    +0.000 S 
ATOM      8  C   UNL     1       3.604   4.112  19.791  0.00  0.00    +0.000 A 
ATOM      9  C   UNL     1       4.249   2.795  20.058  0.00  0.00    +0.000 C 
ATOM     10  H   UNL     1       0.699   6.688  21.077  0.00  0.00    +0.000 HD
ENDROOT
BRANCH   1  14
ATOM     11  C   UNL     1       6.708   5.102  15.651  0.00  0.00    +0.000 A 
ATOM     12  C   UNL     1       6.871   5.937  16.756  0.00  0.00    +0.000 A 
ATOM     13  C   UNL     1       5.962   5.893  17.812  0.00  0.00    +0.000 A 
ATOM     14  C   UNL     1       4.860   5.030  17.774  0.00  0.00    +0.000 A 
ATOM     15  C   UNL     1       4.679   4.224  16.644  0.00  0.00    +0.000 A 
ATOM     16  C   UNL     1       5.603   4.253  15.595  0.00  0.00    +0.000 A 
BRANCH  11  18
ATOM     17  C   UNL     1       7.239   4.813  13.374  0.00  0.00    +0.000 C 
ATOM     18  O   UNL     1       7.645   5.241  14.667  0.00  0.00    +0.000 OA
ENDBRANCH  11  18
ENDBRANCH   1  14
BRANCH   5  19
ATOM     19  C   UNL     1       0.402   9.215  20.786  0.00  0.00    +0.000 C 
BRANCH  19  20
ATOM     20  C   UNL     1       0.189  10.517  20.022  0.00  0.00    +0.000 C 
BRANCH  20  21
ATOM     21  C   UNL     1      -1.098  10.712  19.267  0.00  0.00    +0.000 A 
ATOM     22  C   UNL     1      -2.113  11.632  19.630  0.00  0.00    +0.000 A 
ATOM     23  C   UNL     1      -3.173  11.901  18.752  0.00  0.00    +0.000 A 
ATOM     24  C   UNL     1      -3.165  11.269  17.528  0.00  0.00    +0.000 A 
ATOM     25  C   UNL     1      -2.225  10.319  17.211  0.00  0.00    +0.000 A 
ATOM     26  C   UNL     1      -1.216   9.985  18.074  0.00  0.00    +0.000 A 
ATOM     27  O   UNL     1      -2.347   9.867  15.933  0.00  0.00    +0.000 OA
ATOM     28  C   UNL     1      -3.241  10.873  15.423  0.00  0.00    +0.000 C 
ATOM     29  O   UNL     1      -3.982  11.536  16.471  0.00  0.00    +0.000 OA
ENDBRANCH  20  21
ENDBRANCH  19  20
ENDBRANCH   5  19
TORSDOF 5
ENDMDL
MODEL 3
REMARK VINA RESULT:      -8.1      0.519      1.006
REMARK  Name = 
REMARK  7 active torsions:
REMARK  status: ('A' for Active; 'I' for Inactive)
REMARK    1  A    between atoms: C_1  and  O_2
REMARK    2  A    between atoms: O_2  and  C_3
REMARK    3  A    between atoms: C_6  and  C_7
REMARK    4  A    between atoms: C_11  and  C_13
REMARK    5  A    between atoms: C_13  and  C_14
REMARK    6  A    between atoms: C_14  and  C_15
REMARK    7  A    between atoms: C_25  and  C_26
REMARK                            x       y       z     vdW  Elec       q    Type
REMARK                         _______ _______ _______ _____ _____    ______ ____
ROOT
ATOM      1  C   UNL     1       3.966   4.387  19.048  0.00  0.00    +0.000 A 
ATOM      2  N   UNL     1       3.196   5.493  19.353  0.00  0.00    +0.000 NA
ATOM      3  C   UNL     1       2.357   5.204  20.305  0.00  0.00    +0.000 A 
ATOM      4  N   UNL     1       1.427   6.012  20.894  0.00  0.00    +0.000 N 
ATOM      5  C   UNL     1       1.450   7.382  20.735  0.00  0.00    +0.000 C 
ATOM      6  O   UNL     1       2.208   8.035  20.026  0.00  0.00    +0.000 OA
ATOM      7  S   UNL     1       2.434   3.621  20.924  0.00  0.00    +0.000 S 
ATOM      8  C   UNL     1       3.754   3.282  19.860  0.00  0.00    +0.000 A 
ATOM      9  C   UNL     1       4.450   1.966  19.936  0.00  0.00    +0.000 C 
ATOM     10  H   UNL     1       0.812   5.563  21.554  0.00  0.00    +0.000 HD
ENDROOT
BRANCH   1  14
ATOM     11  C   UNL     1       6.766   4.909  15.867  0.00  0.00    +0.000 A 
ATOM     12  C   UNL     1       7.159   5.042  17.198  0.00  0.00    +0.000 A 
ATOM     13  C   UNL     1       6.243   4.827  18.227  0.00  0.00    +0.000 A 
ATOM     14  C   UNL     1       4.911   4.498  17.945  0.00  0.00    +0.000 A 
ATOM     15  C   UNL     1       4.514   4.406  16.606  0.00  0.00    +0.000 A 
ATOM     16  C   UNL     1       5.438   4.601  15.575  0.00  0.00    +0.000 A 
BRANCH  11  18
ATOM     17  C   UNL     1       7.357   4.958  13.587  0.00  0.00    +0.000 C 
ATOM     18  O   UNL     1       7.738   5.160  14.940  0.00  0.00    +0.000 OA
ENDBRANCH  11  18
ENDBRANCH   1  14
BRANCH   5  19
ATOM     19  C   UNL     1       0.423   8.094  21.602  0.00  0.00    +0.000 C 
BRANCH  19  20
ATOM     20  C   UNL     1       0.901   9.512  21.890  0.00  0.00    +0.000 C 
BRANCH  20  21
ATOM     21  C   UNL     1      -0.053  10.655  21.680  0.00  0.00    +0.000 A 
ATOM     22  C   UNL     1      -0.308  11.273  20.430  0.00  0.00    +0.000 A 
ATOM     23  C   UNL     1      -1.369  12.180  20.291  0.00  0.00    +0.000 A 
ATOM     24  C   UNL     1      -2.160  12.413  21.394  0.00  0.00    +0.000 A 
ATOM     25  C   UNL     1      -1.863  11.876  22.623  0.00  0.00    +0.000 A 
ATOM     26  C   UNL     1      -0.794  11.040  22.806  0.00  0.00    +0.000 A 
ATOM     27  O   UNL     1      -2.802  12.167  23.563  0.00  0.00    +0.000 OA
ATOM     28  C   UNL     1      -3.845  12.653  22.697  0.00  0.00    +0.000 C 
ATOM     29  O   UNL     1      -3.338  13.096  21.419  0.00  0.00    +0.000 OA
ENDBRANCH  20  21
ENDBRANCH  19  20
ENDBRANCH   5  19
TORSDOF 5
ENDMDL
MODEL 4
REMARK VINA RESULT:      -8.1      1.677      1.971
REMARK  Name = 
REMARK  7 active torsions:
REMARK  status: ('A' for Active; 'I' for Inactive)
REMARK    1  A    between atoms: C_1  and  O_2
REMARK    2  A    between atoms: O_2  and  C_3
REMARK    3  A    between atoms: C_6  and  C_7
REMARK    4  A    between atoms: C_11  and  C_13
REMARK    5  A    between atoms: C_13  and  C_14
REMARK    6  A    between atoms: C_14  and  C_15
REMARK    7  A    between atoms: C_25  and  C_26
REMARK                            x       y       z     vdW  Elec       q    Type
REMARK                         _______ _______ _______ _____ _____    ______ ____
ROOT
ATOM      1  C   UNL     1       3.904   4.975  19.115  0.00  0.00    +0.000 A 
ATOM      2  N   UNL     1       3.143   6.092  19.397  0.00  0.00    +0.000 NA
ATOM      3  C   UNL     1       2.232   5.801  20.280  0.00  0.00    +0.000 A 
ATOM      4  N   UNL     1       1.283   6.618  20.826  0.00  0.00    +0.000 N 
ATOM      5  C   UNL     1       1.353   7.990  20.709  0.00  0.00    +0.000 C 
ATOM      6  O   UNL     1       2.175   8.641  20.074  0.00  0.00    +0.000 OA
ATOM      7  S   UNL     1       2.225   4.200  20.855  0.00  0.00    +0.000 S 
ATOM      8  C   UNL     1       3.607   3.854  19.877  0.00  0.00    +0.000 A 
ATOM      9  C   UNL     1       4.263   2.518  19.962  0.00  0.00    +0.000 C 
ATOM     10  H   UNL     1       0.612   6.168  21.427  0.00  0.00    +0.000 HD
ENDROOT
BRANCH   1  14
ATOM     11  C   UNL     1       6.819   5.151  15.998  0.00  0.00    +0.000 A 
ATOM     12  C   UNL     1       5.467   5.360  15.730  0.00  0.00    +0.000 A 
ATOM     13  C   UNL     1       4.532   5.341  16.764  0.00  0.00    +0.000 A 
ATOM     14  C   UNL     1       4.928   5.090  18.084  0.00  0.00    +0.000 A 
ATOM     15  C   UNL     1       6.280   4.840  18.341  0.00  0.00    +0.000 A 
ATOM     16  C   UNL     1       7.220   4.880  17.307  0.00  0.00    +0.000 A 
BRANCH  11  18
ATOM     17  C   UNL     1       7.064   4.710  13.697  0.00  0.00    +0.000 C 
ATOM     18  O   UNL     1       7.644   5.171  14.909  0.00  0.00    +0.000 OA
ENDBRANCH  11  18
ENDBRANCH   1  14
BRANCH   5  19
ATOM     19  C   UNL     1       0.285   8.706  21.523  0.00  0.00    +0.000 C 
BRANCH  19  20
ATOM     20  C   UNL     1       0.296  10.190  21.175  0.00  0.00    +0.000 C 
BRANCH  20  21
ATOM     21  C   UNL     1      -0.640  10.692  20.110  0.00  0.00    +0.000 A 
ATOM     22  C   UNL     1      -0.702  10.185  18.788  0.00  0.00    +0.000 A 
ATOM     23  C   UNL     1      -1.748  10.561  17.933  0.00  0.00    +0.000 A 
ATOM     24  C   UNL     1      -2.715  11.401  18.438  0.00  0.00    +0.000 A 
ATOM     25  C   UNL     1      -2.611  11.954  19.691  0.00  0.00    +0.000 A 
ATOM     26  C   UNL     1      -1.566  11.659  20.525  0.00  0.00    +0.000 A 
ATOM     27  O   UNL     1      -3.699  12.698  20.029  0.00  0.00    +0.000 OA
ATOM     28  C   UNL     1      -4.597  12.267  18.989  0.00  0.00    +0.000 C 
ATOM     29  O   UNL     1      -3.899  11.726  17.846  0.00  0.00    +0.000 OA
ENDBRANCH  20  21
ENDBRANCH  19  20
ENDBRANCH   5  19
TORSDOF 5
ENDMDL
MODEL 5
REMARK VINA RESULT:      -8.1      2.852      9.817
REMARK  Name = 
REMARK  7 active torsions:
REMARK  status: ('A' for Active; 'I' for Inactive)
REMARK    1  A    between atoms: C_1  and  O_2
REMARK    2  A    between atoms: O_2  and  C_3
REMARK    3  A    between atoms: C_6  and  C_7
REMARK    4  A    between atoms: C_11  and  C_13
REMARK    5  A    between atoms: C_13  and  C_14
REMARK    6  A    between atoms: C_14  and  C_15
REMARK    7  A    between atoms: C_25  and  C_26
REMARK                            x       y       z     vdW  Elec       q    Type
REMARK                         _______ _______ _______ _____ _____    ______ ____
ROOT
ATOM      1  C   UNL     1       0.440  11.285  20.998  0.00  0.00    +0.000 A 
ATOM      2  N   UNL     1       1.062  10.135  20.552  0.00  0.00    +0.000 NA
ATOM      3  C   UNL     1       0.825   9.153  21.371  0.00  0.00    +0.000 A 
ATOM      4  N   UNL     1       1.253   7.858  21.294  0.00  0.00    +0.000 N 
ATOM      5  C   UNL     1       1.787   7.338  20.133  0.00  0.00    +0.000 C 
ATOM      6  O   UNL     1       2.019   7.936  19.089  0.00  0.00    +0.000 OA
ATOM      7  S   UNL     1      -0.165   9.508  22.708  0.00  0.00    +0.000 S 
ATOM      8  C   UNL     1      -0.353  11.124  22.125  0.00  0.00    +0.000 A 
ATOM      9  C   UNL     1      -1.265  12.068  22.833  0.00  0.00    +0.000 C 
ATOM     10  H   UNL     1       1.032   7.276  22.086  0.00  0.00    +0.000 HD
ENDROOT
BRANCH   1  14
ATOM     11  C   UNL     1       1.106  14.987  18.976  0.00  0.00    +0.000 A 
ATOM     12  C   UNL     1       2.102  14.409  19.762  0.00  0.00    +0.000 A 
ATOM     13  C   UNL     1       1.885  13.179  20.382  0.00  0.00    +0.000 A 
ATOM     14  C   UNL     1       0.659  12.515  20.247  0.00  0.00    +0.000 A 
ATOM     15  C   UNL     1      -0.350  13.120  19.490  0.00  0.00    +0.000 A 
ATOM     16  C   UNL     1      -0.124  14.343  18.851  0.00  0.00    +0.000 A 
BRANCH  11  18
ATOM     17  C   UNL     1       0.924  17.330  19.138  0.00  0.00    +0.000 C 
ATOM     18  O   UNL     1       1.419  16.201  18.432  0.00  0.00    +0.000 OA
ENDBRANCH  11  18
ENDBRANCH   1  14
BRANCH   5  19
ATOM     19  C   UNL     1       2.049   5.842  20.223  0.00  0.00    +0.000 C 
BRANCH  19  20
ATOM     20  C   UNL     1       2.304   5.290  18.826  0.00  0.00    +0.000 C 
BRANCH  20  21
ATOM     21  C   UNL     1       3.711   4.929  18.435  0.00  0.00    +0.000 A 
ATOM     22  C   UNL     1       4.112   4.545  17.132  0.00  0.00    +0.000 A 
ATOM     23  C   UNL     1       5.473   4.440  16.811  0.00  0.00    +0.000 A 
ATOM     24  C   UNL     1       6.387   4.755  17.791  0.00  0.00    +0.000 A 
ATOM     25  C   UNL     1       5.998   5.049  19.075  0.00  0.00    +0.000 A 
ATOM     26  C   UNL     1       4.678   5.094  19.437  0.00  0.00    +0.000 A 
ATOM     27  O   UNL     1       7.043   5.400  19.873  0.00  0.00    +0.000 OA
ATOM     28  C   UNL     1       8.044   5.601  18.857  0.00  0.00    +0.000 C 
ATOM     29  O   UNL     1       7.732   4.905  17.631  0.00  0.00    +0.000 OA
ENDBRANCH  20  21
ENDBRANCH  19  20
ENDBRANCH   5  19
TORSDOF 5
ENDMDL
MODEL 6
REMARK VINA RESULT:      -8.1      2.968      9.542
REMARK  Name = 
REMARK  7 active torsions:
REMARK  status: ('A' for Active; 'I' for Inactive)
REMARK    1  A    between atoms: C_1  and  O_2
REMARK    2  A    between atoms: O_2  and  C_3
REMARK    3  A    between atoms: C_6  and  C_7
REMARK    4  A    between atoms: C_11  and  C_13
REMARK    5  A    between atoms: C_13  and  C_14
REMARK    6  A    between atoms: C_14  and  C_15
REMARK    7  A    between atoms: C_25  and  C_26
REMARK                            x       y       z     vdW  Elec       q    Type
REMARK                         _______ _______ _______ _____ _____    ______ ____
ROOT
ATOM      1  C   UNL     1       0.600  11.204  21.152  0.00  0.00    +0.000 A 
ATOM      2  N   UNL     1       1.206  10.052  20.690  0.00  0.00    +0.000 NA
ATOM      3  C   UNL     1       0.862   9.039  21.430  0.00  0.00    +0.000 A 
ATOM      4  N   UNL     1       1.239   7.731  21.311  0.00  0.00    +0.000 N 
ATOM      5  C   UNL     1       1.842   7.251  20.168  0.00  0.00    +0.000 C 
ATOM      6  O   UNL     1       2.183   7.893  19.181  0.00  0.00    +0.000 OA
ATOM      7  S   UNL     1      -0.217   9.367  22.704  0.00  0.00    +0.000 S 
ATOM      8  C   UNL     1      -0.288  11.019  22.203  0.00  0.00    +0.000 A 
ATOM      9  C   UNL     1      -1.212  11.966  22.890  0.00  0.00    +0.000 C 
ATOM     10  H   UNL     1       0.929   7.118  22.048  0.00  0.00    +0.000 HD
ENDROOT
BRANCH   1  14
ATOM     11  C   UNL     1       1.604  14.782  19.047  0.00  0.00    +0.000 A 
ATOM     12  C   UNL     1       0.487  14.027  18.690  0.00  0.00    +0.000 A 
ATOM     13  C   UNL     1       0.148  12.884  19.413  0.00  0.00    +0.000 A 
ATOM     14  C   UNL     1       0.932  12.461  20.493  0.00  0.00    +0.000 A 
ATOM     15  C   UNL     1       2.075  13.199  20.821  0.00  0.00    +0.000 A 
ATOM     16  C   UNL     1       2.402  14.357  20.109  0.00  0.00    +0.000 A 
BRANCH  11  18
ATOM     17  C   UNL     1       3.155  15.922  17.689  0.00  0.00    +0.000 C 
ATOM     18  O   UNL     1       1.854  15.869  18.259  0.00  0.00    +0.000 OA
ENDBRANCH  11  18
ENDBRANCH   1  14
BRANCH   5  19
ATOM     19  C   UNL     1       2.031   5.741  20.191  0.00  0.00    +0.000 C 
BRANCH  19  20
ATOM     20  C   UNL     1       2.314   5.247  18.778  0.00  0.00    +0.000 C 
BRANCH  20  21
ATOM     21  C   UNL     1       3.735   4.945  18.387  0.00  0.00    +0.000 A 
ATOM     22  C   UNL     1       4.166   4.671  17.065  0.00  0.00    +0.000 A 
ATOM     23  C   UNL     1       5.535   4.617  16.762  0.00  0.00    +0.000 A 
ATOM     24  C   UNL     1       6.425   4.875  17.780  0.00  0.00    +0.000 A 
ATOM     25  C   UNL     1       6.008   5.062  19.076  0.00  0.00    +0.000 A 
ATOM     26  C   UNL     1       4.682   5.052  19.416  0.00  0.00    +0.000 A 
ATOM     27  O   UNL     1       7.032   5.371  19.917  0.00  0.00    +0.000 OA
ATOM     28  C   UNL     1       8.045   5.670  18.938  0.00  0.00    +0.000 C 
ATOM     29  O   UNL     1       7.769   5.063  17.656  0.00  0.00    +0.000 OA
ENDBRANCH  20  21
ENDBRANCH  19  20
ENDBRANCH   5  19
TORSDOF 5
ENDMDL
MODEL 7
REMARK VINA RESULT:      -8.0      2.592     10.128
REMARK  Name = 
REMARK  7 active torsions:
REMARK  status: ('A' for Active; 'I' for Inactive)
REMARK    1  A    between atoms: C_1  and  O_2
REMARK    2  A    between atoms: O_2  and  C_3
REMARK    3  A    between atoms: C_6  and  C_7
REMARK    4  A    between atoms: C_11  and  C_13
REMARK    5  A    between atoms: C_13  and  C_14
REMARK    6  A    between atoms: C_14  and  C_15
REMARK    7  A    between atoms: C_25  and  C_26
REMARK                            x       y       z     vdW  Elec       q    Type
REMARK                         _______ _______ _______ _____ _____    ______ ____
ROOT
ATOM      1  C   UNL     1       0.338  11.061  20.989  0.00  0.00    +0.000 A 
ATOM      2  N   UNL     1       1.066   9.999  20.488  0.00  0.00    +0.000 NA
ATOM      3  C   UNL     1       0.973   8.978  21.288  0.00  0.00    +0.000 A 
ATOM      4  N   UNL     1       1.538   7.741  21.159  0.00  0.00    +0.000 N 
ATOM      5  C   UNL     1       2.079   7.312  19.966  0.00  0.00    +0.000 C 
ATOM      6  O   UNL     1       2.201   7.956  18.930  0.00  0.00    +0.000 OA
ATOM      7  S   UNL     1       0.004   9.188  22.671  0.00  0.00    +0.000 S 
ATOM      8  C   UNL     1      -0.386  10.786  22.141  0.00  0.00    +0.000 A 
ATOM      9  C   UNL     1      -1.368  11.605  22.907  0.00  0.00    +0.000 C 
ATOM     10  H   UNL     1       1.415   7.119  21.943  0.00  0.00    +0.000 HD
ENDROOT
BRANCH   1  14
ATOM     11  C   UNL     1       0.416  14.858  19.035  0.00  0.00    +0.000 A 
ATOM     12  C   UNL     1       1.219  14.605  20.146  0.00  0.00    +0.000 A 
ATOM     13  C   UNL     1       1.214  13.347  20.748  0.00  0.00    +0.000 A 
ATOM     14  C   UNL     1       0.389  12.325  20.265  0.00  0.00    +0.000 A 
ATOM     15  C   UNL     1      -0.445  12.597  19.175  0.00  0.00    +0.000 A 
ATOM     16  C   UNL     1      -0.424  13.852  18.558  0.00  0.00    +0.000 A 
BRANCH  11  18
ATOM     17  C   UNL     1      -0.455  17.046  19.079  0.00  0.00    +0.000 C 
ATOM     18  O   UNL     1       0.485  16.128  18.537  0.00  0.00    +0.000 OA
ENDBRANCH  11  18
ENDBRANCH   1  14
BRANCH   5  19
ATOM     19  C   UNL     1       2.509   5.853  20.005  0.00  0.00    +0.000 C 
BRANCH  19  20
ATOM     20  C   UNL     1       2.818   5.380  18.589  0.00  0.00    +0.000 C 
BRANCH  20  21
ATOM     21  C   UNL     1       4.252   5.328  18.139  0.00  0.00    +0.000 A 
ATOM     22  C   UNL     1       5.317   4.789  18.904  0.00  0.00    +0.000 A 
ATOM     23  C   UNL     1       6.576   4.583  18.320  0.00  0.00    +0.000 A 
ATOM     24  C   UNL     1       6.719   4.890  16.986  0.00  0.00    +0.000 A 
ATOM     25  C   UNL     1       5.711   5.486  16.268  0.00  0.00    +0.000 A 
ATOM     26  C   UNL     1       4.492   5.762  16.828  0.00  0.00    +0.000 A 
ATOM     27  O   UNL     1       6.024   5.643  14.953  0.00  0.00    +0.000 OA
ATOM     28  C   UNL     1       7.182   4.789  14.895  0.00  0.00    +0.000 C 
ATOM     29  O   UNL     1       7.785   4.587  16.192  0.00  0.00    +0.000 OA
ENDBRANCH  20  21
ENDBRANCH  19  20
ENDBRANCH   5  19
TORSDOF 5
ENDMDL
MODEL 8
REMARK VINA RESULT:      -8.0      1.786     10.031
REMARK  Name = 
REMARK  7 active torsions:
REMARK  status: ('A' for Active; 'I' for Inactive)
REMARK    1  A    between atoms: C_1  and  O_2
REMARK    2  A    between atoms: O_2  and  C_3
REMARK    3  A    between atoms: C_6  and  C_7
REMARK    4  A    between atoms: C_11  and  C_13
REMARK    5  A    between atoms: C_13  and  C_14
REMARK    6  A    between atoms: C_14  and  C_15
REMARK    7  A    between atoms: C_25  and  C_26
REMARK                            x       y       z     vdW  Elec       q    Type
REMARK                         _______ _______ _______ _____ _____    ______ ____
ROOT
ATOM      1  C   UNL     1       1.199   8.930  19.908  0.00  0.00    +0.000 A 
ATOM      2  N   UNL     1       1.471   7.588  20.086  0.00  0.00    +0.000 NA
ATOM      3  C   UNL     1       2.159   7.135  19.079  0.00  0.00    +0.000 A 
ATOM      4  N   UNL     1       2.628   5.869  18.869  0.00  0.00    +0.000 N 
ATOM      5  C   UNL     1       2.668   4.933  19.881  0.00  0.00    +0.000 C 
ATOM      6  O   UNL     1       2.246   5.056  21.024  0.00  0.00    +0.000 OA
ATOM      7  S   UNL     1       2.555   8.262  17.868  0.00  0.00    +0.000 S 
ATOM      8  C   UNL     1       1.782   9.504  18.787  0.00  0.00    +0.000 A 
ATOM      9  C   UNL     1       1.831  10.918  18.316  0.00  0.00    +0.000 C 
ATOM     10  H   UNL     1       3.063   5.706  17.975  0.00  0.00    +0.000 HD
ENDROOT
BRANCH   1  14
ATOM     11  C   UNL     1      -1.137  11.047  22.789  0.00  0.00    +0.000 A 
ATOM     12  C   UNL     1      -1.127  11.433  21.449  0.00  0.00    +0.000 A 
ATOM     13  C   UNL     1      -0.393  10.706  20.513  0.00  0.00    +0.000 A 
ATOM     14  C   UNL     1       0.364   9.594  20.901  0.00  0.00    +0.000 A 
ATOM     15  C   UNL     1       0.383   9.237  22.254  0.00  0.00    +0.000 A 
ATOM     16  C   UNL     1      -0.370   9.952  23.189  0.00  0.00    +0.000 A 
BRANCH  11  18
ATOM     17  C   UNL     1      -3.069  12.367  23.065  0.00  0.00    +0.000 C 
ATOM     18  O   UNL     1      -1.873  11.840  23.623  0.00  0.00    +0.000 OA
ENDBRANCH  11  18
ENDBRANCH   1  14
BRANCH   5  19
ATOM     19  C   UNL     1       3.370   3.648  19.467  0.00  0.00    +0.000 C 
BRANCH  19  20
ATOM     20  C   UNL     1       4.877   3.871  19.477  0.00  0.00    +0.000 C 
BRANCH  20  21
ATOM     21  C   UNL     1       5.514   4.574  18.310  0.00  0.00    +0.000 A 
ATOM     22  C   UNL     1       6.581   5.501  18.412  0.00  0.00    +0.000 A 
ATOM     23  C   UNL     1       7.253   5.939  17.261  0.00  0.00    +0.000 A 
ATOM     24  C   UNL     1       6.860   5.410  16.052  0.00  0.00    +0.000 A 
ATOM     25  C   UNL     1       5.776   4.573  15.946  0.00  0.00    +0.000 A 
ATOM     26  C   UNL     1       5.057   4.181  17.044  0.00  0.00    +0.000 A 
ATOM     27  O   UNL     1       5.596   4.105  14.682  0.00  0.00    +0.000 OA
ATOM     28  C   UNL     1       6.866   4.484  14.119  0.00  0.00    +0.000 C 
ATOM     29  O   UNL     1       7.500   5.550  14.858  0.00  0.00    +0.000 OA
ENDBRANCH  20  21
ENDBRANCH  19  20
ENDBRANCH   5  19
TORSDOF 5
ENDMDL
MODEL 9
REMARK VINA RESULT:      -8.0      2.811     11.149
REMARK  Name = 
REMARK  7 active torsions:
REMARK  status: ('A' for Active; 'I' for Inactive)
REMARK    1  A    between atoms: C_1  and  O_2
REMARK    2  A    between atoms: O_2  and  C_3
REMARK    3  A    between atoms: C_6  and  C_7
REMARK    4  A    between atoms: C_11  and  C_13
REMARK    5  A    between atoms: C_13  and  C_14
REMARK    6  A    between atoms: C_14  and  C_15
REMARK    7  A    between atoms: C_25  and  C_26
REMARK                            x       y       z     vdW  Elec       q    Type
REMARK                         _______ _______ _______ _____ _____    ______ ____
ROOT
ATOM      1  C   UNL     1      -0.026  12.452  20.177  0.00  0.00    +0.000 A 
ATOM      2  N   UNL     1       0.361  11.226  19.671  0.00  0.00    +0.000 NA
ATOM      3  C   UNL     1       1.280  11.387  18.765  0.00  0.00    +0.000 A 
ATOM      4  N   UNL     1       1.925  10.435  18.028  0.00  0.00    +0.000 N 
ATOM      5  C   UNL     1       1.877   9.099  18.367  0.00  0.00    +0.000 C 
ATOM      6  O   UNL     1       1.229   8.584  19.271  0.00  0.00    +0.000 OA
ATOM      7  S   UNL     1       1.769  12.988  18.463  0.00  0.00    +0.000 S 
ATOM      8  C   UNL     1       0.693  13.537  19.698  0.00  0.00    +0.000 A 
ATOM      9  C   UNL     1       0.667  14.980  20.074  0.00  0.00    +0.000 C 
ATOM     10  H   UNL     1       2.541  10.780  17.309  0.00  0.00    +0.000 HD
ENDROOT
BRANCH   1  14
ATOM     11  C   UNL     1      -3.196  12.318  23.036  0.00  0.00    +0.000 A 
ATOM     12  C   UNL     1      -1.927  11.831  23.347  0.00  0.00    +0.000 A 
ATOM     13  C   UNL     1      -0.891  11.920  22.418  0.00  0.00    +0.000 A 
ATOM     14  C   UNL     1      -1.109  12.476  21.152  0.00  0.00    +0.000 A 
ATOM     15  C   UNL     1      -2.395  12.925  20.831  0.00  0.00    +0.000 A 
ATOM     16  C   UNL     1      -3.428  12.855  21.770  0.00  0.00    +0.000 A 
BRANCH  11  18
ATOM     17  C   UNL     1      -5.298  12.973  23.873  0.00  0.00    +0.000 C 
ATOM     18  O   UNL     1      -4.140  12.162  24.011  0.00  0.00    +0.000 OA
ENDBRANCH  11  18
ENDBRANCH   1  14
BRANCH   5  19
ATOM     19  C   UNL     1       2.790   8.239  17.506  0.00  0.00    +0.000 C 
BRANCH  19  20
ATOM     20  C   UNL     1       3.380   7.121  18.358  0.00  0.00    +0.000 C 
BRANCH  20  21
ATOM     21  C   UNL     1       4.167   6.032  17.680  0.00  0.00    +0.000 A 
ATOM     22  C   UNL     1       3.682   4.724  17.432  0.00  0.00    +0.000 A 
ATOM     23  C   UNL     1       4.399   3.847  16.605  0.00  0.00    +0.000 A 
ATOM     24  C   UNL     1       5.557   4.317  16.027  0.00  0.00    +0.000 A 
ATOM     25  C   UNL     1       6.067   5.556  16.332  0.00  0.00    +0.000 A 
ATOM     26  C   UNL     1       5.424   6.410  17.189  0.00  0.00    +0.000 A 
ATOM     27  O   UNL     1       7.176   5.861  15.606  0.00  0.00    +0.000 OA
ATOM     28  C   UNL     1       7.086   4.823  14.611  0.00  0.00    +0.000 C 
ATOM     29  O   UNL     1       6.287   3.704  15.053  0.00  0.00    +0.000 OA
ENDBRANCH  20  21
ENDBRANCH  19  20
ENDBRANCH   5  19
TORSDOF 5
ENDMDL
