MODEL 1
REMARK VINA RESULT:      -6.1      0.000      0.000
REMARK  Name = 
REMARK  5 active torsions:
REMARK  status: ('A' for Active; 'I' for Inactive)
REMARK    1  A    between atoms: C_2  and  C_3
REMARK    2  A    between atoms: C_2  and  C_4
REMARK    3  A    between atoms: C_4  and  S_5
REMARK    4  A    between atoms: S_5  and  C_6
REMARK    5  A    between atoms: C_9  and  C_10
REMARK                            x       y       z     vdW  Elec       q    Type
REMARK                         _______ _______ _______ _____ _____    ______ ____
ROOT
ATOM      1  C   UNL     1       4.960   4.574  17.001  0.00  0.00    +0.000 A 
ATOM      2  N   UNL     1       4.112   5.579  17.006  0.00  0.00    +0.000 NA
ATOM      3  N   UNL     1       3.069   5.222  17.843  0.00  0.00    +0.000 NA
ATOM      4  C   UNL     1       3.359   4.021  18.300  0.00  0.00    +0.000 A 
ATOM      5  O   UNL     1       4.548   3.543  17.811  0.00  0.00    +0.000 OA
ENDROOT
BRANCH   4   6
ATOM      6  C   UNL     1       2.613   3.185  19.284  0.00  0.00    +0.000 C 
ATOM      7  C   UNL     1       1.404   3.904  19.862  0.00  0.00    +0.000 C 
ATOM      8  C   UNL     1       1.062   3.057  21.073  0.00  0.00    +0.000 C 
ATOM      9  C   UNL     1       2.397   2.480  21.527  0.00  0.00    +0.000 C 
ATOM     10  N   UNL     1       3.376   2.834  20.496  0.00  0.00    +0.000 NA
ATOM     11  H   UNL     1       4.007   2.057  20.307  0.00  0.00    +0.000 HD
ENDBRANCH   4   6
BRANCH   1  12
ATOM     12  S   UNL     1       6.436   4.489  16.069  0.00  0.00    +0.000 S 
BRANCH  12  13
ATOM     13  C   UNL     1       7.673   4.534  17.389  0.00  0.00    +0.000 C 
BRANCH  13  15
ATOM     14  C   UNL     1       7.579   5.744  19.558  0.00  0.00    +0.000 C 
ATOM     15  C   UNL     1       7.612   5.806  18.219  0.00  0.00    +0.000 C 
ATOM     16  C   UNL     1       7.516   7.148  17.536  0.00  0.00    +0.000 C 
ENDBRANCH  13  15
ENDBRANCH  12  13
ENDBRANCH   1  12
TORSDOF 4
ENDMDL
MODEL 2
REMARK VINA RESULT:      -6.1      2.845      3.943
REMARK  Name = 
REMARK  5 active torsions:
REMARK  status: ('A' for Active; 'I' for Inactive)
REMARK    1  A    between atoms: C_2  and  C_3
REMARK    2  A    between atoms: C_2  and  C_4
REMARK    3  A    between atoms: C_4  and  S_5
REMARK    4  A    between atoms: S_5  and  C_6
REMARK    5  A    between atoms: C_9  and  C_10
REMARK                            x       y       z     vdW  Elec       q    Type
REMARK                         _______ _______ _______ _____ _____    ______ ____
ROOT
ATOM      1  C   UNL     1       6.265   4.425  16.579  0.00  0.00    +0.000 A 
ATOM      2  N   UNL     1       6.963   4.617  17.676  0.00  0.00    +0.000 NA
ATOM      3  N   UNL     1       6.124   4.337  18.741  0.00  0.00    +0.000 NA
ATOM      4  C   UNL     1       4.968   3.983  18.217  0.00  0.00    +0.000 A 
ATOM      5  O   UNL     1       4.981   4.012  16.845  0.00  0.00    +0.000 OA
ENDROOT
BRANCH   4   6
ATOM      6  C   UNL     1       3.728   3.520  18.901  0.00  0.00    +0.000 C 
ATOM      7  C   UNL     1       3.233   2.183  18.372  0.00  0.00    +0.000 C 
ATOM      8  C   UNL     1       1.814   2.119  18.902  0.00  0.00    +0.000 C 
ATOM      9  C   UNL     1       1.368   3.574  18.979  0.00  0.00    +0.000 C 
ATOM     10  N   UNL     1       2.553   4.389  18.698  0.00  0.00    +0.000 NA
ATOM     11  H   UNL     1       2.598   5.198  19.315  0.00  0.00    +0.000 HD
ENDBRANCH   4   6
BRANCH   1  12
ATOM     12  S   UNL     1       6.838   4.681  14.947  0.00  0.00    +0.000 S 
BRANCH  12  13
ATOM     13  C   UNL     1       5.399   4.133  13.995  0.00  0.00    +0.000 C 
BRANCH  13  15
ATOM     14  C   UNL     1       7.014   3.780  12.138  0.00  0.00    +0.000 C 
ATOM     15  C   UNL     1       5.757   3.667  12.593  0.00  0.00    +0.000 C 
ATOM     16  C   UNL     1       4.682   3.138  11.676  0.00  0.00    +0.000 C 
ENDBRANCH  13  15
ENDBRANCH  12  13
ENDBRANCH   1  12
TORSDOF 4
ENDMDL
MODEL 3
REMARK VINA RESULT:      -6.1      2.921      3.992
REMARK  Name = 
REMARK  5 active torsions:
REMARK  status: ('A' for Active; 'I' for Inactive)
REMARK    1  A    between atoms: C_2  and  C_3
REMARK    2  A    between atoms: C_2  and  C_4
REMARK    3  A    between atoms: C_4  and  S_5
REMARK    4  A    between atoms: S_5  and  C_6
REMARK    5  A    between atoms: C_9  and  C_10
REMARK                            x       y       z     vdW  Elec       q    Type
REMARK                         _______ _______ _______ _____ _____    ______ ____
ROOT
ATOM      1  C   UNL     1       6.497   4.515  16.534  0.00  0.00    +0.000 A 
ATOM      2  N   UNL     1       7.312   4.539  17.565  0.00  0.00    +0.000 NA
ATOM      3  N   UNL     1       6.524   4.470  18.702  0.00  0.00    +0.000 NA
ATOM      4  C   UNL     1       5.278   4.400  18.283  0.00  0.00    +0.000 A 
ATOM      5  O   UNL     1       5.180   4.421  16.915  0.00  0.00    +0.000 OA
ENDROOT
BRANCH   4   6
ATOM      6  C   UNL     1       4.026   4.248  19.078  0.00  0.00    +0.000 C 
ATOM      7  C   UNL     1       2.789   4.126  18.201  0.00  0.00    +0.000 C 
ATOM      8  C   UNL     1       1.660   4.381  19.181  0.00  0.00    +0.000 C 
ATOM      9  C   UNL     1       2.259   5.323  20.219  0.00  0.00    +0.000 C 
ATOM     10  N   UNL     1       3.693   5.408  19.926  0.00  0.00    +0.000 NA
ATOM     11  H   UNL     1       4.244   5.393  20.782  0.00  0.00    +0.000 HD
ENDBRANCH   4   6
BRANCH   1  12
ATOM     12  S   UNL     1       6.972   4.622  14.855  0.00  0.00    +0.000 S 
BRANCH  12  13
ATOM     13  C   UNL     1       5.462   4.048  14.039  0.00  0.00    +0.000 C 
BRANCH  13  15
ATOM     14  C   UNL     1       4.661   3.213  11.840  0.00  0.00    +0.000 C 
ATOM     15  C   UNL     1       5.680   3.669  12.583  0.00  0.00    +0.000 C 
ATOM     16  C   UNL     1       7.063   3.736  11.984  0.00  0.00    +0.000 C 
ENDBRANCH  13  15
ENDBRANCH  12  13
ENDBRANCH   1  12
TORSDOF 4
ENDMDL
MODEL 4
REMARK VINA RESULT:      -6.0      3.962      6.328
REMARK  Name = 
REMARK  5 active torsions:
REMARK  status: ('A' for Active; 'I' for Inactive)
REMARK    1  A    between atoms: C_2  and  C_3
REMARK    2  A    between atoms: C_2  and  C_4
REMARK    3  A    between atoms: C_4  and  S_5
REMARK    4  A    between atoms: S_5  and  C_6
REMARK    5  A    between atoms: C_9  and  C_10
REMARK                            x       y       z     vdW  Elec       q    Type
REMARK                         _______ _______ _______ _____ _____    ______ ____
ROOT
ATOM      1  C   UNL     1       6.663   4.746  15.902  0.00  0.00    +0.000 A 
ATOM      2  N   UNL     1       7.585   5.532  15.391  0.00  0.00    +0.000 NA
ATOM      3  N   UNL     1       7.600   5.300  14.026  0.00  0.00    +0.000 NA
ATOM      4  C   UNL     1       6.676   4.390  13.797  0.00  0.00    +0.000 A 
ATOM      5  O   UNL     1       6.035   3.990  14.942  0.00  0.00    +0.000 OA
ENDROOT
BRANCH   4   6
ATOM      6  C   UNL     1       6.225   3.814  12.497  0.00  0.00    +0.000 C 
ATOM      7  C   UNL     1       4.710   3.793  12.363  0.00  0.00    +0.000 C 
ATOM      8  C   UNL     1       4.493   2.841  11.202  0.00  0.00    +0.000 C 
ATOM      9  C   UNL     1       5.666   1.872  11.277  0.00  0.00    +0.000 C 
ATOM     10  N   UNL     1       6.575   2.395  12.300  0.00  0.00    +0.000 NA
ATOM     11  H   UNL     1       7.547   2.306  12.007  0.00  0.00    +0.000 HD
ENDBRANCH   4   6
BRANCH   1  12
ATOM     12  S   UNL     1       6.264   4.611  17.598  0.00  0.00    +0.000 S 
BRANCH  12  13
ATOM     13  C   UNL     1       4.558   4.013  17.497  0.00  0.00    +0.000 C 
BRANCH  13  15
ATOM     14  C   UNL     1       2.241   4.805  17.920  0.00  0.00    +0.000 C 
ATOM     15  C   UNL     1       3.529   5.112  17.708  0.00  0.00    +0.000 C 
ATOM     16  C   UNL     1       3.940   6.561  17.610  0.00  0.00    +0.000 C 
ENDBRANCH  13  15
ENDBRANCH  12  13
ENDBRANCH   1  12
TORSDOF 4
ENDMDL
MODEL 5
REMARK VINA RESULT:      -6.0      2.526      5.892
REMARK  Name = 
REMARK  5 active torsions:
REMARK  status: ('A' for Active; 'I' for Inactive)
REMARK    1  A    between atoms: C_2  and  C_3
REMARK    2  A    between atoms: C_2  and  C_4
REMARK    3  A    between atoms: C_4  and  S_5
REMARK    4  A    between atoms: S_5  and  C_6
REMARK    5  A    between atoms: C_9  and  C_10
REMARK                            x       y       z     vdW  Elec       q    Type
REMARK                         _______ _______ _______ _____ _____    ______ ____
ROOT
ATOM      1  C   UNL     1       4.951   3.765  19.087  0.00  0.00    +0.000 A 
ATOM      2  N   UNL     1       5.733   4.732  19.515  0.00  0.00    +0.000 NA
ATOM      3  N   UNL     1       6.265   5.344  18.393  0.00  0.00    +0.000 NA
ATOM      4  C   UNL     1       5.762   4.711  17.354  0.00  0.00    +0.000 A 
ATOM      5  O   UNL     1       4.915   3.694  17.716  0.00  0.00    +0.000 OA
ENDROOT
BRANCH   4   6
ATOM      6  C   UNL     1       5.949   4.991  15.901  0.00  0.00    +0.000 C 
ATOM      7  C   UNL     1       5.677   3.772  15.033  0.00  0.00    +0.000 C 
ATOM      8  C   UNL     1       6.296   4.166  13.705  0.00  0.00    +0.000 C 
ATOM      9  C   UNL     1       7.446   5.094  14.078  0.00  0.00    +0.000 C 
ATOM     10  N   UNL     1       7.327   5.347  15.516  0.00  0.00    +0.000 NA
ATOM     11  H   UNL     1       7.516   6.324  15.734  0.00  0.00    +0.000 HD
ENDBRANCH   4   6
BRANCH   1  12
ATOM     12  S   UNL     1       4.065   2.648  20.098  0.00  0.00    +0.000 S 
BRANCH  12  13
ATOM     13  C   UNL     1       2.617   2.330  19.060  0.00  0.00    +0.000 C 
BRANCH  13  15
ATOM     14  C   UNL     1       1.460   4.178  17.868  0.00  0.00    +0.000 C 
ATOM     15  C   UNL     1       1.650   3.502  19.011  0.00  0.00    +0.000 C 
ATOM     16  C   UNL     1       0.953   3.959  20.268  0.00  0.00    +0.000 C 
ENDBRANCH  13  15
ENDBRANCH  12  13
ENDBRANCH   1  12
TORSDOF 4
ENDMDL
MODEL 6
REMARK VINA RESULT:      -6.0      2.873      3.801
REMARK  Name = 
REMARK  5 active torsions:
REMARK  status: ('A' for Active; 'I' for Inactive)
REMARK    1  A    between atoms: C_2  and  C_3
REMARK    2  A    between atoms: C_2  and  C_4
REMARK    3  A    between atoms: C_4  and  S_5
REMARK    4  A    between atoms: S_5  and  C_6
REMARK    5  A    between atoms: C_9  and  C_10
REMARK                            x       y       z     vdW  Elec       q    Type
REMARK                         _______ _______ _______ _____ _____    ______ ____
ROOT
ATOM      1  C   UNL     1       6.347   4.516  16.563  0.00  0.00    +0.000 A 
ATOM      2  N   UNL     1       7.112   4.599  17.629  0.00  0.00    +0.000 NA
ATOM      3  N   UNL     1       6.293   4.411  18.728  0.00  0.00    +0.000 NA
ATOM      4  C   UNL     1       5.079   4.216  18.255  0.00  0.00    +0.000 A 
ATOM      5  O   UNL     1       5.035   4.267  16.884  0.00  0.00    +0.000 OA
ENDROOT
BRANCH   4   6
ATOM      6  C   UNL     1       3.821   3.905  18.991  0.00  0.00    +0.000 C 
ATOM      7  C   UNL     1       3.348   5.065  19.853  0.00  0.00    +0.000 C 
ATOM      8  C   UNL     1       2.337   4.406  20.772  0.00  0.00    +0.000 C 
ATOM      9  C   UNL     1       2.833   2.973  20.923  0.00  0.00    +0.000 C 
ATOM     10  N   UNL     1       3.939   2.813  19.976  0.00  0.00    +0.000 NA
ATOM     11  H   UNL     1       3.896   1.908  19.511  0.00  0.00    +0.000 HD
ENDBRANCH   4   6
BRANCH   1  12
ATOM     12  S   UNL     1       6.875   4.723  14.910  0.00  0.00    +0.000 S 
BRANCH  12  13
ATOM     13  C   UNL     1       5.452   4.052  14.015  0.00  0.00    +0.000 C 
BRANCH  13  15
ATOM     14  C   UNL     1       7.029   3.796  12.110  0.00  0.00    +0.000 C 
ATOM     15  C   UNL     1       5.780   3.664  12.582  0.00  0.00    +0.000 C 
ATOM     16  C   UNL     1       4.684   3.195  11.657  0.00  0.00    +0.000 C 
ENDBRANCH  13  15
ENDBRANCH  12  13
ENDBRANCH   1  12
TORSDOF 4
ENDMDL
MODEL 7
REMARK VINA RESULT:      -5.9      3.111      6.328
REMARK  Name = 
REMARK  5 active torsions:
REMARK  status: ('A' for Active; 'I' for Inactive)
REMARK    1  A    between atoms: C_2  and  C_3
REMARK    2  A    between atoms: C_2  and  C_4
REMARK    3  A    between atoms: C_4  and  S_5
REMARK    4  A    between atoms: S_5  and  C_6
REMARK    5  A    between atoms: C_9  and  C_10
REMARK                            x       y       z     vdW  Elec       q    Type
REMARK                         _______ _______ _______ _____ _____    ______ ____
ROOT
ATOM      1  C   UNL     1       5.758   4.341  18.048  0.00  0.00    +0.000 A 
ATOM      2  N   UNL     1       7.060   4.460  18.185  0.00  0.00    +0.000 NA
ATOM      3  N   UNL     1       7.579   4.682  16.921  0.00  0.00    +0.000 NA
ATOM      4  C   UNL     1       6.551   4.691  16.097  0.00  0.00    +0.000 A 
ATOM      5  O   UNL     1       5.358   4.483  16.741  0.00  0.00    +0.000 OA
ENDROOT
BRANCH   4   6
ATOM      6  C   UNL     1       6.526   4.947  14.628  0.00  0.00    +0.000 C 
ATOM      7  C   UNL     1       6.270   3.684  13.821  0.00  0.00    +0.000 C 
ATOM      8  C   UNL     1       6.676   4.098  12.419  0.00  0.00    +0.000 C 
ATOM      9  C   UNL     1       7.765   5.142  12.628  0.00  0.00    +0.000 C 
ATOM     10  N   UNL     1       7.803   5.423  14.066  0.00  0.00    +0.000 NA
ATOM     11  H   UNL     1       7.920   6.420  14.242  0.00  0.00    +0.000 HD
ENDBRANCH   4   6
BRANCH   1  12
ATOM     12  S   UNL     1       4.624   4.007  19.335  0.00  0.00    +0.000 S 
BRANCH  12  13
ATOM     13  C   UNL     1       3.242   5.071  18.851  0.00  0.00    +0.000 C 
BRANCH  13  15
ATOM     14  C   UNL     1       1.332   3.880  19.906  0.00  0.00    +0.000 C 
ATOM     15  C   UNL     1       2.068   4.998  19.815  0.00  0.00    +0.000 C 
ATOM     16  C   UNL     1       1.680   6.210  20.625  0.00  0.00    +0.000 C 
ENDBRANCH  13  15
ENDBRANCH  12  13
ENDBRANCH   1  12
TORSDOF 4
ENDMDL
MODEL 8
REMARK VINA RESULT:      -5.9      1.306      1.373
REMARK  Name = 
REMARK  5 active torsions:
REMARK  status: ('A' for Active; 'I' for Inactive)
REMARK    1  A    between atoms: C_2  and  C_3
REMARK    2  A    between atoms: C_2  and  C_4
REMARK    3  A    between atoms: C_4  and  S_5
REMARK    4  A    between atoms: S_5  and  C_6
REMARK    5  A    between atoms: C_9  and  C_10
REMARK                            x       y       z     vdW  Elec       q    Type
REMARK                         _______ _______ _______ _____ _____    ______ ____
ROOT
ATOM      1  C   UNL     1       4.518   5.037  17.100  0.00  0.00    +0.000 A 
ATOM      2  N   UNL     1       4.693   3.928  16.416  0.00  0.00    +0.000 NA
ATOM      3  N   UNL     1       4.071   2.915  17.125  0.00  0.00    +0.000 NA
ATOM      4  C   UNL     1       3.548   3.481  18.193  0.00  0.00    +0.000 A 
ATOM      5  O   UNL     1       3.790   4.830  18.246  0.00  0.00    +0.000 OA
ENDROOT
BRANCH   4   6
ATOM      6  C   UNL     1       2.717   2.869  19.269  0.00  0.00    +0.000 C 
ATOM      7  C   UNL     1       1.447   3.660  19.545  0.00  0.00    +0.000 C 
ATOM      8  C   UNL     1       0.995   3.105  20.882  0.00  0.00    +0.000 C 
ATOM      9  C   UNL     1       2.285   2.697  21.584  0.00  0.00    +0.000 C 
ATOM     10  N   UNL     1       3.358   2.837  20.597  0.00  0.00    +0.000 NA
ATOM     11  H   UNL     1       4.015   2.060  20.656  0.00  0.00    +0.000 HD
ENDBRANCH   4   6
BRANCH   1  12
ATOM     12  S   UNL     1       5.144   6.611  16.668  0.00  0.00    +0.000 S 
BRANCH  12  13
ATOM     13  C   UNL     1       6.924   6.282  16.682  0.00  0.00    +0.000 C 
BRANCH  13  15
ATOM     14  C   UNL     1       7.877   6.199  18.975  0.00  0.00    +0.000 C 
ATOM     15  C   UNL     1       7.637   6.913  17.866  0.00  0.00    +0.000 C 
ATOM     16  C   UNL     1       8.016   8.373  17.828  0.00  0.00    +0.000 C 
ENDBRANCH  13  15
ENDBRANCH  12  13
ENDBRANCH   1  12
TORSDOF 4
ENDMDL
MODEL 9
REMARK VINA RESULT:      -5.9      1.888      5.791
REMARK  Name = 
REMARK  5 active torsions:
REMARK  status: ('A' for Active; 'I' for Inactive)
REMARK    1  A    between atoms: C_2  and  C_3
REMARK    2  A    between atoms: C_2  and  C_4
REMARK    3  A    between atoms: C_4  and  S_5
REMARK    4  A    between atoms: S_5  and  C_6
REMARK    5  A    between atoms: C_9  and  C_10
REMARK                            x       y       z     vdW  Elec       q    Type
REMARK                         _______ _______ _______ _____ _____    ______ ____
ROOT
ATOM      1  C   UNL     1       4.095   3.519  18.258  0.00  0.00    +0.000 A 
ATOM      2  N   UNL     1       4.772   3.210  19.342  0.00  0.00    +0.000 NA
ATOM      3  N   UNL     1       5.918   3.986  19.336  0.00  0.00    +0.000 NA
ATOM      4  C   UNL     1       5.857   4.725  18.247  0.00  0.00    +0.000 A 
ATOM      5  O   UNL     1       4.725   4.485  17.511  0.00  0.00    +0.000 OA
ENDROOT
BRANCH   4   6
ATOM      6  C   UNL     1       6.798   5.780  17.773  0.00  0.00    +0.000 C 
ATOM      7  C   UNL     1       7.735   6.261  18.870  0.00  0.00    +0.000 C 
ATOM      8  C   UNL     1       8.289   7.550  18.293  0.00  0.00    +0.000 C 
ATOM      9  C   UNL     1       7.172   8.082  17.404  0.00  0.00    +0.000 C 
ATOM     10  N   UNL     1       6.149   7.034  17.346  0.00  0.00    +0.000 NA
ATOM     11  H   UNL     1       5.775   6.938  16.403  0.00  0.00    +0.000 HD
ENDBRANCH   4   6
BRANCH   1  12
ATOM     12  S   UNL     1       2.585   2.796  17.757  0.00  0.00    +0.000 S 
BRANCH  12  13
ATOM     13  C   UNL     1       1.401   3.999  18.411  0.00  0.00    +0.000 C 
BRANCH  13  15
ATOM     14  C   UNL     1       1.699   5.284  20.517  0.00  0.00    +0.000 C 
ATOM     15  C   UNL     1       1.439   4.108  19.927  0.00  0.00    +0.000 C 
ATOM     16  C   UNL     1       1.257   2.876  20.777  0.00  0.00    +0.000 C 
ENDBRANCH  13  15
ENDBRANCH  12  13
ENDBRANCH   1  12
TORSDOF 4
ENDMDL
