MODEL 1
REMARK VINA RESULT:      -7.0      0.000      0.000
REMARK  Name = 
REMARK  6 active torsions:
REMARK  status: ('A' for Active; 'I' for Inactive)
REMARK    1  A    between atoms: C_2  and  C_10
REMARK    2  A    between atoms: N_3  and  C_4
REMARK    3  A    between atoms: C_10  and  N_11
REMARK    4  A    between atoms: C_10  and  C_18
REMARK    5  A    between atoms: C_10  and  C_24
REMARK    6  A    between atoms: N_11  and  C_12
REMARK                            x       y       z     vdW  Elec       q    Type
REMARK                         _______ _______ _______ _____ _____    ______ ____
ROOT
ATOM      1  C   UNL     1       0.591  11.637  20.004  0.00  0.00    +0.000 C 
ENDROOT
BRANCH   1   2
ATOM      2  C   UNL     1       1.071  10.220  19.511  0.00  0.00    +0.000 A 
ATOM      3  C   UNL     1       1.158   9.126  20.398  0.00  0.00    +0.000 A 
ATOM      4  C   UNL     1       1.777   7.930  20.037  0.00  0.00    +0.000 A 
ATOM      5  C   UNL     1       2.263   7.767  18.749  0.00  0.00    +0.000 A 
ATOM      6  C   UNL     1       2.086   8.782  17.813  0.00  0.00    +0.000 A 
ATOM      7  C   UNL     1       1.478   9.989  18.183  0.00  0.00    +0.000 A 
ENDBRANCH   1   2
BRANCH   1   8
ATOM      8  C   UNL     1       1.685  12.702  19.637  0.00  0.00    +0.000 A 
ATOM      9  C   UNL     1       1.974  13.112  18.316  0.00  0.00    +0.000 A 
ATOM     10  C   UNL     1       2.947  14.086  18.049  0.00  0.00    +0.000 A 
ATOM     11  C   UNL     1       3.669  14.665  19.087  0.00  0.00    +0.000 A 
ATOM     12  C   UNL     1       3.411  14.273  20.397  0.00  0.00    +0.000 A 
ATOM     13  C   UNL     1       2.436  13.307  20.665  0.00  0.00    +0.000 A 
ENDBRANCH   1   8
BRANCH   1  15
ATOM     14  O   UNL     1      -1.059  13.220  18.987  0.00  0.00    +0.000 OA
ATOM     15  C   UNL     1      -0.820  12.050  19.318  0.00  0.00    +0.000 C 
ATOM     16  N   UNL     1      -1.791  11.067  19.126  0.00  0.00    +0.000 N 
ATOM     17  H   UNL     1      -1.741  10.242  19.709  0.00  0.00    +0.000 HD
BRANCH  16  18
ATOM     18  C   UNL     1      -3.021  11.349  18.466  0.00  0.00    +0.000 A 
ATOM     19  C   UNL     1      -3.213  11.080  17.102  0.00  0.00    +0.000 A 
ATOM     20  C   UNL     1      -4.396  11.429  16.449  0.00  0.00    +0.000 A 
ATOM     21  C   UNL     1      -5.418  12.042  17.161  0.00  0.00    +0.000 A 
ATOM     22  C   UNL     1      -5.258  12.286  18.525  0.00  0.00    +0.000 A 
ATOM     23  C   UNL     1      -4.070  11.930  19.181  0.00  0.00    +0.000 A 
ENDBRANCH  16  18
ENDBRANCH   1  15
BRANCH   1  24
ATOM     24  N   UNL     1       0.409  11.614  21.513  0.00  0.00    +0.000 N 
ATOM     25  H   UNL     1       0.370  10.647  21.811  0.00  0.00    +0.000 HD
BRANCH  24  26
ATOM     26  C   UNL     1      -0.636  12.282  22.175  0.00  0.00    +0.000 A 
ATOM     27  C   UNL     1      -1.699  11.523  22.694  0.00  0.00    +0.000 A 
ATOM     28  C   UNL     1      -2.789  12.123  23.339  0.00  0.00    +0.000 A 
ATOM     29  C   UNL     1      -2.823  13.497  23.524  0.00  0.00    +0.000 A 
ATOM     30  C   UNL     1      -1.753  14.267  23.080  0.00  0.00    +0.000 A 
ATOM     31  C   UNL     1      -0.670  13.657  22.435  0.00  0.00    +0.000 A 
ENDBRANCH  24  26
ENDBRANCH   1  24
TORSDOF 6
ENDMDL
MODEL 2
REMARK VINA RESULT:      -6.9      1.378      5.259
REMARK  Name = 
REMARK  6 active torsions:
REMARK  status: ('A' for Active; 'I' for Inactive)
REMARK    1  A    between atoms: C_2  and  C_10
REMARK    2  A    between atoms: N_3  and  C_4
REMARK    3  A    between atoms: C_10  and  N_11
REMARK    4  A    between atoms: C_10  and  C_18
REMARK    5  A    between atoms: C_10  and  C_24
REMARK    6  A    between atoms: N_11  and  C_12
REMARK                            x       y       z     vdW  Elec       q    Type
REMARK                         _______ _______ _______ _____ _____    ______ ____
ROOT
ATOM      1  C   UNL     1      -0.718  11.249  19.218  0.00  0.00    +0.000 C 
ENDROOT
BRANCH   1   2
ATOM      2  C   UNL     1      -1.895  10.910  18.229  0.00  0.00    +0.000 A 
ATOM      3  C   UNL     1      -1.715  10.010  17.156  0.00  0.00    +0.000 A 
ATOM      4  C   UNL     1      -2.669   9.859  16.151  0.00  0.00    +0.000 A 
ATOM      5  C   UNL     1      -3.868  10.551  16.228  0.00  0.00    +0.000 A 
ATOM      6  C   UNL     1      -4.127  11.355  17.335  0.00  0.00    +0.000 A 
ATOM      7  C   UNL     1      -3.161  11.517  18.335  0.00  0.00    +0.000 A 
ENDBRANCH   1   2
BRANCH   1   8
ATOM      8  C   UNL     1       0.302  10.054  19.223  0.00  0.00    +0.000 A 
ATOM      9  C   UNL     1       1.050   9.651  18.095  0.00  0.00    +0.000 A 
ATOM     10  C   UNL     1       1.965   8.590  18.164  0.00  0.00    +0.000 A 
ATOM     11  C   UNL     1       2.147   7.893  19.354  0.00  0.00    +0.000 A 
ATOM     12  C   UNL     1       1.416   8.263  20.478  0.00  0.00    +0.000 A 
ATOM     13  C   UNL     1       0.509   9.325  20.413  0.00  0.00    +0.000 A 
ENDBRANCH   1   8
BRANCH   1  15
ATOM     14  O   UNL     1      -0.452  13.395  17.960  0.00  0.00    +0.000 OA
ATOM     15  C   UNL     1       0.046  12.611  18.779  0.00  0.00    +0.000 C 
ATOM     16  N   UNL     1       1.304  12.884  19.318  0.00  0.00    +0.000 N 
ATOM     17  H   UNL     1       1.839  12.102  19.672  0.00  0.00    +0.000 HD
BRANCH  16  18
ATOM     18  C   UNL     1       1.994  14.095  19.028  0.00  0.00    +0.000 A 
ATOM     19  C   UNL     1       1.712  15.293  19.702  0.00  0.00    +0.000 A 
ATOM     20  C   UNL     1       2.343  16.489  19.359  0.00  0.00    +0.000 A 
ATOM     21  C   UNL     1       3.286  16.500  18.340  0.00  0.00    +0.000 A 
ATOM     22  C   UNL     1       3.605  15.312  17.682  0.00  0.00    +0.000 A 
ATOM     23  C   UNL     1       2.973  14.109  18.032  0.00  0.00    +0.000 A 
ENDBRANCH  16  18
ENDBRANCH   1  15
BRANCH   1  24
ATOM     24  N   UNL     1      -1.271  11.433  20.622  0.00  0.00    +0.000 N 
ATOM     25  H   UNL     1      -2.201  11.032  20.649  0.00  0.00    +0.000 HD
BRANCH  24  26
ATOM     26  C   UNL     1      -1.353  12.683  21.262  0.00  0.00    +0.000 A 
ATOM     27  C   UNL     1      -2.462  13.504  20.997  0.00  0.00    +0.000 A 
ATOM     28  C   UNL     1      -2.596  14.774  21.574  0.00  0.00    +0.000 A 
ATOM     29  C   UNL     1      -1.644  15.238  22.471  0.00  0.00    +0.000 A 
ATOM     30  C   UNL     1      -0.571  14.419  22.804  0.00  0.00    +0.000 A 
ATOM     31  C   UNL     1      -0.446  13.153  22.219  0.00  0.00    +0.000 A 
ENDBRANCH  24  26
ENDBRANCH   1  24
TORSDOF 6
ENDMDL
MODEL 3
REMARK VINA RESULT:      -6.9      1.146      5.313
REMARK  Name = 
REMARK  6 active torsions:
REMARK  status: ('A' for Active; 'I' for Inactive)
REMARK    1  A    between atoms: C_2  and  C_10
REMARK    2  A    between atoms: N_3  and  C_4
REMARK    3  A    between atoms: C_10  and  N_11
REMARK    4  A    between atoms: C_10  and  C_18
REMARK    5  A    between atoms: C_10  and  C_24
REMARK    6  A    between atoms: N_11  and  C_12
REMARK                            x       y       z     vdW  Elec       q    Type
REMARK                         _______ _______ _______ _____ _____    ______ ____
ROOT
ATOM      1  C   UNL     1       0.160  11.153  19.749  0.00  0.00    +0.000 C 
ENDROOT
BRANCH   1   2
ATOM      2  C   UNL     1      -1.309  11.011  19.200  0.00  0.00    +0.000 A 
ATOM      3  C   UNL     1      -1.689   9.910  18.402  0.00  0.00    +0.000 A 
ATOM      4  C   UNL     1      -2.912   9.870  17.734  0.00  0.00    +0.000 A 
ATOM      5  C   UNL     1      -3.825  10.899  17.904  0.00  0.00    +0.000 A 
ATOM      6  C   UNL     1      -3.530  11.941  18.779  0.00  0.00    +0.000 A 
ATOM      7  C   UNL     1      -2.295  11.987  19.437  0.00  0.00    +0.000 A 
ENDBRANCH   1   2
BRANCH   1   8
ATOM      8  C   UNL     1       0.992   9.895  19.311  0.00  0.00    +0.000 A 
ATOM      9  C   UNL     1       1.576   9.742  18.034  0.00  0.00    +0.000 A 
ATOM     10  C   UNL     1       2.329   8.606  17.705  0.00  0.00    +0.000 A 
ATOM     11  C   UNL     1       2.507   7.585  18.633  0.00  0.00    +0.000 A 
ATOM     12  C   UNL     1       1.936   7.706  19.896  0.00  0.00    +0.000 A 
ATOM     13  C   UNL     1       1.190   8.841  20.227  0.00  0.00    +0.000 A 
ENDBRANCH   1   8
BRANCH   1  15
ATOM     14  O   UNL     1       0.370  13.152  18.260  0.00  0.00    +0.000 OA
ATOM     15  C   UNL     1       0.871  12.497  19.183  0.00  0.00    +0.000 C 
ATOM     16  N   UNL     1       2.088  12.901  19.735  0.00  0.00    +0.000 N 
ATOM     17  H   UNL     1       2.647  12.196  20.197  0.00  0.00    +0.000 HD
BRANCH  16  18
ATOM     18  C   UNL     1       2.727  14.107  19.332  0.00  0.00    +0.000 A 
ATOM     19  C   UNL     1       2.480  15.331  19.972  0.00  0.00    +0.000 A 
ATOM     20  C   UNL     1       3.056  16.520  19.522  0.00  0.00    +0.000 A 
ATOM     21  C   UNL     1       3.908  16.498  18.426  0.00  0.00    +0.000 A 
ATOM     22  C   UNL     1       4.192  15.286  17.798  0.00  0.00    +0.000 A 
ATOM     23  C   UNL     1       3.616  14.091  18.255  0.00  0.00    +0.000 A 
ENDBRANCH  16  18
ENDBRANCH   1  15
BRANCH   1  24
ATOM     24  N   UNL     1       0.130  11.222  21.267  0.00  0.00    +0.000 N 
ATOM     25  H   UNL     1      -0.070  10.295  21.621  0.00  0.00    +0.000 HD
BRANCH  24  26
ATOM     26  C   UNL     1      -0.689  12.112  21.985  0.00  0.00    +0.000 A 
ATOM     27  C   UNL     1      -1.762  11.591  22.727  0.00  0.00    +0.000 A 
ATOM     28  C   UNL     1      -2.638  12.419  23.442  0.00  0.00    +0.000 A 
ATOM     29  C   UNL     1      -2.436  13.792  23.469  0.00  0.00    +0.000 A 
ATOM     30  C   UNL     1      -1.343  14.329  22.797  0.00  0.00    +0.000 A 
ATOM     31  C   UNL     1      -0.476  13.492  22.085  0.00  0.00    +0.000 A 
ENDBRANCH  24  26
ENDBRANCH   1  24
TORSDOF 6
ENDMDL
MODEL 4
REMARK VINA RESULT:      -6.8      1.414      5.222
REMARK  Name = 
REMARK  6 active torsions:
REMARK  status: ('A' for Active; 'I' for Inactive)
REMARK    1  A    between atoms: C_2  and  C_10
REMARK    2  A    between atoms: N_3  and  C_4
REMARK    3  A    between atoms: C_10  and  N_11
REMARK    4  A    between atoms: C_10  and  C_18
REMARK    5  A    between atoms: C_10  and  C_24
REMARK    6  A    between atoms: N_11  and  C_12
REMARK                            x       y       z     vdW  Elec       q    Type
REMARK                         _______ _______ _______ _____ _____    ______ ____
ROOT
ATOM      1  C   UNL     1      -0.831  11.344  19.256  0.00  0.00    +0.000 C 
ENDROOT
BRANCH   1   2
ATOM      2  C   UNL     1      -1.984  10.959  18.255  0.00  0.00    +0.000 A 
ATOM      3  C   UNL     1      -1.753  10.082  17.173  0.00  0.00    +0.000 A 
ATOM      4  C   UNL     1      -2.693   9.896  16.160  0.00  0.00    +0.000 A 
ATOM      5  C   UNL     1      -3.925  10.527  16.237  0.00  0.00    +0.000 A 
ATOM      6  C   UNL     1      -4.230  11.303  17.351  0.00  0.00    +0.000 A 
ATOM      7  C   UNL     1      -3.279  11.501  18.360  0.00  0.00    +0.000 A 
ENDBRANCH   1   2
BRANCH   1   8
ATOM      8  C   UNL     1       0.175  10.142  19.359  0.00  0.00    +0.000 A 
ATOM      9  C   UNL     1       1.007   9.717  18.300  0.00  0.00    +0.000 A 
ATOM     10  C   UNL     1       1.904   8.651  18.456  0.00  0.00    +0.000 A 
ATOM     11  C   UNL     1       1.985   7.970  19.666  0.00  0.00    +0.000 A 
ATOM     12  C   UNL     1       1.171   8.361  20.723  0.00  0.00    +0.000 A 
ATOM     13  C   UNL     1       0.281   9.428  20.571  0.00  0.00    +0.000 A 
ENDBRANCH   1   8
BRANCH   1  15
ATOM     14  O   UNL     1      -0.505  13.408  17.880  0.00  0.00    +0.000 OA
ATOM     15  C   UNL     1      -0.041  12.671  18.760  0.00  0.00    +0.000 C 
ATOM     16  N   UNL     1       1.202  12.965  19.322  0.00  0.00    +0.000 N 
ATOM     17  H   UNL     1       1.719  12.202  19.738  0.00  0.00    +0.000 HD
BRANCH  16  18
ATOM     18  C   UNL     1       1.914  14.151  18.982  0.00  0.00    +0.000 A 
ATOM     19  C   UNL     1       2.927  14.160  18.011  0.00  0.00    +0.000 A 
ATOM     20  C   UNL     1       3.667  15.311  17.738  0.00  0.00    +0.000 A 
ATOM     21  C   UNL     1       3.390  16.484  18.427  0.00  0.00    +0.000 A 
ATOM     22  C   UNL     1       2.363  16.504  19.371  0.00  0.00    +0.000 A 
ATOM     23  C   UNL     1       1.617  15.347  19.641  0.00  0.00    +0.000 A 
ENDBRANCH  16  18
ENDBRANCH   1  15
BRANCH   1  24
ATOM     24  N   UNL     1      -1.421  11.615  20.630  0.00  0.00    +0.000 N 
ATOM     25  H   UNL     1      -2.365  11.248  20.646  0.00  0.00    +0.000 HD
BRANCH  24  26
ATOM     26  C   UNL     1      -1.477  12.895  21.209  0.00  0.00    +0.000 A 
ATOM     27  C   UNL     1      -0.577  13.208  22.241  0.00  0.00    +0.000 A 
ATOM     28  C   UNL     1      -0.594  14.453  22.885  0.00  0.00    +0.000 A 
ATOM     29  C   UNL     1      -1.485  15.436  22.480  0.00  0.00    +0.000 A 
ATOM     30  C   UNL     1      -2.342  15.178  21.417  0.00  0.00    +0.000 A 
ATOM     31  C   UNL     1      -2.318  13.930  20.782  0.00  0.00    +0.000 A 
ENDBRANCH  24  26
ENDBRANCH   1  24
TORSDOF 6
ENDMDL
MODEL 5
REMARK VINA RESULT:      -6.6      1.148      5.351
REMARK  Name = 
REMARK  6 active torsions:
REMARK  status: ('A' for Active; 'I' for Inactive)
REMARK    1  A    between atoms: C_2  and  C_10
REMARK    2  A    between atoms: N_3  and  C_4
REMARK    3  A    between atoms: C_10  and  N_11
REMARK    4  A    between atoms: C_10  and  C_18
REMARK    5  A    between atoms: C_10  and  C_24
REMARK    6  A    between atoms: N_11  and  C_12
REMARK                            x       y       z     vdW  Elec       q    Type
REMARK                         _______ _______ _______ _____ _____    ______ ____
ROOT
ATOM      1  C   UNL     1       0.192  11.137  19.750  0.00  0.00    +0.000 C 
ENDROOT
BRANCH   1   2
ATOM      2  C   UNL     1      -1.281  11.004  19.210  0.00  0.00    +0.000 A 
ATOM      3  C   UNL     1      -1.679   9.897  18.430  0.00  0.00    +0.000 A 
ATOM      4  C   UNL     1      -2.905   9.862  17.769  0.00  0.00    +0.000 A 
ATOM      5  C   UNL     1      -3.805  10.905  17.929  0.00  0.00    +0.000 A 
ATOM      6  C   UNL     1      -3.494  11.955  18.787  0.00  0.00    +0.000 A 
ATOM      7  C   UNL     1      -2.255  11.995  19.438  0.00  0.00    +0.000 A 
ENDBRANCH   1   2
BRANCH   1   8
ATOM      8  C   UNL     1       1.016   9.880  19.295  0.00  0.00    +0.000 A 
ATOM      9  C   UNL     1       1.585   9.733  18.010  0.00  0.00    +0.000 A 
ATOM     10  C   UNL     1       2.332   8.598  17.666  0.00  0.00    +0.000 A 
ATOM     11  C   UNL     1       2.519   7.571  18.586  0.00  0.00    +0.000 A 
ATOM     12  C   UNL     1       1.962   7.685  19.855  0.00  0.00    +0.000 A 
ATOM     13  C   UNL     1       1.223   8.820  20.202  0.00  0.00    +0.000 A 
ENDBRANCH   1   8
BRANCH   1  15
ATOM     14  O   UNL     1       0.382  13.166  18.299  0.00  0.00    +0.000 OA
ATOM     15  C   UNL     1       0.904  12.483  19.191  0.00  0.00    +0.000 C 
ATOM     16  N   UNL     1       2.144  12.857  19.711  0.00  0.00    +0.000 N 
ATOM     17  H   UNL     1       2.707  12.134  20.138  0.00  0.00    +0.000 HD
BRANCH  16  18
ATOM     18  C   UNL     1       2.787  14.064  19.314  0.00  0.00    +0.000 A 
ATOM     19  C   UNL     1       3.669  14.114  18.223  0.00  0.00    +0.000 A 
ATOM     20  C   UNL     1       4.350  15.285  17.889  0.00  0.00    +0.000 A 
ATOM     21  C   UNL     1       4.143  16.437  18.636  0.00  0.00    +0.000 A 
ATOM     22  C   UNL     1       3.244  16.415  19.702  0.00  0.00    +0.000 A 
ATOM     23  C   UNL     1       2.556  15.238  20.034  0.00  0.00    +0.000 A 
ENDBRANCH  16  18
ENDBRANCH   1  15
BRANCH   1  24
ATOM     24  N   UNL     1       0.173  11.193  21.269  0.00  0.00    +0.000 N 
ATOM     25  H   UNL     1      -0.003  10.258  21.616  0.00  0.00    +0.000 HD
BRANCH  24  26
ATOM     26  C   UNL     1      -0.660  12.057  22.001  0.00  0.00    +0.000 A 
ATOM     27  C   UNL     1      -0.353  13.428  22.025  0.00  0.00    +0.000 A 
ATOM     28  C   UNL     1      -1.120  14.345  22.757  0.00  0.00    +0.000 A 
ATOM     29  C   UNL     1      -2.245  13.919  23.449  0.00  0.00    +0.000 A 
ATOM     30  C   UNL     1      -2.611  12.579  23.388  0.00  0.00    +0.000 A 
ATOM     31  C   UNL     1      -1.836  11.672  22.656  0.00  0.00    +0.000 A 
ENDBRANCH  24  26
ENDBRANCH   1  24
TORSDOF 6
ENDMDL
MODEL 6
REMARK VINA RESULT:      -6.6      1.677      4.974
REMARK  Name = 
REMARK  6 active torsions:
REMARK  status: ('A' for Active; 'I' for Inactive)
REMARK    1  A    between atoms: C_2  and  C_10
REMARK    2  A    between atoms: N_3  and  C_4
REMARK    3  A    between atoms: C_10  and  N_11
REMARK    4  A    between atoms: C_10  and  C_18
REMARK    5  A    between atoms: C_10  and  C_24
REMARK    6  A    between atoms: N_11  and  C_12
REMARK                            x       y       z     vdW  Elec       q    Type
REMARK                         _______ _______ _______ _____ _____    ______ ____
ROOT
ATOM      1  C   UNL     1      -0.001  11.285  19.009  0.00  0.00    +0.000 C 
ENDROOT
BRANCH   1   2
ATOM      2  C   UNL     1       0.920  10.013  19.122  0.00  0.00    +0.000 A 
ATOM      3  C   UNL     1       1.707   9.578  18.034  0.00  0.00    +0.000 A 
ATOM      4  C   UNL     1       2.360   8.347  18.040  0.00  0.00    +0.000 A 
ATOM      5  C   UNL     1       2.304   7.542  19.168  0.00  0.00    +0.000 A 
ATOM      6  C   UNL     1       1.636   7.994  20.302  0.00  0.00    +0.000 A 
ATOM      7  C   UNL     1       0.969   9.225  20.288  0.00  0.00    +0.000 A 
ENDBRANCH   1   2
BRANCH   1   8
ATOM      8  C   UNL     1      -1.287  10.911  18.188  0.00  0.00    +0.000 A 
ATOM      9  C   UNL     1      -2.090   9.780  18.453  0.00  0.00    +0.000 A 
ATOM     10  C   UNL     1      -3.242   9.508  17.701  0.00  0.00    +0.000 A 
ATOM     11  C   UNL     1      -3.616  10.346  16.656  0.00  0.00    +0.000 A 
ATOM     12  C   UNL     1      -2.838  11.463  16.368  0.00  0.00    +0.000 A 
ATOM     13  C   UNL     1      -1.693  11.739  17.121  0.00  0.00    +0.000 A 
ENDBRANCH   1   8
BRANCH   1  15
ATOM     14  O   UNL     1       0.337  11.760  21.442  0.00  0.00    +0.000 OA
ATOM     15  C   UNL     1      -0.433  11.830  20.475  0.00  0.00    +0.000 C 
ATOM     16  N   UNL     1      -1.712  12.362  20.647  0.00  0.00    +0.000 N 
ATOM     17  H   UNL     1      -2.425  12.084  19.987  0.00  0.00    +0.000 HD
BRANCH  16  18
ATOM     18  C   UNL     1      -2.127  12.921  21.889  0.00  0.00    +0.000 A 
ATOM     19  C   UNL     1      -2.922  12.207  22.799  0.00  0.00    +0.000 A 
ATOM     20  C   UNL     1      -3.384  12.790  23.979  0.00  0.00    +0.000 A 
ATOM     21  C   UNL     1      -3.040  14.102  24.277  0.00  0.00    +0.000 A 
ATOM     22  C   UNL     1      -2.222  14.816  23.401  0.00  0.00    +0.000 A 
ATOM     23  C   UNL     1      -1.754  14.226  22.217  0.00  0.00    +0.000 A 
ENDBRANCH  16  18
ENDBRANCH   1  15
BRANCH   1  24
ATOM     24  N   UNL     1       0.747  12.390  18.281  0.00  0.00    +0.000 N 
ATOM     25  H   UNL     1       1.664  12.039  18.033  0.00  0.00    +0.000 HD
BRANCH  24  26
ATOM     26  C   UNL     1       0.939  13.676  18.816  0.00  0.00    +0.000 A 
ATOM     27  C   UNL     1      -0.086  14.626  18.671  0.00  0.00    +0.000 A 
ATOM     28  C   UNL     1       0.047  15.936  19.152  0.00  0.00    +0.000 A 
ATOM     29  C   UNL     1       1.194  16.318  19.833  0.00  0.00    +0.000 A 
ATOM     30  C   UNL     1       2.197  15.379  20.049  0.00  0.00    +0.000 A 
ATOM     31  C   UNL     1       2.054  14.074  19.563  0.00  0.00    +0.000 A 
ENDBRANCH  24  26
ENDBRANCH   1  24
TORSDOF 6
ENDMDL
MODEL 7
REMARK VINA RESULT:      -6.5      1.667      5.014
REMARK  Name = 
REMARK  6 active torsions:
REMARK  status: ('A' for Active; 'I' for Inactive)
REMARK    1  A    between atoms: C_2  and  C_10
REMARK    2  A    between atoms: N_3  and  C_4
REMARK    3  A    between atoms: C_10  and  N_11
REMARK    4  A    between atoms: C_10  and  C_18
REMARK    5  A    between atoms: C_10  and  C_24
REMARK    6  A    between atoms: N_11  and  C_12
REMARK                            x       y       z     vdW  Elec       q    Type
REMARK                         _______ _______ _______ _____ _____    ______ ____
ROOT
ATOM      1  C   UNL     1      -0.027  11.310  19.029  0.00  0.00    +0.000 C 
ENDROOT
BRANCH   1   2
ATOM      2  C   UNL     1       0.869  10.026  19.205  0.00  0.00    +0.000 A 
ATOM      3  C   UNL     1       1.653   9.529  18.141  0.00  0.00    +0.000 A 
ATOM      4  C   UNL     1       2.282   8.287  18.206  0.00  0.00    +0.000 A 
ATOM      5  C   UNL     1       2.206   7.535  19.369  0.00  0.00    +0.000 A 
ATOM      6  C   UNL     1       1.542   8.050  20.478  0.00  0.00    +0.000 A 
ATOM      7  C   UNL     1       0.898   9.292  20.405  0.00  0.00    +0.000 A 
ENDBRANCH   1   2
BRANCH   1   8
ATOM      8  C   UNL     1      -1.307  10.927  18.203  0.00  0.00    +0.000 A 
ATOM      9  C   UNL     1      -2.102   9.789  18.463  0.00  0.00    +0.000 A 
ATOM     10  C   UNL     1      -3.249   9.509  17.706  0.00  0.00    +0.000 A 
ATOM     11  C   UNL     1      -3.626  10.347  16.662  0.00  0.00    +0.000 A 
ATOM     12  C   UNL     1      -2.856  11.471  16.378  0.00  0.00    +0.000 A 
ATOM     13  C   UNL     1      -1.716  11.754  17.136  0.00  0.00    +0.000 A 
ENDBRANCH   1   8
BRANCH   1  15
ATOM     14  O   UNL     1       0.318  11.961  21.421  0.00  0.00    +0.000 OA
ATOM     15  C   UNL     1      -0.471  11.917  20.467  0.00  0.00    +0.000 C 
ATOM     16  N   UNL     1      -1.780  12.371  20.632  0.00  0.00    +0.000 N 
ATOM     17  H   UNL     1      -2.484  12.004  20.006  0.00  0.00    +0.000 HD
BRANCH  16  18
ATOM     18  C   UNL     1      -2.212  12.979  21.845  0.00  0.00    +0.000 A 
ATOM     19  C   UNL     1      -1.857  14.292  22.188  0.00  0.00    +0.000 A 
ATOM     20  C   UNL     1      -2.225  14.852  23.412  0.00  0.00    +0.000 A 
ATOM     21  C   UNL     1      -2.975  14.106  24.311  0.00  0.00    +0.000 A 
ATOM     22  C   UNL     1      -3.367  12.810  23.973  0.00  0.00    +0.000 A 
ATOM     23  C   UNL     1      -3.000  12.250  22.740  0.00  0.00    +0.000 A 
ENDBRANCH  16  18
ENDBRANCH   1  15
BRANCH   1  24
ATOM     24  N   UNL     1       0.751  12.373  18.273  0.00  0.00    +0.000 N 
ATOM     25  H   UNL     1       1.683  12.017  18.098  0.00  0.00    +0.000 HD
BRANCH  24  26
ATOM     26  C   UNL     1       0.904  13.693  18.732  0.00  0.00    +0.000 A 
ATOM     27  C   UNL     1       2.148  14.085  19.255  0.00  0.00    +0.000 A 
ATOM     28  C   UNL     1       2.365  15.374  19.759  0.00  0.00    +0.000 A 
ATOM     29  C   UNL     1       1.353  16.323  19.713  0.00  0.00    +0.000 A 
ATOM     30  C   UNL     1       0.133  15.983  19.140  0.00  0.00    +0.000 A 
ATOM     31  C   UNL     1      -0.074  14.691  18.641  0.00  0.00    +0.000 A 
ENDBRANCH  24  26
ENDBRANCH   1  24
TORSDOF 6
ENDMDL
MODEL 8
REMARK VINA RESULT:      -6.5      1.420      5.187
REMARK  Name = 
REMARK  6 active torsions:
REMARK  status: ('A' for Active; 'I' for Inactive)
REMARK    1  A    between atoms: C_2  and  C_10
REMARK    2  A    between atoms: N_3  and  C_4
REMARK    3  A    between atoms: C_10  and  N_11
REMARK    4  A    between atoms: C_10  and  C_18
REMARK    5  A    between atoms: C_10  and  C_24
REMARK    6  A    between atoms: N_11  and  C_12
REMARK                            x       y       z     vdW  Elec       q    Type
REMARK                         _______ _______ _______ _____ _____    ______ ____
ROOT
ATOM      1  C   UNL     1       0.168  11.142  20.266  0.00  0.00    +0.000 C 
ENDROOT
BRANCH   1   2
ATOM      2  C   UNL     1      -1.180  11.253  19.459  0.00  0.00    +0.000 A 
ATOM      3  C   UNL     1      -2.087  12.311  19.689  0.00  0.00    +0.000 A 
ATOM      4  C   UNL     1      -3.370  12.313  19.146  0.00  0.00    +0.000 A 
ATOM      5  C   UNL     1      -3.762  11.291  18.295  0.00  0.00    +0.000 A 
ATOM      6  C   UNL     1      -2.851  10.296  17.952  0.00  0.00    +0.000 A 
ATOM      7  C   UNL     1      -1.567  10.287  18.511  0.00  0.00    +0.000 A 
ENDBRANCH   1   2
BRANCH   1   8
ATOM      8  C   UNL     1       0.941   9.860  19.790  0.00  0.00    +0.000 A 
ATOM      9  C   UNL     1       1.520   9.718  18.510  0.00  0.00    +0.000 A 
ATOM     10  C   UNL     1       2.220   8.558  18.147  0.00  0.00    +0.000 A 
ATOM     11  C   UNL     1       2.349   7.504  19.045  0.00  0.00    +0.000 A 
ATOM     12  C   UNL     1       1.781   7.613  20.310  0.00  0.00    +0.000 A 
ATOM     13  C   UNL     1       1.088   8.772  20.675  0.00  0.00    +0.000 A 
ENDBRANCH   1   8
BRANCH   1  15
ATOM     14  O   UNL     1       1.998  12.751  20.834  0.00  0.00    +0.000 OA
ATOM     15  C   UNL     1       1.098  12.452  20.037  0.00  0.00    +0.000 C 
ATOM     16  N   UNL     1       0.854  13.269  18.933  0.00  0.00    +0.000 N 
ATOM     17  H   UNL     1      -0.070  13.234  18.522  0.00  0.00    +0.000 HD
BRANCH  16  18
ATOM     18  C   UNL     1       1.678  14.392  18.638  0.00  0.00    +0.000 A 
ATOM     19  C   UNL     1       1.280  15.706  18.930  0.00  0.00    +0.000 A 
ATOM     20  C   UNL     1       2.064  16.803  18.570  0.00  0.00    +0.000 A 
ATOM     21  C   UNL     1       3.274  16.599  17.922  0.00  0.00    +0.000 A 
ATOM     22  C   UNL     1       3.702  15.298  17.653  0.00  0.00    +0.000 A 
ATOM     23  C   UNL     1       2.916  14.196  18.021  0.00  0.00    +0.000 A 
ENDBRANCH  16  18
ENDBRANCH   1  15
BRANCH   1  24
ATOM     24  N   UNL     1      -0.136  11.015  21.749  0.00  0.00    +0.000 N 
ATOM     25  H   UNL     1      -0.488  10.081  21.920  0.00  0.00    +0.000 HD
BRANCH  24  26
ATOM     26  C   UNL     1      -0.983  11.898  22.443  0.00  0.00    +0.000 A 
ATOM     27  C   UNL     1      -0.588  13.239  22.585  0.00  0.00    +0.000 A 
ATOM     28  C   UNL     1      -1.366  14.167  23.289  0.00  0.00    +0.000 A 
ATOM     29  C   UNL     1      -2.585  13.789  23.833  0.00  0.00    +0.000 A 
ATOM     30  C   UNL     1      -3.032  12.485  23.650  0.00  0.00    +0.000 A 
ATOM     31  C   UNL     1      -2.246  11.565  22.947  0.00  0.00    +0.000 A 
ENDBRANCH  24  26
ENDBRANCH   1  24
TORSDOF 6
ENDMDL
MODEL 9
REMARK VINA RESULT:      -6.5      1.239      5.291
REMARK  Name = 
REMARK  6 active torsions:
REMARK  status: ('A' for Active; 'I' for Inactive)
REMARK    1  A    between atoms: C_2  and  C_10
REMARK    2  A    between atoms: N_3  and  C_4
REMARK    3  A    between atoms: C_10  and  N_11
REMARK    4  A    between atoms: C_10  and  C_18
REMARK    5  A    between atoms: C_10  and  C_24
REMARK    6  A    between atoms: N_11  and  C_12
REMARK                            x       y       z     vdW  Elec       q    Type
REMARK                         _______ _______ _______ _____ _____    ______ ____
ROOT
ATOM      1  C   UNL     1       0.516  11.590  19.297  0.00  0.00    +0.000 C 
ENDROOT
BRANCH   1   2
ATOM      2  C   UNL     1       1.696  12.633  19.306  0.00  0.00    +0.000 A 
ATOM      3  C   UNL     1       2.298  13.049  20.513  0.00  0.00    +0.000 A 
ATOM      4  C   UNL     1       3.190  14.119  20.562  0.00  0.00    +0.000 A 
ATOM      5  C   UNL     1       3.565  14.760  19.391  0.00  0.00    +0.000 A 
ATOM      6  C   UNL     1       3.083  14.296  18.170  0.00  0.00    +0.000 A 
ATOM      7  C   UNL     1       2.175  13.231  18.125  0.00  0.00    +0.000 A 
ENDBRANCH   1   2
BRANCH   1   8
ATOM      8  C   UNL     1       1.120  10.140  19.282  0.00  0.00    +0.000 A 
ATOM      9  C   UNL     1       1.164   9.292  20.411  0.00  0.00    +0.000 A 
ATOM     10  C   UNL     1       1.695   7.996  20.333  0.00  0.00    +0.000 A 
ATOM     11  C   UNL     1       2.209   7.516  19.133  0.00  0.00    +0.000 A 
ATOM     12  C   UNL     1       2.186   8.333  18.007  0.00  0.00    +0.000 A 
ATOM     13  C   UNL     1       1.651   9.623  18.082  0.00  0.00    +0.000 A 
ENDBRANCH   1   8
BRANCH   1  15
ATOM     14  O   UNL     1      -0.742  10.801  21.311  0.00  0.00    +0.000 OA
ATOM     15  C   UNL     1      -0.434  11.767  20.600  0.00  0.00    +0.000 C 
ATOM     16  N   UNL     1      -0.935  13.034  20.903  0.00  0.00    +0.000 N 
ATOM     17  H   UNL     1      -0.988  13.707  20.149  0.00  0.00    +0.000 HD
BRANCH  16  18
ATOM     18  C   UNL     1      -1.715  13.270  22.070  0.00  0.00    +0.000 A 
ATOM     19  C   UNL     1      -3.055  12.864  22.165  0.00  0.00    +0.000 A 
ATOM     20  C   UNL     1      -3.831  13.164  23.285  0.00  0.00    +0.000 A 
ATOM     21  C   UNL     1      -3.269  13.867  24.341  0.00  0.00    +0.000 A 
ATOM     22  C   UNL     1      -1.929  14.250  24.280  0.00  0.00    +0.000 A 
ATOM     23  C   UNL     1      -1.148  13.942  23.155  0.00  0.00    +0.000 A 
ENDBRANCH  16  18
ENDBRANCH   1  15
BRANCH   1  24
ATOM     24  N   UNL     1      -0.328  11.788  18.049  0.00  0.00    +0.000 N 
ATOM     25  H   UNL     1      -0.333  12.776  17.826  0.00  0.00    +0.000 HD
BRANCH  24  26
ATOM     26  C   UNL     1      -1.657  11.343  17.937  0.00  0.00    +0.000 A 
ATOM     27  C   UNL     1      -1.895  10.047  17.448  0.00  0.00    +0.000 A 
ATOM     28  C   UNL     1      -3.193   9.547  17.280  0.00  0.00    +0.000 A 
ATOM     29  C   UNL     1      -4.290  10.315  17.641  0.00  0.00    +0.000 A 
ATOM     30  C   UNL     1      -4.083  11.576  18.190  0.00  0.00    +0.000 A 
ATOM     31  C   UNL     1      -2.782  12.067  18.351  0.00  0.00    +0.000 A 
ENDBRANCH  24  26
ENDBRANCH   1  24
TORSDOF 6
ENDMDL
