MODEL 1
REMARK VINA RESULT:      -8.2      0.000      0.000
REMARK  Name = 
REMARK  7 active torsions:
REMARK  status: ('A' for Active; 'I' for Inactive)
REMARK    1  A    between atoms: C_1  and  C_2
REMARK    2  A    between atoms: C_5  and  C_6
REMARK    3  A    between atoms: C_16  and  C_17
REMARK    4  A    between atoms: N_19  and  C_20
REMARK    5  A    between atoms: C_21  and  C_22
REMARK    6  A    between atoms: C_27  and  C_28
REMARK    7  A    between atoms: C_27  and  C_29
REMARK                            x       y       z     vdW  Elec       q    Type
REMARK                         _______ _______ _______ _____ _____    ______ ____
ROOT
ATOM      1  C   UNL     1       4.341   4.732  17.685  0.00  0.00    +0.000 A 
ATOM      2  C   UNL     1       4.423   3.637  18.478  0.00  0.00    +0.000 A 
ATOM      3  C   UNL     1       3.562   3.506  19.668  0.00  0.00    +0.000 A 
ATOM      4  N   UNL     1       3.721   2.395  20.423  0.00  0.00    +0.000 NA
ATOM      5  C   UNL     1       2.948   2.304  21.531  0.00  0.00    +0.000 A 
ATOM      6  C   UNL     1       2.027   3.266  21.919  0.00  0.00    +0.000 A 
ATOM      7  C   UNL     1       1.878   4.399  21.123  0.00  0.00    +0.000 A 
ATOM      8  C   UNL     1       2.654   4.530  19.973  0.00  0.00    +0.000 A 
ATOM      9  C   UNL     1       2.598   5.701  19.101  0.00  0.00    +0.000 A 
ATOM     10  C   UNL     1       1.916   6.887  19.178  0.00  0.00    +0.000 A 
ATOM     11  C   UNL     1       2.405   7.686  18.118  0.00  0.00    +0.000 A 
ATOM     12  N   UNL     1       3.259   6.989  17.340  0.00  0.00    +0.000 NA
ATOM     13  N   UNL     1       3.434   5.785  17.986  0.00  0.00    +0.000 N 
ENDROOT
BRANCH   1  18
ATOM     14  C   UNL     1       7.883   5.108  13.131  0.00  0.00    +0.000 C 
ATOM     15  C   UNL     1       6.975   5.021  14.318  0.00  0.00    +0.000 A 
ATOM     16  C   UNL     1       7.339   5.564  15.556  0.00  0.00    +0.000 A 
ATOM     17  C   UNL     1       6.490   5.471  16.655  0.00  0.00    +0.000 A 
ATOM     18  C   UNL     1       5.250   4.825  16.536  0.00  0.00    +0.000 A 
ATOM     19  C   UNL     1       4.880   4.284  15.301  0.00  0.00    +0.000 A 
ATOM     20  C   UNL     1       5.734   4.376  14.202  0.00  0.00    +0.000 A 
ENDBRANCH   1  18
BRANCH  11  21
ATOM     21  C   UNL     1       2.065   9.115  17.947  0.00  0.00    +0.000 C 
ATOM     22  O   UNL     1       2.825   9.877  17.352  0.00  0.00    +0.000 OA
ATOM     23  N   UNL     1       0.847   9.532  18.454  0.00  0.00    +0.000 N 
ATOM     24  H   UNL     1       0.321   8.832  18.969  0.00  0.00    +0.000 HD
BRANCH  23  25
ATOM     25  C   UNL     1       0.369  10.902  18.278  0.00  0.00    +0.000 C 
ATOM     26  C   UNL     1      -1.197  11.050  18.299  0.00  0.00    +0.000 C 
ATOM     27  C   UNL     1      -1.868  10.647  17.000  0.00  0.00    +0.000 C 
ATOM     28  C   UNL     1      -1.825  10.413  19.552  0.00  0.00    +0.000 C 
ATOM     29  C   UNL     1      -1.276  11.293  20.684  0.00  0.00    +0.000 C 
ATOM     30  C   UNL     1      -0.528  12.421  19.937  0.00  0.00    +0.000 C 
ATOM     31  C   UNL     1      -1.393  12.529  18.670  0.00  0.00    +0.000 C 
ATOM     32  C   UNL     1       0.841  11.949  19.352  0.00  0.00    +0.000 C 
ATOM     33  C   UNL     1       1.846  11.442  20.396  0.00  0.00    +0.000 C 
ATOM     34  C   UNL     1       1.546  13.156  18.670  0.00  0.00    +0.000 C 
ENDBRANCH  23  25
ENDBRANCH  11  21
TORSDOF 3
ENDMDL
MODEL 2
REMARK VINA RESULT:      -7.7      7.988     10.009
REMARK  Name = 
REMARK  7 active torsions:
REMARK  status: ('A' for Active; 'I' for Inactive)
REMARK    1  A    between atoms: C_1  and  C_2
REMARK    2  A    between atoms: C_5  and  C_6
REMARK    3  A    between atoms: C_16  and  C_17
REMARK    4  A    between atoms: N_19  and  C_20
REMARK    5  A    between atoms: C_21  and  C_22
REMARK    6  A    between atoms: C_27  and  C_28
REMARK    7  A    between atoms: C_27  and  C_29
REMARK                            x       y       z     vdW  Elec       q    Type
REMARK                         _______ _______ _______ _____ _____    ______ ____
ROOT
ATOM      1  C   UNL     1       8.763  13.124  21.609  0.00  0.00    +0.000 A 
ATOM      2  C   UNL     1       9.754  12.337  21.125  0.00  0.00    +0.000 A 
ATOM      3  C   UNL     1      10.258  12.524  19.753  0.00  0.00    +0.000 A 
ATOM      4  N   UNL     1      11.231  11.683  19.334  0.00  0.00    +0.000 NA
ATOM      5  C   UNL     1      11.661  11.843  18.060  0.00  0.00    +0.000 A 
ATOM      6  C   UNL     1      11.166  12.802  17.187  0.00  0.00    +0.000 A 
ATOM      7  C   UNL     1      10.168  13.660  17.643  0.00  0.00    +0.000 A 
ATOM      8  C   UNL     1       9.700  13.528  18.948  0.00  0.00    +0.000 A 
ATOM      9  C   UNL     1       8.626  14.352  19.499  0.00  0.00    +0.000 A 
ATOM     10  C   UNL     1       7.822  15.318  18.953  0.00  0.00    +0.000 A 
ATOM     11  C   UNL     1       6.862  15.629  19.945  0.00  0.00    +0.000 A 
ATOM     12  N   UNL     1       7.130  14.983  21.099  0.00  0.00    +0.000 NA
ATOM     13  N   UNL     1       8.178  14.139  20.804  0.00  0.00    +0.000 N 
ENDROOT
BRANCH   1  18
ATOM     14  C   UNL     1       6.836  12.158  26.974  0.00  0.00    +0.000 C 
ATOM     15  C   UNL     1       7.325  12.397  25.579  0.00  0.00    +0.000 A 
ATOM     16  C   UNL     1       6.975  11.541  24.527  0.00  0.00    +0.000 A 
ATOM     17  C   UNL     1       7.442  11.770  23.235  0.00  0.00    +0.000 A 
ATOM     18  C   UNL     1       8.276  12.866  22.970  0.00  0.00    +0.000 A 
ATOM     19  C   UNL     1       8.625  13.725  24.016  0.00  0.00    +0.000 A 
ATOM     20  C   UNL     1       8.159  13.492  25.310  0.00  0.00    +0.000 A 
ENDBRANCH   1  18
BRANCH  11  21
ATOM     21  C   UNL     1       5.689  16.498  19.704  0.00  0.00    +0.000 C 
ATOM     22  O   UNL     1       5.825  17.618  19.217  0.00  0.00    +0.000 OA
ATOM     23  N   UNL     1       4.448  15.972  20.017  0.00  0.00    +0.000 N 
ATOM     24  H   UNL     1       4.456  15.058  20.459  0.00  0.00    +0.000 HD
BRANCH  23  25
ATOM     25  C   UNL     1       3.213  16.706  19.752  0.00  0.00    +0.000 C 
ATOM     26  C   UNL     1       2.436  16.228  18.470  0.00  0.00    +0.000 C 
ATOM     27  C   UNL     1       3.024  16.743  17.170  0.00  0.00    +0.000 C 
ATOM     28  C   UNL     1       2.175  14.711  18.481  0.00  0.00    +0.000 C 
ATOM     29  C   UNL     1       1.219  14.546  19.672  0.00  0.00    +0.000 C 
ATOM     30  C   UNL     1       0.923  16.001  20.103  0.00  0.00    +0.000 C 
ATOM     31  C   UNL     1       1.003  16.711  18.742  0.00  0.00    +0.000 C 
ATOM     32  C   UNL     1       2.114  16.653  20.875  0.00  0.00    +0.000 C 
ATOM     33  C   UNL     1       2.508  15.935  22.174  0.00  0.00    +0.000 C 
ATOM     34  C   UNL     1       1.709  18.088  21.317  0.00  0.00    +0.000 C 
ENDBRANCH  23  25
ENDBRANCH  11  21
TORSDOF 3
ENDMDL
MODEL 3
REMARK VINA RESULT:      -7.5      4.573      8.669
REMARK  Name = 
REMARK  7 active torsions:
REMARK  status: ('A' for Active; 'I' for Inactive)
REMARK    1  A    between atoms: C_1  and  C_2
REMARK    2  A    between atoms: C_5  and  C_6
REMARK    3  A    between atoms: C_16  and  C_17
REMARK    4  A    between atoms: N_19  and  C_20
REMARK    5  A    between atoms: C_21  and  C_22
REMARK    6  A    between atoms: C_27  and  C_28
REMARK    7  A    between atoms: C_27  and  C_29
REMARK                            x       y       z     vdW  Elec       q    Type
REMARK                         _______ _______ _______ _____ _____    ______ ____
ROOT
ATOM      1  C   UNL     1       1.320  12.042  19.053  0.00  0.00    +0.000 A 
ATOM      2  C   UNL     1       2.260  12.830  18.478  0.00  0.00    +0.000 A 
ATOM      3  C   UNL     1       2.087  14.293  18.431  0.00  0.00    +0.000 A 
ATOM      4  N   UNL     1       3.057  15.009  17.818  0.00  0.00    +0.000 NA
ATOM      5  C   UNL     1       2.868  16.348  17.752  0.00  0.00    +0.000 A 
ATOM      6  C   UNL     1       1.759  17.004  18.269  0.00  0.00    +0.000 A 
ATOM      7  C   UNL     1       0.776  16.246  18.900  0.00  0.00    +0.000 A 
ATOM      8  C   UNL     1       0.934  14.865  18.990  0.00  0.00    +0.000 A 
ATOM      9  C   UNL     1      -0.064  13.984  19.594  0.00  0.00    +0.000 A 
ATOM     10  C   UNL     1      -1.310  14.211  20.116  0.00  0.00    +0.000 A 
ATOM     11  C   UNL     1      -1.852  12.934  20.394  0.00  0.00    +0.000 A 
ATOM     12  N   UNL     1      -0.941  11.962  20.176  0.00  0.00    +0.000 NA
ATOM     13  N   UNL     1       0.141  12.603  19.613  0.00  0.00    +0.000 N 
ENDROOT
BRANCH   1  18
ATOM     14  C   UNL     1       2.186   6.326  18.960  0.00  0.00    +0.000 C 
ATOM     15  C   UNL     1       1.960   7.806  19.000  0.00  0.00    +0.000 A 
ATOM     16  C   UNL     1       1.486   8.440  20.155  0.00  0.00    +0.000 A 
ATOM     17  C   UNL     1       1.273   9.816  20.178  0.00  0.00    +0.000 A 
ATOM     18  C   UNL     1       1.530  10.589  19.036  0.00  0.00    +0.000 A 
ATOM     19  C   UNL     1       2.006   9.960  17.881  0.00  0.00    +0.000 A 
ATOM     20  C   UNL     1       2.215   8.582  17.859  0.00  0.00    +0.000 A 
ENDBRANCH   1  18
BRANCH  11  21
ATOM     21  C   UNL     1      -3.256  12.713  20.803  0.00  0.00    +0.000 C 
ATOM     22  O   UNL     1      -3.542  12.485  21.977  0.00  0.00    +0.000 OA
ATOM     23  N   UNL     1      -4.217  12.813  19.813  0.00  0.00    +0.000 N 
ATOM     24  H   UNL     1      -3.867  12.956  18.871  0.00  0.00    +0.000 HD
BRANCH  23  25
ATOM     25  C   UNL     1      -5.644  12.691  20.110  0.00  0.00    +0.000 C 
ATOM     26  C   UNL     1      -6.423  14.056  20.123  0.00  0.00    +0.000 C 
ATOM     27  C   UNL     1      -6.226  14.863  21.392  0.00  0.00    +0.000 C 
ATOM     28  C   UNL     1      -6.205  14.862  18.829  0.00  0.00    +0.000 C 
ATOM     29  C   UNL     1      -6.873  13.975  17.768  0.00  0.00    +0.000 C 
ATOM     30  C   UNL     1      -7.529  12.848  18.598  0.00  0.00    +0.000 C 
ATOM     31  C   UNL     1      -7.877  13.620  19.880  0.00  0.00    +0.000 C 
ATOM     32  C   UNL     1      -6.489  11.806  19.122  0.00  0.00    +0.000 C 
ATOM     33  C   UNL     1      -5.702  11.074  18.026  0.00  0.00    +0.000 C 
ATOM     34  C   UNL     1      -7.239  10.683  19.894  0.00  0.00    +0.000 C 
ENDBRANCH  23  25
ENDBRANCH  11  21
TORSDOF 3
ENDMDL
MODEL 4
REMARK VINA RESULT:      -7.4      7.738      9.745
REMARK  Name = 
REMARK  7 active torsions:
REMARK  status: ('A' for Active; 'I' for Inactive)
REMARK    1  A    between atoms: C_1  and  C_2
REMARK    2  A    between atoms: C_5  and  C_6
REMARK    3  A    between atoms: C_16  and  C_17
REMARK    4  A    between atoms: N_19  and  C_20
REMARK    5  A    between atoms: C_21  and  C_22
REMARK    6  A    between atoms: C_27  and  C_28
REMARK    7  A    between atoms: C_27  and  C_29
REMARK                            x       y       z     vdW  Elec       q    Type
REMARK                         _______ _______ _______ _____ _____    ______ ____
ROOT
ATOM      1  C   UNL     1       8.876  13.086  21.597  0.00  0.00    +0.000 A 
ATOM      2  C   UNL     1       9.999  12.434  21.213  0.00  0.00    +0.000 A 
ATOM      3  C   UNL     1      10.496  12.544  19.830  0.00  0.00    +0.000 A 
ATOM      4  N   UNL     1      11.610  11.844  19.518  0.00  0.00    +0.000 NA
ATOM      5  C   UNL     1      12.036  11.927  18.235  0.00  0.00    +0.000 A 
ATOM      6  C   UNL     1      11.403  12.674  17.252  0.00  0.00    +0.000 A 
ATOM      7  C   UNL     1      10.260  13.391  17.598  0.00  0.00    +0.000 A 
ATOM      8  C   UNL     1       9.791  13.333  18.909  0.00  0.00    +0.000 A 
ATOM      9  C   UNL     1       8.578  14.015  19.354  0.00  0.00    +0.000 A 
ATOM     10  C   UNL     1       7.631  14.754  18.695  0.00  0.00    +0.000 A 
ATOM     11  C   UNL     1       6.608  15.006  19.639  0.00  0.00    +0.000 A 
ATOM     12  N   UNL     1       6.957  14.557  20.863  0.00  0.00    +0.000 NA
ATOM     13  N   UNL     1       8.142  13.881  20.674  0.00  0.00    +0.000 N 
ENDROOT
BRANCH   1  18
ATOM     14  C   UNL     1       7.046  12.339  27.030  0.00  0.00    +0.000 C 
ATOM     15  C   UNL     1       7.529  12.545  25.627  0.00  0.00    +0.000 A 
ATOM     16  C   UNL     1       8.256  13.686  25.267  0.00  0.00    +0.000 A 
ATOM     17  C   UNL     1       8.694  13.870  23.958  0.00  0.00    +0.000 A 
ATOM     18  C   UNL     1       8.408  12.908  22.977  0.00  0.00    +0.000 A 
ATOM     19  C   UNL     1       7.685  11.766  23.333  0.00  0.00    +0.000 A 
ATOM     20  C   UNL     1       7.245  11.585  24.644  0.00  0.00    +0.000 A 
ENDBRANCH   1  18
BRANCH  11  21
ATOM     21  C   UNL     1       5.308  15.620  19.292  0.00  0.00    +0.000 C 
ATOM     22  O   UNL     1       5.251  16.584  18.531  0.00  0.00    +0.000 OA
ATOM     23  N   UNL     1       4.177  15.036  19.834  0.00  0.00    +0.000 N 
ATOM     24  H   UNL     1       4.343  14.276  20.487  0.00  0.00    +0.000 HD
BRANCH  23  25
ATOM     25  C   UNL     1       2.834  15.508  19.502  0.00  0.00    +0.000 C 
ATOM     26  C   UNL     1       1.747  14.373  19.429  0.00  0.00    +0.000 C 
ATOM     27  C   UNL     1       1.785  13.570  18.144  0.00  0.00    +0.000 C 
ATOM     28  C   UNL     1       1.721  13.511  20.705  0.00  0.00    +0.000 C 
ATOM     29  C   UNL     1       1.254  14.511  21.774  0.00  0.00    +0.000 C 
ATOM     30  C   UNL     1       0.919  15.782  20.959  0.00  0.00    +0.000 C 
ATOM     31  C   UNL     1       0.436  15.145  19.646  0.00  0.00    +0.000 C 
ATOM     32  C   UNL     1       2.196  16.550  20.492  0.00  0.00    +0.000 C 
ATOM     33  C   UNL     1       3.101  17.045  21.630  0.00  0.00    +0.000 C 
ATOM     34  C   UNL     1       1.766  17.838  19.733  0.00  0.00    +0.000 C 
ENDBRANCH  23  25
ENDBRANCH  11  21
TORSDOF 3
ENDMDL
MODEL 5
REMARK VINA RESULT:      -7.2      7.431      9.638
REMARK  Name = 
REMARK  7 active torsions:
REMARK  status: ('A' for Active; 'I' for Inactive)
REMARK    1  A    between atoms: C_1  and  C_2
REMARK    2  A    between atoms: C_5  and  C_6
REMARK    3  A    between atoms: C_16  and  C_17
REMARK    4  A    between atoms: N_19  and  C_20
REMARK    5  A    between atoms: C_21  and  C_22
REMARK    6  A    between atoms: C_27  and  C_28
REMARK    7  A    between atoms: C_27  and  C_29
REMARK                            x       y       z     vdW  Elec       q    Type
REMARK                         _______ _______ _______ _____ _____    ______ ____
ROOT
ATOM      1  C   UNL     1      -4.400  11.739  19.024  0.00  0.00    +0.000 A 
ATOM      2  C   UNL     1      -5.672  11.511  19.433  0.00  0.00    +0.000 A 
ATOM      3  C   UNL     1      -6.137  11.998  20.744  0.00  0.00    +0.000 A 
ATOM      4  N   UNL     1      -7.412  11.709  21.091  0.00  0.00    +0.000 NA
ATOM      5  C   UNL     1      -7.815  12.132  22.313  0.00  0.00    +0.000 A 
ATOM      6  C   UNL     1      -7.008  12.828  23.201  0.00  0.00    +0.000 A 
ATOM      7  C   UNL     1      -5.700  13.118  22.819  0.00  0.00    +0.000 A 
ATOM      8  C   UNL     1      -5.247  12.702  21.569  0.00  0.00    +0.000 A 
ATOM      9  C   UNL     1      -3.880  12.921  21.101  0.00  0.00    +0.000 A 
ATOM     10  C   UNL     1      -2.770  13.462  21.694  0.00  0.00    +0.000 A 
ATOM     11  C   UNL     1      -1.703  13.244  20.790  0.00  0.00    +0.000 A 
ATOM     12  N   UNL     1      -2.148  12.706  19.635  0.00  0.00    +0.000 NA
ATOM     13  N   UNL     1      -3.482  12.440  19.853  0.00  0.00    +0.000 N 
ENDROOT
BRANCH   1  18
ATOM     14  C   UNL     1      -2.757   9.653  13.889  0.00  0.00    +0.000 C 
ATOM     15  C   UNL     1      -3.170  10.185  15.226  0.00  0.00    +0.000 A 
ATOM     16  C   UNL     1      -2.607   9.697  16.411  0.00  0.00    +0.000 A 
ATOM     17  C   UNL     1      -3.005  10.195  17.649  0.00  0.00    +0.000 A 
ATOM     18  C   UNL     1      -3.983  11.198  17.725  0.00  0.00    +0.000 A 
ATOM     19  C   UNL     1      -4.546  11.691  16.544  0.00  0.00    +0.000 A 
ATOM     20  C   UNL     1      -4.148  11.189  15.305  0.00  0.00    +0.000 A 
ENDBRANCH   1  18
BRANCH  11  21
ATOM     21  C   UNL     1      -0.286  13.513  21.118  0.00  0.00    +0.000 C 
ATOM     22  O   UNL     1       0.307  12.832  21.953  0.00  0.00    +0.000 OA
ATOM     23  N   UNL     1       0.333  14.533  20.419  0.00  0.00    +0.000 N 
ATOM     24  H   UNL     1      -0.263  15.062  19.789  0.00  0.00    +0.000 HD
BRANCH  23  25
ATOM     25  C   UNL     1       1.751  14.841  20.601  0.00  0.00    +0.000 C 
ATOM     26  C   UNL     1       2.557  15.007  19.261  0.00  0.00    +0.000 C 
ATOM     27  C   UNL     1       2.925  13.692  18.601  0.00  0.00    +0.000 C 
ATOM     28  C   UNL     1       1.899  16.023  18.309  0.00  0.00    +0.000 C 
ATOM     29  C   UNL     1       2.038  17.342  19.082  0.00  0.00    +0.000 C 
ATOM     30  C   UNL     1       2.895  16.955  20.310  0.00  0.00    +0.000 C 
ATOM     31  C   UNL     1       3.767  15.849  19.695  0.00  0.00    +0.000 C 
ATOM     32  C   UNL     1       2.082  16.164  21.384  0.00  0.00    +0.000 C 
ATOM     33  C   UNL     1       0.883  16.922  21.971  0.00  0.00    +0.000 C 
ATOM     34  C   UNL     1       3.003  15.867  22.601  0.00  0.00    +0.000 C 
ENDBRANCH  23  25
ENDBRANCH  11  21
TORSDOF 3
ENDMDL
MODEL 6
REMARK VINA RESULT:      -7.0      4.528      8.739
REMARK  Name = 
REMARK  7 active torsions:
REMARK  status: ('A' for Active; 'I' for Inactive)
REMARK    1  A    between atoms: C_1  and  C_2
REMARK    2  A    between atoms: C_5  and  C_6
REMARK    3  A    between atoms: C_16  and  C_17
REMARK    4  A    between atoms: N_19  and  C_20
REMARK    5  A    between atoms: C_21  and  C_22
REMARK    6  A    between atoms: C_27  and  C_28
REMARK    7  A    between atoms: C_27  and  C_29
REMARK                            x       y       z     vdW  Elec       q    Type
REMARK                         _______ _______ _______ _____ _____    ______ ____
ROOT
ATOM      1  C   UNL     1       1.427  12.010  18.979  0.00  0.00    +0.000 A 
ATOM      2  C   UNL     1       2.409  12.764  18.429  0.00  0.00    +0.000 A 
ATOM      3  C   UNL     1       2.276  14.230  18.354  0.00  0.00    +0.000 A 
ATOM      4  N   UNL     1       3.287  14.911  17.768  0.00  0.00    +0.000 NA
ATOM      5  C   UNL     1       3.136  16.254  17.674  0.00  0.00    +0.000 A 
ATOM      6  C   UNL     1       2.026  16.946  18.138  0.00  0.00    +0.000 A 
ATOM      7  C   UNL     1       1.000  16.224  18.742  0.00  0.00    +0.000 A 
ATOM      8  C   UNL     1       1.118  14.841  18.859  0.00  0.00    +0.000 A 
ATOM      9  C   UNL     1       0.075  13.996  19.437  0.00  0.00    +0.000 A 
ATOM     10  C   UNL     1      -1.184  14.263  19.906  0.00  0.00    +0.000 A 
ATOM     11  C   UNL     1      -1.770  13.005  20.183  0.00  0.00    +0.000 A 
ATOM     12  N   UNL     1      -0.878  12.007  20.015  0.00  0.00    +0.000 NA
ATOM     13  N   UNL     1       0.242  12.611  19.485  0.00  0.00    +0.000 N 
ENDROOT
BRANCH   1  18
ATOM     14  C   UNL     1       2.143   6.273  19.005  0.00  0.00    +0.000 C 
ATOM     15  C   UNL     1       1.955   7.759  19.014  0.00  0.00    +0.000 A 
ATOM     16  C   UNL     1       1.508   8.430  20.159  0.00  0.00    +0.000 A 
ATOM     17  C   UNL     1       1.331   9.811  20.154  0.00  0.00    +0.000 A 
ATOM     18  C   UNL     1       1.598  10.552  18.992  0.00  0.00    +0.000 A 
ATOM     19  C   UNL     1       2.048   9.887  17.848  0.00  0.00    +0.000 A 
ATOM     20  C   UNL     1       2.222   8.503  17.855  0.00  0.00    +0.000 A 
ENDBRANCH   1  18
BRANCH  11  21
ATOM     21  C   UNL     1      -3.194  12.828  20.540  0.00  0.00    +0.000 C 
ATOM     22  O   UNL     1      -3.923  12.092  19.876  0.00  0.00    +0.000 OA
ATOM     23  N   UNL     1      -3.643  13.495  21.665  0.00  0.00    +0.000 N 
ATOM     24  H   UNL     1      -2.971  14.113  22.109  0.00  0.00    +0.000 HD
BRANCH  23  25
ATOM     25  C   UNL     1      -5.010  13.336  22.160  0.00  0.00    +0.000 C 
ATOM     26  C   UNL     1      -5.172  13.569  23.707  0.00  0.00    +0.000 C 
ATOM     27  C   UNL     1      -4.726  12.393  24.554  0.00  0.00    +0.000 C 
ATOM     28  C   UNL     1      -4.586  14.921  24.155  0.00  0.00    +0.000 C 
ATOM     29  C   UNL     1      -5.503  15.931  23.451  0.00  0.00    +0.000 C 
ATOM     30  C   UNL     1      -6.597  15.045  22.812  0.00  0.00    +0.000 C 
ATOM     31  C   UNL     1      -6.665  13.908  23.845  0.00  0.00    +0.000 C 
ATOM     32  C   UNL     1      -6.092  14.293  21.539  0.00  0.00    +0.000 C 
ATOM     33  C   UNL     1      -5.617  15.205  20.400  0.00  0.00    +0.000 C 
ATOM     34  C   UNL     1      -7.268  13.474  20.933  0.00  0.00    +0.000 C 
ENDBRANCH  23  25
ENDBRANCH  11  21
TORSDOF 3
ENDMDL
MODEL 7
REMARK VINA RESULT:      -7.0      2.587      8.583
REMARK  Name = 
REMARK  7 active torsions:
REMARK  status: ('A' for Active; 'I' for Inactive)
REMARK    1  A    between atoms: C_1  and  C_2
REMARK    2  A    between atoms: C_5  and  C_6
REMARK    3  A    between atoms: C_16  and  C_17
REMARK    4  A    between atoms: N_19  and  C_20
REMARK    5  A    between atoms: C_21  and  C_22
REMARK    6  A    between atoms: C_27  and  C_28
REMARK    7  A    between atoms: C_27  and  C_29
REMARK                            x       y       z     vdW  Elec       q    Type
REMARK                         _______ _______ _______ _____ _____    ______ ____
ROOT
ATOM      1  C   UNL     1       1.714  13.037  20.524  0.00  0.00    +0.000 A 
ATOM      2  C   UNL     1       0.917  13.733  21.370  0.00  0.00    +0.000 A 
ATOM      3  C   UNL     1      -0.213  13.073  22.049  0.00  0.00    +0.000 A 
ATOM      4  N   UNL     1      -0.978  13.840  22.859  0.00  0.00    +0.000 NA
ATOM      5  C   UNL     1      -2.033  13.230  23.449  0.00  0.00    +0.000 A 
ATOM      6  C   UNL     1      -2.358  11.893  23.269  0.00  0.00    +0.000 A 
ATOM      7  C   UNL     1      -1.553  11.122  22.435  0.00  0.00    +0.000 A 
ATOM      8  C   UNL     1      -0.457  11.712  21.810  0.00  0.00    +0.000 A 
ATOM      9  C   UNL     1       0.417  10.995  20.885  0.00  0.00    +0.000 A 
ATOM     10  C   UNL     1       0.386   9.726  20.370  0.00  0.00    +0.000 A 
ATOM     11  C   UNL     1       1.412   9.676  19.397  0.00  0.00    +0.000 A 
ATOM     12  N   UNL     1       2.132  10.817  19.393  0.00  0.00    +0.000 NA
ATOM     13  N   UNL     1       1.475  11.660  20.261  0.00  0.00    +0.000 N 
ENDROOT
BRANCH   1  18
ATOM     14  C   UNL     1       6.026  15.845  17.888  0.00  0.00    +0.000 C 
ATOM     15  C   UNL     1       4.903  15.113  18.557  0.00  0.00    +0.000 A 
ATOM     16  C   UNL     1       3.815  14.622  17.825  0.00  0.00    +0.000 A 
ATOM     17  C   UNL     1       2.774  13.950  18.458  0.00  0.00    +0.000 A 
ATOM     18  C   UNL     1       2.801  13.756  19.848  0.00  0.00    +0.000 A 
ATOM     19  C   UNL     1       3.887  14.242  20.582  0.00  0.00    +0.000 A 
ATOM     20  C   UNL     1       4.928  14.918  19.946  0.00  0.00    +0.000 A 
ENDBRANCH   1  18
BRANCH  11  21
ATOM     21  C   UNL     1       1.605   8.539  18.471  0.00  0.00    +0.000 C 
ATOM     22  O   UNL     1       1.245   8.614  17.298  0.00  0.00    +0.000 OA
ATOM     23  N   UNL     1       2.238   7.419  18.981  0.00  0.00    +0.000 N 
ATOM     24  H   UNL     1       2.448   7.446  19.974  0.00  0.00    +0.000 HD
BRANCH  23  25
ATOM     25  C   UNL     1       2.553   6.265  18.142  0.00  0.00    +0.000 C 
ATOM     26  C   UNL     1       4.066   6.158  17.726  0.00  0.00    +0.000 C 
ATOM     27  C   UNL     1       4.458   7.089  16.596  0.00  0.00    +0.000 C 
ATOM     28  C   UNL     1       5.008   6.218  18.943  0.00  0.00    +0.000 C 
ATOM     29  C   UNL     1       4.659   4.928  19.700  0.00  0.00    +0.000 C 
ATOM     30  C   UNL     1       3.674   4.206  18.751  0.00  0.00    +0.000 C 
ATOM     31  C   UNL     1       4.221   4.666  17.389  0.00  0.00    +0.000 C 
ATOM     32  C   UNL     1       2.251   4.850  18.759  0.00  0.00    +0.000 C 
ATOM     33  C   UNL     1       1.550   4.843  20.125  0.00  0.00    +0.000 C 
ATOM     34  C   UNL     1       1.316   4.030  17.825  0.00  0.00    +0.000 C 
ENDBRANCH  23  25
ENDBRANCH  11  21
TORSDOF 3
ENDMDL
MODEL 8
REMARK VINA RESULT:      -6.9      7.243      9.537
REMARK  Name = 
REMARK  7 active torsions:
REMARK  status: ('A' for Active; 'I' for Inactive)
REMARK    1  A    between atoms: C_1  and  C_2
REMARK    2  A    between atoms: C_5  and  C_6
REMARK    3  A    between atoms: C_16  and  C_17
REMARK    4  A    between atoms: N_19  and  C_20
REMARK    5  A    between atoms: C_21  and  C_22
REMARK    6  A    between atoms: C_27  and  C_28
REMARK    7  A    between atoms: C_27  and  C_29
REMARK                            x       y       z     vdW  Elec       q    Type
REMARK                         _______ _______ _______ _____ _____    ______ ____
ROOT
ATOM      1  C   UNL     1      -3.599  12.067  19.493  0.00  0.00    +0.000 A 
ATOM      2  C   UNL     1      -4.824  12.019  20.069  0.00  0.00    +0.000 A 
ATOM      3  C   UNL     1      -5.042  12.578  21.416  0.00  0.00    +0.000 A 
ATOM      4  N   UNL     1      -6.288  12.469  21.933  0.00  0.00    +0.000 NA
ATOM      5  C   UNL     1      -6.465  12.956  23.184  0.00  0.00    +0.000 A 
ATOM      6  C   UNL     1      -5.461  13.544  23.940  0.00  0.00    +0.000 A 
ATOM      7  C   UNL     1      -4.189  13.649  23.384  0.00  0.00    +0.000 A 
ATOM      8  C   UNL     1      -3.965  13.162  22.098  0.00  0.00    +0.000 A 
ATOM      9  C   UNL     1      -2.656  13.188  21.451  0.00  0.00    +0.000 A 
ATOM     10  C   UNL     1      -1.414  13.579  21.879  0.00  0.00    +0.000 A 
ATOM     11  C   UNL     1      -0.515  13.208  20.851  0.00  0.00    +0.000 A 
ATOM     12  N   UNL     1      -1.176  12.724  19.779  0.00  0.00    +0.000 NA
ATOM     13  N   UNL     1      -2.494  12.644  20.175  0.00  0.00    +0.000 N 
ENDROOT
BRANCH   1  18
ATOM     14  C   UNL     1      -2.959   9.721  14.248  0.00  0.00    +0.000 C 
ATOM     15  C   UNL     1      -3.110  10.323  15.610  0.00  0.00    +0.000 A 
ATOM     16  C   UNL     1      -2.203  10.039  16.638  0.00  0.00    +0.000 A 
ATOM     17  C   UNL     1      -2.357  10.599  17.903  0.00  0.00    +0.000 A 
ATOM     18  C   UNL     1      -3.433  11.460  18.166  0.00  0.00    +0.000 A 
ATOM     19  C   UNL     1      -4.341  11.750  17.142  0.00  0.00    +0.000 A 
ATOM     20  C   UNL     1      -4.185  11.185  15.877  0.00  0.00    +0.000 A 
ENDBRANCH   1  18
BRANCH  11  21
ATOM     21  C   UNL     1       0.956  13.285  20.985  0.00  0.00    +0.000 C 
ATOM     22  O   UNL     1       1.602  12.324  21.399  0.00  0.00    +0.000 OA
ATOM     23  N   UNL     1       1.557  14.466  20.590  0.00  0.00    +0.000 N 
ATOM     24  H   UNL     1       0.926  15.211  20.310  0.00  0.00    +0.000 HD
BRANCH  23  25
ATOM     25  C   UNL     1       3.010  14.632  20.603  0.00  0.00    +0.000 C 
ATOM     26  C   UNL     1       3.610  15.210  19.269  0.00  0.00    +0.000 C 
ATOM     27  C   UNL     1       3.736  14.184  18.159  0.00  0.00    +0.000 C 
ATOM     28  C   UNL     1       2.918  16.516  18.839  0.00  0.00    +0.000 C 
ATOM     29  C   UNL     1       3.309  17.486  19.963  0.00  0.00    +0.000 C 
ATOM     30  C   UNL     1       4.303  16.668  20.819  0.00  0.00    +0.000 C 
ATOM     31  C   UNL     1       4.952  15.801  19.729  0.00  0.00    +0.000 C 
ATOM     32  C   UNL     1       3.592  15.594  21.703  0.00  0.00    +0.000 C 
ATOM     33  C   UNL     1       2.582  16.158  22.712  0.00  0.00    +0.000 C 
ATOM     34  C   UNL     1       4.656  14.861  22.568  0.00  0.00    +0.000 C 
ENDBRANCH  23  25
ENDBRANCH  11  21
TORSDOF 3
ENDMDL
MODEL 9
REMARK VINA RESULT:      -6.9      4.844      8.856
REMARK  Name = 
REMARK  7 active torsions:
REMARK  status: ('A' for Active; 'I' for Inactive)
REMARK    1  A    between atoms: C_1  and  C_2
REMARK    2  A    between atoms: C_5  and  C_6
REMARK    3  A    between atoms: C_16  and  C_17
REMARK    4  A    between atoms: N_19  and  C_20
REMARK    5  A    between atoms: C_21  and  C_22
REMARK    6  A    between atoms: C_27  and  C_28
REMARK    7  A    between atoms: C_27  and  C_29
REMARK                            x       y       z     vdW  Elec       q    Type
REMARK                         _______ _______ _______ _____ _____    ______ ____
ROOT
ATOM      1  C   UNL     1       1.037  11.617  19.900  0.00  0.00    +0.000 A 
ATOM      2  C   UNL     1       1.927  12.330  19.169  0.00  0.00    +0.000 A 
ATOM      3  C   UNL     1       1.750  13.780  18.977  0.00  0.00    +0.000 A 
ATOM      4  N   UNL     1       2.667  14.417  18.214  0.00  0.00    +0.000 NA
ATOM      5  C   UNL     1       2.472  15.743  18.017  0.00  0.00    +0.000 A 
ATOM      6  C   UNL     1       1.409  16.460  18.547  0.00  0.00    +0.000 A 
ATOM      7  C   UNL     1       0.481  15.784  19.334  0.00  0.00    +0.000 A 
ATOM      8  C   UNL     1       0.646  14.419  19.561  0.00  0.00    +0.000 A 
ATOM      9  C   UNL     1      -0.300  13.618  20.335  0.00  0.00    +0.000 A 
ATOM     10  C   UNL     1      -1.500  13.910  20.928  0.00  0.00    +0.000 A 
ATOM     11  C   UNL     1      -2.017  12.676  21.386  0.00  0.00    +0.000 A 
ATOM     12  N   UNL     1      -1.127  11.679  21.203  0.00  0.00    +0.000 NA
ATOM     13  N   UNL     1      -0.094  12.246  20.489  0.00  0.00    +0.000 N 
ENDROOT
BRANCH   1  18
ATOM     14  C   UNL     1       1.815   5.911  20.419  0.00  0.00    +0.000 C 
ATOM     15  C   UNL     1       1.615   7.388  20.269  0.00  0.00    +0.000 A 
ATOM     16  C   UNL     1       1.848   8.035  19.049  0.00  0.00    +0.000 A 
ATOM     17  C   UNL     1       1.666   9.409  18.923  0.00  0.00    +0.000 A 
ATOM     18  C   UNL     1       1.245  10.169  20.025  0.00  0.00    +0.000 A 
ATOM     19  C   UNL     1       1.008   9.527  21.244  0.00  0.00    +0.000 A 
ATOM     20  C   UNL     1       1.194   8.150  21.369  0.00  0.00    +0.000 A 
ENDBRANCH   1  18
BRANCH  11  21
ATOM     21  C   UNL     1      -3.384  12.513  21.928  0.00  0.00    +0.000 C 
ATOM     22  O   UNL     1      -3.562  12.116  23.078  0.00  0.00    +0.000 OA
ATOM     23  N   UNL     1      -4.431  12.862  21.095  0.00  0.00    +0.000 N 
ATOM     24  H   UNL     1      -4.173  13.130  20.150  0.00  0.00    +0.000 HD
BRANCH  23  25
ATOM     25  C   UNL     1      -5.821  12.816  21.546  0.00  0.00    +0.000 C 
ATOM     26  C   UNL     1      -6.397  14.202  22.016  0.00  0.00    +0.000 C 
ATOM     27  C   UNL     1      -5.956  14.608  23.408  0.00  0.00    +0.000 C 
ATOM     28  C   UNL     1      -6.206  15.300  20.953  0.00  0.00    +0.000 C 
ATOM     29  C   UNL     1      -7.099  14.810  19.804  0.00  0.00    +0.000 C 
ATOM     30  C   UNL     1      -7.814  13.577  20.400  0.00  0.00    +0.000 C 
ATOM     31  C   UNL     1      -7.915  14.005  21.873  0.00  0.00    +0.000 C 
ATOM     32  C   UNL     1      -6.881  12.327  20.492  0.00  0.00    +0.000 C 
ATOM     33  C   UNL     1      -6.324  11.841  19.146  0.00  0.00    +0.000 C 
ATOM     34  C   UNL     1      -7.695  11.124  21.047  0.00  0.00    +0.000 C 
ENDBRANCH  23  25
ENDBRANCH  11  21
TORSDOF 3
ENDMDL
