MODEL 1
REMARK VINA RESULT:      -8.6      0.000      0.000
REMARK  Name = 
REMARK  4 active torsions:
REMARK  status: ('A' for Active; 'I' for Inactive)
REMARK    1  A    between atoms: C_1  and  N_2
REMARK    2  A    between atoms: C_7  and  S_8
REMARK    3  A    between atoms: S_8  and  N_11
REMARK    4  A    between atoms: C_23  and  O_24
REMARK                            x       y       z     vdW  Elec       q    Type
REMARK                         _______ _______ _______ _____ _____    ______ ____
ROOT
ATOM      1  C   UNL     1       8.259   5.524  12.463  0.00  0.00    +0.000 C 
ATOM      2  N   UNL     1       7.128   4.663  12.755  0.00  0.00    +0.000 N 
ATOM      3  C   UNL     1       6.674   4.721  14.082  0.00  0.00    +0.000 A 
ATOM      4  C   UNL     1       5.657   3.864  14.448  0.00  0.00    +0.000 A 
ATOM      5  C   UNL     1       5.267   3.815  15.779  0.00  0.00    +0.000 A 
ATOM      6  C   UNL     1       5.868   4.641  16.753  0.00  0.00    +0.000 A 
ATOM      7  C   UNL     1       5.551   4.641  18.144  0.00  0.00    +0.000 A 
ATOM      8  C   UNL     1       6.191   5.507  19.038  0.00  0.00    +0.000 A 
ATOM      9  C   UNL     1       7.132   6.406  18.559  0.00  0.00    +0.000 A 
ATOM     10  C   UNL     1       7.447   6.410  17.199  0.00  0.00    +0.000 A 
ATOM     11  C   UNL     1       6.858   5.526  16.279  0.00  0.00    +0.000 A 
ATOM     12  N   UNL     1       7.247   5.541  14.980  0.00  0.00    +0.000 NA
ATOM     13  H   UNL     1       6.348   4.808  12.123  0.00  0.00    +0.000 HD
ENDROOT
BRANCH   7  14
ATOM     14  S   UNL     1       4.338   3.510  18.820  0.00  0.00    +0.000 S 
ATOM     15  O   UNL     1       3.664   2.929  17.682  0.00  0.00    +0.000 OA
ATOM     16  O   UNL     1       5.019   2.669  19.784  0.00  0.00    +0.000 OA
BRANCH  14  17
ATOM     17  N   UNL     1       3.333   4.535  19.671  0.00  0.00    +0.000 N 
ATOM     18  C   UNL     1       2.559   4.082  20.846  0.00  0.00    +0.000 C 
ATOM     19  C   UNL     1       1.710   5.298  21.269  0.00  0.00    +0.000 C 
ATOM     20  C   UNL     1       1.961   6.294  20.177  0.00  0.00    +0.000 A 
ATOM     21  C   UNL     1       1.483   7.590  20.066  0.00  0.00    +0.000 A 
ATOM     22 CL   UNL     1       0.448   8.266  21.262  0.00  0.00    +0.000 Cl
ATOM     23  C   UNL     1       1.880   8.371  18.978  0.00  0.00    +0.000 A 
ATOM     24  C   UNL     1       2.732   7.840  18.002  0.00  0.00    +0.000 A 
ATOM     25  C   UNL     1       3.216   6.536  18.122  0.00  0.00    +0.000 A 
ATOM     26  C   UNL     1       2.838   5.784  19.221  0.00  0.00    +0.000 A 
ENDBRANCH  14  17
ENDBRANCH   7  14
BRANCH  10  27
ATOM     27  O   UNL     1       8.371   7.324  16.745  0.00  0.00    +0.000 OA
ATOM     28  H   UNL     1       9.232   6.894  16.631  0.00  0.00    +0.000 HD
ENDBRANCH  10  27
TORSDOF 3
ENDMDL
MODEL 2
REMARK VINA RESULT:      -8.1      3.907      7.502
REMARK  Name = 
REMARK  4 active torsions:
REMARK  status: ('A' for Active; 'I' for Inactive)
REMARK    1  A    between atoms: C_1  and  N_2
REMARK    2  A    between atoms: C_7  and  S_8
REMARK    3  A    between atoms: S_8  and  N_11
REMARK    4  A    between atoms: C_23  and  O_24
REMARK                            x       y       z     vdW  Elec       q    Type
REMARK                         _______ _______ _______ _____ _____    ______ ____
ROOT
ATOM      1  C   UNL     1      -1.016  12.362  21.923  0.00  0.00    +0.000 C 
ATOM      2  N   UNL     1      -0.763  11.098  22.590  0.00  0.00    +0.000 N 
ATOM      3  C   UNL     1      -0.020  10.176  21.836  0.00  0.00    +0.000 A 
ATOM      4  C   UNL     1       0.182   8.923  22.378  0.00  0.00    +0.000 A 
ATOM      5  C   UNL     1       0.812   7.954  21.609  0.00  0.00    +0.000 A 
ATOM      6  C   UNL     1       1.270   8.232  20.304  0.00  0.00    +0.000 A 
ATOM      7  C   UNL     1       1.902   7.295  19.433  0.00  0.00    +0.000 A 
ATOM      8  C   UNL     1       2.338   7.665  18.156  0.00  0.00    +0.000 A 
ATOM      9  C   UNL     1       2.182   8.977  17.736  0.00  0.00    +0.000 A 
ATOM     10  C   UNL     1       1.563   9.898  18.583  0.00  0.00    +0.000 A 
ATOM     11  C   UNL     1       1.072   9.554  19.854  0.00  0.00    +0.000 A 
ATOM     12  N   UNL     1       0.431  10.481  20.608  0.00  0.00    +0.000 NA
ATOM     13  H   UNL     1      -0.336  11.212  23.503  0.00  0.00    +0.000 HD
ENDROOT
BRANCH   7  14
ATOM     14  S   UNL     1       2.142   5.589  19.924  0.00  0.00    +0.000 S 
ATOM     15  O   UNL     1       2.985   5.630  21.095  0.00  0.00    +0.000 OA
ATOM     16  O   UNL     1       0.834   4.966  19.975  0.00  0.00    +0.000 OA
BRANCH  14  17
ATOM     17  N   UNL     1       2.947   4.952  18.608  0.00  0.00    +0.000 N 
ATOM     18  C   UNL     1       2.305   4.001  17.677  0.00  0.00    +0.000 C 
ATOM     19  C   UNL     1       3.409   3.601  16.676  0.00  0.00    +0.000 C 
ATOM     20  C   UNL     1       4.640   4.246  17.240  0.00  0.00    +0.000 A 
ATOM     21  C   UNL     1       5.924   4.252  16.720  0.00  0.00    +0.000 A 
ATOM     22 CL   UNL     1       6.296   3.446  15.248  0.00  0.00    +0.000 Cl
ATOM     23  C   UNL     1       6.926   4.958  17.391  0.00  0.00    +0.000 A 
ATOM     24  C   UNL     1       6.636   5.631  18.584  0.00  0.00    +0.000 A 
ATOM     25  C   UNL     1       5.339   5.626  19.100  0.00  0.00    +0.000 A 
ATOM     26  C   UNL     1       4.350   4.947  18.409  0.00  0.00    +0.000 A 
ENDBRANCH  14  17
ENDBRANCH   7  14
BRANCH  10  27
ATOM     27  O   UNL     1       1.435  11.199  18.150  0.00  0.00    +0.000 OA
ATOM     28  H   UNL     1       2.249  11.690  18.336  0.00  0.00    +0.000 HD
ENDBRANCH  10  27
TORSDOF 3
ENDMDL
MODEL 3
REMARK VINA RESULT:      -7.7      7.094     10.394
REMARK  Name = 
REMARK  4 active torsions:
REMARK  status: ('A' for Active; 'I' for Inactive)
REMARK    1  A    between atoms: C_1  and  N_2
REMARK    2  A    between atoms: C_7  and  S_8
REMARK    3  A    between atoms: S_8  and  N_11
REMARK    4  A    between atoms: C_23  and  O_24
REMARK                            x       y       z     vdW  Elec       q    Type
REMARK                         _______ _______ _______ _____ _____    ______ ____
ROOT
ATOM      1  C   UNL     1      -6.906  12.105  17.608  0.00  0.00    +0.000 C 
ATOM      2  N   UNL     1      -5.610  11.702  17.095  0.00  0.00    +0.000 N 
ATOM      3  C   UNL     1      -4.557  11.797  18.018  0.00  0.00    +0.000 A 
ATOM      4  C   UNL     1      -3.285  11.510  17.569  0.00  0.00    +0.000 A 
ATOM      5  C   UNL     1      -2.211  11.708  18.427  0.00  0.00    +0.000 A 
ATOM      6  C   UNL     1      -2.398  12.166  19.748  0.00  0.00    +0.000 A 
ATOM      7  C   UNL     1      -1.356  12.422  20.688  0.00  0.00    +0.000 A 
ATOM      8  C   UNL     1      -1.636  12.863  21.986  0.00  0.00    +0.000 A 
ATOM      9  C   UNL     1      -2.956  13.027  22.380  0.00  0.00    +0.000 A 
ATOM     10  C   UNL     1      -3.980  12.780  21.463  0.00  0.00    +0.000 A 
ATOM     11  C   UNL     1      -3.736  12.378  20.139  0.00  0.00    +0.000 A 
ATOM     12  N   UNL     1      -4.772  12.207  19.280  0.00  0.00    +0.000 NA
ATOM     13  H   UNL     1      -5.619  10.774  16.685  0.00  0.00    +0.000 HD
ENDROOT
BRANCH   7  14
ATOM     14  S   UNL     1       0.367  12.219  20.242  0.00  0.00    +0.000 S 
ATOM     15  O   UNL     1       0.445  12.509  18.830  0.00  0.00    +0.000 OA
ATOM     16  O   UNL     1       1.154  12.974  21.197  0.00  0.00    +0.000 OA
BRANCH  14  17
ATOM     17  N   UNL     1       0.624  10.599  20.552  0.00  0.00    +0.000 N 
ATOM     18  C   UNL     1       0.470  10.022  21.903  0.00  0.00    +0.000 C 
ATOM     19  C   UNL     1       0.882   8.542  21.765  0.00  0.00    +0.000 C 
ATOM     20  C   UNL     1       1.400   8.455  20.360  0.00  0.00    +0.000 A 
ATOM     21  C   UNL     1       1.866   7.341  19.681  0.00  0.00    +0.000 A 
ATOM     22 CL   UNL     1       1.922   5.795  20.432  0.00  0.00    +0.000 Cl
ATOM     23  C   UNL     1       2.265   7.474  18.348  0.00  0.00    +0.000 A 
ATOM     24  C   UNL     1       2.213   8.723  17.718  0.00  0.00    +0.000 A 
ATOM     25  C   UNL     1       1.737   9.841  18.405  0.00  0.00    +0.000 A 
ATOM     26  C   UNL     1       1.317   9.689  19.716  0.00  0.00    +0.000 A 
ENDBRANCH  14  17
ENDBRANCH   7  14
BRANCH  10  27
ATOM     27  O   UNL     1      -5.283  12.932  21.883  0.00  0.00    +0.000 OA
ATOM     28  H   UNL     1      -5.496  12.260  22.547  0.00  0.00    +0.000 HD
ENDBRANCH  10  27
TORSDOF 3
ENDMDL
MODEL 4
REMARK VINA RESULT:      -7.7      7.054      9.563
REMARK  Name = 
REMARK  4 active torsions:
REMARK  status: ('A' for Active; 'I' for Inactive)
REMARK    1  A    between atoms: C_1  and  N_2
REMARK    2  A    between atoms: C_7  and  S_8
REMARK    3  A    between atoms: S_8  and  N_11
REMARK    4  A    between atoms: C_23  and  O_24
REMARK                            x       y       z     vdW  Elec       q    Type
REMARK                         _______ _______ _______ _____ _____    ______ ____
ROOT
ATOM      1  C   UNL     1       2.900   6.311  19.277  0.00  0.00    +0.000 C 
ATOM      2  N   UNL     1       2.056   6.551  20.432  0.00  0.00    +0.000 N 
ATOM      3  C   UNL     1       1.484   7.832  20.485  0.00  0.00    +0.000 A 
ATOM      4  C   UNL     1       0.739   8.154  21.600  0.00  0.00    +0.000 A 
ATOM      5  C   UNL     1       0.260   9.450  21.735  0.00  0.00    +0.000 A 
ATOM      6  C   UNL     1       0.493  10.429  20.745  0.00  0.00    +0.000 A 
ATOM      7  C   UNL     1       0.063  11.787  20.809  0.00  0.00    +0.000 A 
ATOM      8  C   UNL     1       0.329  12.686  19.772  0.00  0.00    +0.000 A 
ATOM      9  C   UNL     1       0.999  12.243  18.641  0.00  0.00    +0.000 A 
ATOM     10  C   UNL     1       1.424  10.915  18.573  0.00  0.00    +0.000 A 
ATOM     11  C   UNL     1       1.214   9.994  19.613  0.00  0.00    +0.000 A 
ATOM     12  N   UNL     1       1.699   8.732  19.511  0.00  0.00    +0.000 NA
ATOM     13  H   UNL     1       1.330   5.851  20.544  0.00  0.00    +0.000 HD
ENDROOT
BRANCH   7  14
ATOM     14  S   UNL     1      -0.815  12.415  22.239  0.00  0.00    +0.000 S 
ATOM     15  O   UNL     1      -0.629  11.431  23.279  0.00  0.00    +0.000 OA
ATOM     16  O   UNL     1      -0.394  13.789  22.436  0.00  0.00    +0.000 OA
BRANCH  14  17
ATOM     17  N   UNL     1      -2.393  12.449  21.699  0.00  0.00    +0.000 N 
ATOM     18  C   UNL     1      -2.733  12.588  20.268  0.00  0.00    +0.000 C 
ATOM     19  C   UNL     1      -4.273  12.663  20.219  0.00  0.00    +0.000 C 
ATOM     20  C   UNL     1      -4.664  12.727  21.665  0.00  0.00    +0.000 A 
ATOM     21  C   UNL     1      -5.937  12.763  22.213  0.00  0.00    +0.000 A 
ATOM     22 CL   UNL     1      -7.339  12.748  21.218  0.00  0.00    +0.000 Cl
ATOM     23  C   UNL     1      -6.079  12.775  23.603  0.00  0.00    +0.000 A 
ATOM     24  C   UNL     1      -4.948  12.775  24.427  0.00  0.00    +0.000 A 
ATOM     25  C   UNL     1      -3.668  12.732  23.871  0.00  0.00    +0.000 A 
ATOM     26  C   UNL     1      -3.543  12.690  22.492  0.00  0.00    +0.000 A 
ENDBRANCH  14  17
ENDBRANCH   7  14
BRANCH  10  27
ATOM     27  O   UNL     1       2.071  10.494  17.432  0.00  0.00    +0.000 OA
ATOM     28  H   UNL     1       3.028  10.589  17.543  0.00  0.00    +0.000 HD
ENDBRANCH  10  27
TORSDOF 3
ENDMDL
MODEL 5
REMARK VINA RESULT:      -7.7      7.111     10.563
REMARK  Name = 
REMARK  4 active torsions:
REMARK  status: ('A' for Active; 'I' for Inactive)
REMARK    1  A    between atoms: C_1  and  N_2
REMARK    2  A    between atoms: C_7  and  S_8
REMARK    3  A    between atoms: S_8  and  N_11
REMARK    4  A    between atoms: C_23  and  O_24
REMARK                            x       y       z     vdW  Elec       q    Type
REMARK                         _______ _______ _______ _____ _____    ______ ____
ROOT
ATOM      1  C   UNL     1      -7.744  13.190  18.748  0.00  0.00    +0.000 C 
ATOM      2  N   UNL     1      -6.745  13.666  19.687  0.00  0.00    +0.000 N 
ATOM      3  C   UNL     1      -5.458  13.143  19.490  0.00  0.00    +0.000 A 
ATOM      4  C   UNL     1      -4.481  13.489  20.401  0.00  0.00    +0.000 A 
ATOM      5  C   UNL     1      -3.230  12.895  20.300  0.00  0.00    +0.000 A 
ATOM      6  C   UNL     1      -2.933  11.973  19.274  0.00  0.00    +0.000 A 
ATOM      7  C   UNL     1      -1.688  11.296  19.108  0.00  0.00    +0.000 A 
ATOM      8  C   UNL     1      -1.478  10.406  18.050  0.00  0.00    +0.000 A 
ATOM      9  C   UNL     1      -2.488  10.198  17.123  0.00  0.00    +0.000 A 
ATOM     10  C   UNL     1      -3.709  10.856  17.281  0.00  0.00    +0.000 A 
ATOM     11  C   UNL     1      -3.973  11.724  18.355  0.00  0.00    +0.000 A 
ATOM     12  N   UNL     1      -5.198  12.290  18.484  0.00  0.00    +0.000 NA
ATOM     13  H   UNL     1      -6.697  14.679  19.732  0.00  0.00    +0.000 HD
ENDROOT
BRANCH   7  14
ATOM     14  S   UNL     1      -0.342  11.531  20.266  0.00  0.00    +0.000 S 
ATOM     15  O   UNL     1       0.609  12.386  19.596  0.00  0.00    +0.000 OA
ATOM     16  O   UNL     1      -0.925  11.925  21.534  0.00  0.00    +0.000 OA
BRANCH  14  17
ATOM     17  N   UNL     1       0.245   9.980  20.447  0.00  0.00    +0.000 N 
ATOM     18  C   UNL     1       0.115   9.231  21.714  0.00  0.00    +0.000 C 
ATOM     19  C   UNL     1       0.858   7.900  21.480  0.00  0.00    +0.000 C 
ATOM     20  C   UNL     1       1.494   8.088  20.135  0.00  0.00    +0.000 A 
ATOM     21  C   UNL     1       2.251   7.185  19.406  0.00  0.00    +0.000 A 
ATOM     22 CL   UNL     1       2.590   5.611  20.009  0.00  0.00    +0.000 Cl
ATOM     23  C   UNL     1       2.715   7.552  18.141  0.00  0.00    +0.000 A 
ATOM     24  C   UNL     1       2.437   8.825  17.630  0.00  0.00    +0.000 A 
ATOM     25  C   UNL     1       1.669   9.729  18.366  0.00  0.00    +0.000 A 
ATOM     26  C   UNL     1       1.190   9.341  19.605  0.00  0.00    +0.000 A 
ENDBRANCH  14  17
ENDBRANCH   7  14
BRANCH  10  27
ATOM     27  O   UNL     1      -4.691  10.648  16.338  0.00  0.00    +0.000 OA
ATOM     28  H   UNL     1      -4.541  11.222  15.573  0.00  0.00    +0.000 HD
ENDBRANCH  10  27
TORSDOF 3
ENDMDL
MODEL 6
REMARK VINA RESULT:      -7.6      4.189      6.387
REMARK  Name = 
REMARK  4 active torsions:
REMARK  status: ('A' for Active; 'I' for Inactive)
REMARK    1  A    between atoms: C_1  and  N_2
REMARK    2  A    between atoms: C_7  and  S_8
REMARK    3  A    between atoms: S_8  and  N_11
REMARK    4  A    between atoms: C_23  and  O_24
REMARK                            x       y       z     vdW  Elec       q    Type
REMARK                         _______ _______ _______ _____ _____    ______ ____
ROOT
ATOM      1  C   UNL     1       4.049   2.041  19.087  0.00  0.00    +0.000 C 
ATOM      2  N   UNL     1       3.124   2.457  20.125  0.00  0.00    +0.000 N 
ATOM      3  C   UNL     1       2.703   3.792  20.034  0.00  0.00    +0.000 A 
ATOM      4  C   UNL     1       1.891   4.276  21.039  0.00  0.00    +0.000 A 
ATOM      5  C   UNL     1       1.554   5.623  21.039  0.00  0.00    +0.000 A 
ATOM      6  C   UNL     1       2.000   6.494  20.022  0.00  0.00    +0.000 A 
ATOM      7  C   UNL     1       1.726   7.892  19.954  0.00  0.00    +0.000 A 
ATOM      8  C   UNL     1       2.199   8.677  18.898  0.00  0.00    +0.000 A 
ATOM      9  C   UNL     1       2.925   8.081  17.878  0.00  0.00    +0.000 A 
ATOM     10  C   UNL     1       3.198   6.713  17.939  0.00  0.00    +0.000 A 
ATOM     11  C   UNL     1       2.777   5.900  19.006  0.00  0.00    +0.000 A 
ATOM     12  N   UNL     1       3.120   4.589  19.036  0.00  0.00    +0.000 NA
ATOM     13  H   UNL     1       2.315   1.850  20.199  0.00  0.00    +0.000 HD
ENDROOT
BRANCH   7  14
ATOM     14  S   UNL     1       0.785   8.717  21.236  0.00  0.00    +0.000 S 
ATOM     15  O   UNL     1      -0.511   8.080  21.245  0.00  0.00    +0.000 OA
ATOM     16  O   UNL     1       1.607   8.738  22.430  0.00  0.00    +0.000 OA
BRANCH  14  17
ATOM     17  N   UNL     1       0.698  10.281  20.662  0.00  0.00    +0.000 N 
ATOM     18  C   UNL     1       1.348  11.412  21.356  0.00  0.00    +0.000 C 
ATOM     19  C   UNL     1       0.950  12.667  20.553  0.00  0.00    +0.000 C 
ATOM     20  C   UNL     1      -0.040  12.143  19.556  0.00  0.00    +0.000 A 
ATOM     21  C   UNL     1      -0.694  12.832  18.547  0.00  0.00    +0.000 A 
ATOM     22 CL   UNL     1      -0.434  14.514  18.299  0.00  0.00    +0.000 Cl
ATOM     23  C   UNL     1      -1.552  12.135  17.693  0.00  0.00    +0.000 A 
ATOM     24  C   UNL     1      -1.764  10.762  17.873  0.00  0.00    +0.000 A 
ATOM     25  C   UNL     1      -1.099  10.072  18.888  0.00  0.00    +0.000 A 
ATOM     26  C   UNL     1      -0.228  10.770  19.708  0.00  0.00    +0.000 A 
ENDBRANCH  14  17
ENDBRANCH   7  14
BRANCH  10  27
ATOM     27  O   UNL     1       3.905   6.141  16.906  0.00  0.00    +0.000 OA
ATOM     28  H   UNL     1       3.536   6.426  16.057  0.00  0.00    +0.000 HD
ENDBRANCH  10  27
TORSDOF 3
ENDMDL
MODEL 7
REMARK VINA RESULT:      -7.5      7.759     10.266
REMARK  Name = 
REMARK  4 active torsions:
REMARK  status: ('A' for Active; 'I' for Inactive)
REMARK    1  A    between atoms: C_1  and  N_2
REMARK    2  A    between atoms: C_7  and  S_8
REMARK    3  A    between atoms: S_8  and  N_11
REMARK    4  A    between atoms: C_23  and  O_24
REMARK                            x       y       z     vdW  Elec       q    Type
REMARK                         _______ _______ _______ _____ _____    ______ ____
ROOT
ATOM      1  C   UNL     1       2.077   8.780  17.600  0.00  0.00    +0.000 C 
ATOM      2  N   UNL     1       1.889  10.216  17.681  0.00  0.00    +0.000 N 
ATOM      3  C   UNL     1       1.280  10.662  18.864  0.00  0.00    +0.000 A 
ATOM      4  C   UNL     1       0.995  12.008  18.968  0.00  0.00    +0.000 A 
ATOM      5  C   UNL     1       0.288  12.461  20.074  0.00  0.00    +0.000 A 
ATOM      6  C   UNL     1      -0.117  11.580  21.100  0.00  0.00    +0.000 A 
ATOM      7  C   UNL     1      -0.866  11.949  22.257  0.00  0.00    +0.000 A 
ATOM      8  C   UNL     1      -1.211  11.009  23.233  0.00  0.00    +0.000 A 
ATOM      9  C   UNL     1      -0.793   9.694  23.091  0.00  0.00    +0.000 A 
ATOM     10  C   UNL     1      -0.060   9.327  21.960  0.00  0.00    +0.000 A 
ATOM     11  C   UNL     1       0.268  10.233  20.938  0.00  0.00    +0.000 A 
ATOM     12  N   UNL     1       0.934   9.803  19.838  0.00  0.00    +0.000 NA
ATOM     13  H   UNL     1       2.746  10.736  17.524  0.00  0.00    +0.000 HD
ENDROOT
BRANCH   7  14
ATOM     14  S   UNL     1      -1.426  13.633  22.501  0.00  0.00    +0.000 S 
ATOM     15  O   UNL     1      -0.847  14.064  23.751  0.00  0.00    +0.000 OA
ATOM     16  O   UNL     1      -1.162  14.359  21.274  0.00  0.00    +0.000 OA
BRANCH  14  17
ATOM     17  N   UNL     1      -3.079  13.442  22.623  0.00  0.00    +0.000 N 
ATOM     18  C   UNL     1      -3.783  13.488  23.921  0.00  0.00    +0.000 C 
ATOM     19  C   UNL     1      -5.260  13.182  23.596  0.00  0.00    +0.000 C 
ATOM     20  C   UNL     1      -5.228  12.821  22.141  0.00  0.00    +0.000 A 
ATOM     21  C   UNL     1      -6.289  12.497  21.310  0.00  0.00    +0.000 A 
ATOM     22 CL   UNL     1      -7.905  12.456  21.898  0.00  0.00    +0.000 Cl
ATOM     23  C   UNL     1      -6.041  12.234  19.961  0.00  0.00    +0.000 A 
ATOM     24  C   UNL     1      -4.733  12.276  19.464  0.00  0.00    +0.000 A 
ATOM     25  C   UNL     1      -3.668  12.610  20.303  0.00  0.00    +0.000 A 
ATOM     26  C   UNL     1      -3.933  12.897  21.632  0.00  0.00    +0.000 A 
ENDBRANCH  14  17
ENDBRANCH   7  14
BRANCH  10  27
ATOM     27  O   UNL     1       0.360   8.020  21.851  0.00  0.00    +0.000 OA
ATOM     28  H   UNL     1      -0.347   7.422  22.135  0.00  0.00    +0.000 HD
ENDBRANCH  10  27
TORSDOF 3
ENDMDL
MODEL 8
REMARK VINA RESULT:      -7.4      4.944      7.047
REMARK  Name = 
REMARK  4 active torsions:
REMARK  status: ('A' for Active; 'I' for Inactive)
REMARK    1  A    between atoms: C_1  and  N_2
REMARK    2  A    between atoms: C_7  and  S_8
REMARK    3  A    between atoms: S_8  and  N_11
REMARK    4  A    between atoms: C_23  and  O_24
REMARK                            x       y       z     vdW  Elec       q    Type
REMARK                         _______ _______ _______ _____ _____    ______ ____
ROOT
ATOM      1  C   UNL     1       4.375   4.101  17.434  0.00  0.00    +0.000 C 
ATOM      2  N   UNL     1       4.366   5.448  16.894  0.00  0.00    +0.000 N 
ATOM      3  C   UNL     1       3.664   6.386  17.668  0.00  0.00    +0.000 A 
ATOM      4  C   UNL     1       3.544   7.666  17.168  0.00  0.00    +0.000 A 
ATOM      5  C   UNL     1       2.758   8.583  17.852  0.00  0.00    +0.000 A 
ATOM      6  C   UNL     1       2.107   8.240  19.057  0.00  0.00    +0.000 A 
ATOM      7  C   UNL     1       1.261   9.105  19.813  0.00  0.00    +0.000 A 
ATOM      8  C   UNL     1       0.666   8.683  21.007  0.00  0.00    +0.000 A 
ATOM      9  C   UNL     1       0.927   7.407  21.484  0.00  0.00    +0.000 A 
ATOM     10  C   UNL     1       1.753   6.556  20.747  0.00  0.00    +0.000 A 
ATOM     11  C   UNL     1       2.332   6.928  19.522  0.00  0.00    +0.000 A 
ATOM     12  N   UNL     1       3.080   6.037  18.827  0.00  0.00    +0.000 NA
ATOM     13  H   UNL     1       5.296   5.800  16.696  0.00  0.00    +0.000 HD
ENDROOT
BRANCH   7  14
ATOM     14  S   UNL     1       0.896  10.767  19.253  0.00  0.00    +0.000 S 
ATOM     15  O   UNL     1       0.952  11.601  20.431  0.00  0.00    +0.000 OA
ATOM     16  O   UNL     1       1.749  11.038  18.113  0.00  0.00    +0.000 OA
BRANCH  14  17
ATOM     17  N   UNL     1      -0.665  10.614  18.683  0.00  0.00    +0.000 N 
ATOM     18  C   UNL     1      -0.988   9.832  17.472  0.00  0.00    +0.000 C 
ATOM     19  C   UNL     1      -2.503  10.023  17.253  0.00  0.00    +0.000 C 
ATOM     20  C   UNL     1      -2.876  11.047  18.284  0.00  0.00    +0.000 A 
ATOM     21  C   UNL     1      -4.130  11.565  18.569  0.00  0.00    +0.000 A 
ATOM     22 CL   UNL     1      -5.524  11.062  17.697  0.00  0.00    +0.000 Cl
ATOM     23  C   UNL     1      -4.264  12.486  19.610  0.00  0.00    +0.000 A 
ATOM     24  C   UNL     1      -3.140  12.897  20.338  0.00  0.00    +0.000 A 
ATOM     25  C   UNL     1      -1.881  12.367  20.050  0.00  0.00    +0.000 A 
ATOM     26  C   UNL     1      -1.768  11.432  19.035  0.00  0.00    +0.000 A 
ENDBRANCH  14  17
ENDBRANCH   7  14
BRANCH  10  27
ATOM     27  O   UNL     1       2.010   5.300  21.251  0.00  0.00    +0.000 OA
ATOM     28  H   UNL     1       2.967   5.153  21.294  0.00  0.00    +0.000 HD
ENDBRANCH  10  27
TORSDOF 3
ENDMDL
MODEL 9
REMARK VINA RESULT:      -7.4      6.573      9.058
REMARK  Name = 
REMARK  4 active torsions:
REMARK  status: ('A' for Active; 'I' for Inactive)
REMARK    1  A    between atoms: C_1  and  N_2
REMARK    2  A    between atoms: C_7  and  S_8
REMARK    3  A    between atoms: S_8  and  N_11
REMARK    4  A    between atoms: C_23  and  O_24
REMARK                            x       y       z     vdW  Elec       q    Type
REMARK                         _______ _______ _______ _____ _____    ______ ____
ROOT
ATOM      1  C   UNL     1       3.005   6.036  19.141  0.00  0.00    +0.000 C 
ATOM      2  N   UNL     1       2.686   7.057  18.160  0.00  0.00    +0.000 N 
ATOM      3  C   UNL     1       2.056   8.196  18.683  0.00  0.00    +0.000 A 
ATOM      4  C   UNL     1       1.649   9.168  17.792  0.00  0.00    +0.000 A 
ATOM      5  C   UNL     1       0.920  10.250  18.266  0.00  0.00    +0.000 A 
ATOM      6  C   UNL     1       0.615  10.389  19.637  0.00  0.00    +0.000 A 
ATOM      7  C   UNL     1      -0.147  11.449  20.209  0.00  0.00    +0.000 A 
ATOM      8  C   UNL     1      -0.390  11.514  21.586  0.00  0.00    +0.000 A 
ATOM      9  C   UNL     1       0.147  10.542  22.418  0.00  0.00    +0.000 A 
ATOM     10  C   UNL     1       0.893   9.501  21.863  0.00  0.00    +0.000 A 
ATOM     11  C   UNL     1       1.120   9.379  20.481  0.00  0.00    +0.000 A 
ATOM     12  N   UNL     1       1.806   8.314  19.998  0.00  0.00    +0.000 NA
ATOM     13  H   UNL     1       3.489   7.336  17.606  0.00  0.00    +0.000 HD
ENDROOT
BRANCH   7  14
ATOM     14  S   UNL     1      -0.858  12.738  19.188  0.00  0.00    +0.000 S 
ATOM     15  O   UNL     1      -1.028  13.880  20.055  0.00  0.00    +0.000 OA
ATOM     16  O   UNL     1      -0.050  12.834  17.988  0.00  0.00    +0.000 OA
BRANCH  14  17
ATOM     17  N   UNL     1      -2.325  12.075  18.750  0.00  0.00    +0.000 N 
ATOM     18  C   UNL     1      -2.564  11.508  17.407  0.00  0.00    +0.000 C 
ATOM     19  C   UNL     1      -4.050  11.093  17.396  0.00  0.00    +0.000 C 
ATOM     20  C   UNL     1      -4.568  11.623  18.700  0.00  0.00    +0.000 A 
ATOM     21  C   UNL     1      -5.840  11.499  19.236  0.00  0.00    +0.000 A 
ATOM     22 CL   UNL     1      -7.085  10.660  18.397  0.00  0.00    +0.000 Cl
ATOM     23  C   UNL     1      -6.101  12.036  20.498  0.00  0.00    +0.000 A 
ATOM     24  C   UNL     1      -5.094  12.710  21.200  0.00  0.00    +0.000 A 
ATOM     25  C   UNL     1      -3.813  12.828  20.658  0.00  0.00    +0.000 A 
ATOM     26  C   UNL     1      -3.560  12.264  19.418  0.00  0.00    +0.000 A 
ENDBRANCH  14  17
ENDBRANCH   7  14
BRANCH  10  27
ATOM     27  O   UNL     1       1.430   8.559  22.711  0.00  0.00    +0.000 OA
ATOM     28  H   UNL     1       2.134   8.071  22.259  0.00  0.00    +0.000 HD
ENDBRANCH  10  27
TORSDOF 3
ENDMDL
