MODEL 1
REMARK VINA RESULT:      -7.2      0.000      0.000
REMARK  Name = 
REMARK  3 active torsions:
REMARK  status: ('A' for Active; 'I' for Inactive)
REMARK    1  A    between atoms: C_2  and  C_4
REMARK    2  A    between atoms: C_4  and  C_5
REMARK    3  A    between atoms: C_5  and  C_6
REMARK                            x       y       z     vdW  Elec       q    Type
REMARK                         _______ _______ _______ _____ _____    ______ ____
ROOT
ATOM      1  C   UNL     1       5.275   4.406  15.858  0.00  0.00    +0.000 A 
ATOM      2  N   UNL     1       4.897   3.271  16.360  0.00  0.00    +0.000 NA
ATOM      3  C   UNL     1       4.043   3.376  17.414  0.00  0.00    +0.000 A 
ATOM      4  S   UNL     1       3.379   1.985  18.192  0.00  0.00    +0.000 S 
ATOM      5  C   UNL     1       2.534   2.958  19.261  0.00  0.00    +0.000 A 
ATOM      6  C   UNL     1       2.724   4.298  19.069  0.00  0.00    +0.000 A 
ATOM      7  C   UNL     1       3.591   4.554  17.990  0.00  0.00    +0.000 A 
ATOM      8  C   UNL     1       4.049   5.800  17.427  0.00  0.00    +0.000 A 
ATOM      9  O   UNL     1       3.748   6.908  17.856  0.00  0.00    +0.000 OA
ATOM     10  N   UNL     1       4.876   5.638  16.338  0.00  0.00    +0.000 N 
ATOM     11  C   UNL     1       1.950   5.101  20.046  0.00  0.00    +0.000 C 
ATOM     12  C   UNL     1       1.540   4.021  21.099  0.00  0.00    +0.000 C 
ATOM     13  C   UNL     1       1.616   2.637  20.378  0.00  0.00    +0.000 C 
ATOM     14  H   UNL     1       5.186   6.496  15.910  0.00  0.00    +0.000 HD
ENDROOT
BRANCH   1  15
ATOM     15  C   UNL     1       6.207   4.447  14.669  0.00  0.00    +0.000 C 
BRANCH  15  16
ATOM     16  C   UNL     1       5.526   3.933  13.406  0.00  0.00    +0.000 C 
BRANCH  16  18
ATOM     17  N   UNL     1       6.472   2.298  11.903  0.00  0.00    +0.000 N 
ATOM     18  C   UNL     1       6.532   3.589  12.333  0.00  0.00    +0.000 C 
ATOM     19  O   UNL     1       7.357   4.370  11.878  0.00  0.00    +0.000 OA
ATOM     20  H   UNL     1       7.121   2.012  11.179  0.00  0.00    +0.000 HD
ATOM     21  H   UNL     1       5.807   1.621  12.250  0.00  0.00    +0.000 HD
ENDBRANCH  16  18
ENDBRANCH  15  16
ENDBRANCH   1  15
TORSDOF 3
ENDMDL
MODEL 2
REMARK VINA RESULT:      -7.1      1.039      1.042
REMARK  Name = 
REMARK  3 active torsions:
REMARK  status: ('A' for Active; 'I' for Inactive)
REMARK    1  A    between atoms: C_2  and  C_4
REMARK    2  A    between atoms: C_4  and  C_5
REMARK    3  A    between atoms: C_5  and  C_6
REMARK                            x       y       z     vdW  Elec       q    Type
REMARK                         _______ _______ _______ _____ _____    ______ ____
ROOT
ATOM      1  C   UNL     1       5.269   4.909  16.165  0.00  0.00    +0.000 A 
ATOM      2  N   UNL     1       4.983   3.692  16.513  0.00  0.00    +0.000 NA
ATOM      3  C   UNL     1       4.045   3.592  17.494  0.00  0.00    +0.000 A 
ATOM      4  S   UNL     1       3.481   2.062  18.062  0.00  0.00    +0.000 S 
ATOM      5  C   UNL     1       2.455   2.818  19.148  0.00  0.00    +0.000 A 
ATOM      6  C   UNL     1       2.510   4.183  19.113  0.00  0.00    +0.000 A 
ATOM      7  C   UNL     1       3.423   4.645  18.146  0.00  0.00    +0.000 A 
ATOM      8  C   UNL     1       3.781   5.986  17.757  0.00  0.00    +0.000 A 
ATOM      9  O   UNL     1       3.328   7.003  18.271  0.00  0.00    +0.000 OA
ATOM     10  N   UNL     1       4.701   6.033  16.733  0.00  0.00    +0.000 N 
ATOM     11  C   UNL     1       1.580   4.788  20.096  0.00  0.00    +0.000 C 
ATOM     12  C   UNL     1       1.213   3.562  20.992  0.00  0.00    +0.000 C 
ATOM     13  C   UNL     1       1.495   2.282  20.142  0.00  0.00    +0.000 C 
ATOM     14  H   UNL     1       4.946   6.960  16.426  0.00  0.00    +0.000 HD
ENDROOT
BRANCH   1  15
ATOM     15  C   UNL     1       6.279   5.177  15.074  0.00  0.00    +0.000 C 
BRANCH  15  16
ATOM     16  C   UNL     1       6.229   4.107  13.990  0.00  0.00    +0.000 C 
BRANCH  16  18
ATOM     17  N   UNL     1       7.946   5.517  13.044  0.00  0.00    +0.000 N 
ATOM     18  C   UNL     1       7.119   4.457  12.821  0.00  0.00    +0.000 C 
ATOM     19  O   UNL     1       7.113   3.876  11.744  0.00  0.00    +0.000 OA
ATOM     20  H   UNL     1       8.570   5.793  12.296  0.00  0.00    +0.000 HD
ATOM     21  H   UNL     1       7.984   6.024  13.918  0.00  0.00    +0.000 HD
ENDBRANCH  16  18
ENDBRANCH  15  16
ENDBRANCH   1  15
TORSDOF 3
ENDMDL
MODEL 3
REMARK VINA RESULT:      -7.1      2.048      2.370
REMARK  Name = 
REMARK  3 active torsions:
REMARK  status: ('A' for Active; 'I' for Inactive)
REMARK    1  A    between atoms: C_2  and  C_4
REMARK    2  A    between atoms: C_4  and  C_5
REMARK    3  A    between atoms: C_5  and  C_6
REMARK                            x       y       z     vdW  Elec       q    Type
REMARK                         _______ _______ _______ _____ _____    ______ ____
ROOT
ATOM      1  C   UNL     1       4.712   4.870  16.170  0.00  0.00    +0.000 A 
ATOM      2  N   UNL     1       4.492   3.646  16.540  0.00  0.00    +0.000 NA
ATOM      3  C   UNL     1       3.737   3.524  17.666  0.00  0.00    +0.000 A 
ATOM      4  S   UNL     1       3.283   1.981  18.295  0.00  0.00    +0.000 S 
ATOM      5  C   UNL     1       2.457   2.714  19.554  0.00  0.00    +0.000 A 
ATOM      6  C   UNL     1       2.502   4.080  19.534  0.00  0.00    +0.000 A 
ATOM      7  C   UNL     1       3.234   4.563  18.434  0.00  0.00    +0.000 A 
ATOM      8  C   UNL     1       3.517   5.912  18.012  0.00  0.00    +0.000 A 
ATOM      9  O   UNL     1       3.157   6.917  18.614  0.00  0.00    +0.000 OA
ATOM     10  N   UNL     1       4.247   5.981  16.847  0.00  0.00    +0.000 N 
ATOM     11  C   UNL     1       1.753   4.663  20.674  0.00  0.00    +0.000 C 
ATOM     12  C   UNL     1       1.549   3.419  21.597  0.00  0.00    +0.000 C 
ATOM     13  C   UNL     1       1.684   2.156  20.689  0.00  0.00    +0.000 C 
ATOM     14  H   UNL     1       4.434   6.915  16.518  0.00  0.00    +0.000 HD
ENDROOT
BRANCH   1  15
ATOM     15  C   UNL     1       5.519   5.163  14.927  0.00  0.00    +0.000 C 
BRANCH  15  16
ATOM     16  C   UNL     1       6.956   4.672  15.064  0.00  0.00    +0.000 C 
BRANCH  16  18
ATOM     17  N   UNL     1       7.622   6.458  16.545  0.00  0.00    +0.000 N 
ATOM     18  C   UNL     1       7.569   5.107  16.373  0.00  0.00    +0.000 C 
ATOM     19  O   UNL     1       8.010   4.344  17.222  0.00  0.00    +0.000 OA
ATOM     20  H   UNL     1       8.019   6.807  17.409  0.00  0.00    +0.000 HD
ATOM     21  H   UNL     1       7.269   7.123  15.871  0.00  0.00    +0.000 HD
ENDBRANCH  16  18
ENDBRANCH  15  16
ENDBRANCH   1  15
TORSDOF 3
ENDMDL
MODEL 4
REMARK VINA RESULT:      -7.1      1.868      2.502
REMARK  Name = 
REMARK  3 active torsions:
REMARK  status: ('A' for Active; 'I' for Inactive)
REMARK    1  A    between atoms: C_2  and  C_4
REMARK    2  A    between atoms: C_4  and  C_5
REMARK    3  A    between atoms: C_5  and  C_6
REMARK                            x       y       z     vdW  Elec       q    Type
REMARK                         _______ _______ _______ _____ _____    ______ ____
ROOT
ATOM      1  C   UNL     1       5.411   4.400  15.903  0.00  0.00    +0.000 A 
ATOM      2  N   UNL     1       5.002   5.614  16.106  0.00  0.00    +0.000 NA
ATOM      3  C   UNL     1       4.232   5.771  17.218  0.00  0.00    +0.000 A 
ATOM      4  S   UNL     1       3.632   7.317  17.700  0.00  0.00    +0.000 S 
ATOM      5  C   UNL     1       2.872   6.633  19.026  0.00  0.00    +0.000 A 
ATOM      6  C   UNL     1       3.042   5.281  19.134  0.00  0.00    +0.000 A 
ATOM      7  C   UNL     1       3.842   4.770  18.094  0.00  0.00    +0.000 A 
ATOM      8  C   UNL     1       4.291   3.426  17.827  0.00  0.00    +0.000 A 
ATOM      9  O   UNL     1       3.996   2.448  18.505  0.00  0.00    +0.000 OA
ATOM     10  N   UNL     1       5.099   3.329  16.717  0.00  0.00    +0.000 N 
ATOM     11  C   UNL     1       2.345   4.741  20.326  0.00  0.00    +0.000 C 
ATOM     12  C   UNL     1       1.419   5.933  20.727  0.00  0.00    +0.000 C 
ATOM     13  C   UNL     1       2.048   7.221  20.108  0.00  0.00    +0.000 C 
ATOM     14  H   UNL     1       5.447   2.403  16.527  0.00  0.00    +0.000 HD
ENDROOT
BRANCH   1  15
ATOM     15  C   UNL     1       6.291   4.076  14.718  0.00  0.00    +0.000 C 
BRANCH  15  16
ATOM     16  C   UNL     1       5.465   3.833  13.459  0.00  0.00    +0.000 C 
BRANCH  16  18
ATOM     17  N   UNL     1       6.058   2.162  11.820  0.00  0.00    +0.000 N 
ATOM     18  C   UNL     1       6.333   3.408  12.299  0.00  0.00    +0.000 C 
ATOM     19  O   UNL     1       7.230   4.087  11.815  0.00  0.00    +0.000 OA
ATOM     20  H   UNL     1       6.606   1.827  11.037  0.00  0.00    +0.000 HD
ATOM     21  H   UNL     1       5.327   1.569  12.188  0.00  0.00    +0.000 HD
ENDBRANCH  16  18
ENDBRANCH  15  16
ENDBRANCH   1  15
TORSDOF 3
ENDMDL
MODEL 5
REMARK VINA RESULT:      -7.0      1.748      1.791
REMARK  Name = 
REMARK  3 active torsions:
REMARK  status: ('A' for Active; 'I' for Inactive)
REMARK    1  A    between atoms: C_2  and  C_4
REMARK    2  A    between atoms: C_4  and  C_5
REMARK    3  A    between atoms: C_5  and  C_6
REMARK                            x       y       z     vdW  Elec       q    Type
REMARK                         _______ _______ _______ _____ _____    ______ ____
ROOT
ATOM      1  C   UNL     1       5.932   4.522  16.540  0.00  0.00    +0.000 A 
ATOM      2  N   UNL     1       4.754   4.048  16.275  0.00  0.00    +0.000 NA
ATOM      3  C   UNL     1       3.937   3.928  17.358  0.00  0.00    +0.000 A 
ATOM      4  S   UNL     1       2.310   3.369  17.214  0.00  0.00    +0.000 S 
ATOM      5  C   UNL     1       2.087   3.526  18.866  0.00  0.00    +0.000 A 
ATOM      6  C   UNL     1       3.186   3.982  19.539  0.00  0.00    +0.000 A 
ATOM      7  C   UNL     1       4.265   4.231  18.670  0.00  0.00    +0.000 A 
ATOM      8  C   UNL     1       5.590   4.731  18.937  0.00  0.00    +0.000 A 
ATOM      9  O   UNL     1       6.016   5.010  20.053  0.00  0.00    +0.000 OA
ATOM     10  N   UNL     1       6.361   4.873  17.805  0.00  0.00    +0.000 N 
ATOM     11  C   UNL     1       2.921   4.097  20.994  0.00  0.00    +0.000 C 
ATOM     12  C   UNL     1       1.592   3.290  21.145  0.00  0.00    +0.000 C 
ATOM     13  C   UNL     1       0.918   3.263  19.737  0.00  0.00    +0.000 C 
ATOM     14  H   UNL     1       7.283   5.248  17.964  0.00  0.00    +0.000 HD
ENDROOT
BRANCH   1  15
ATOM     15  C   UNL     1       6.942   4.730  15.435  0.00  0.00    +0.000 C 
BRANCH  15  16
ATOM     16  C   UNL     1       6.448   4.156  14.112  0.00  0.00    +0.000 C 
BRANCH  16  18
ATOM     17  N   UNL     1       8.126   5.665  13.255  0.00  0.00    +0.000 N 
ATOM     18  C   UNL     1       7.284   4.638  12.950  0.00  0.00    +0.000 C 
ATOM     19  O   UNL     1       7.225   4.184  11.815  0.00  0.00    +0.000 OA
ATOM     20  H   UNL     1       8.716   6.026  12.514  0.00  0.00    +0.000 HD
ATOM     21  H   UNL     1       8.207   6.069  14.178  0.00  0.00    +0.000 HD
ENDBRANCH  16  18
ENDBRANCH  15  16
ENDBRANCH   1  15
TORSDOF 3
ENDMDL
MODEL 6
REMARK VINA RESULT:      -6.9      3.245      4.454
REMARK  Name = 
REMARK  3 active torsions:
REMARK  status: ('A' for Active; 'I' for Inactive)
REMARK    1  A    between atoms: C_2  and  C_4
REMARK    2  A    between atoms: C_4  and  C_5
REMARK    3  A    between atoms: C_5  and  C_6
REMARK                            x       y       z     vdW  Elec       q    Type
REMARK                         _______ _______ _______ _____ _____    ______ ____
ROOT
ATOM      1  C   UNL     1       3.987   4.920  17.977  0.00  0.00    +0.000 A 
ATOM      2  N   UNL     1       3.694   6.075  17.464  0.00  0.00    +0.000 NA
ATOM      3  C   UNL     1       2.954   6.881  18.273  0.00  0.00    +0.000 A 
ATOM      4  S   UNL     1       2.505   8.480  17.802  0.00  0.00    +0.000 S 
ATOM      5  C   UNL     1       1.698   8.705  19.252  0.00  0.00    +0.000 A 
ATOM      6  C   UNL     1       1.744   7.627  20.091  0.00  0.00    +0.000 A 
ATOM      7  C   UNL     1       2.481   6.564  19.537  0.00  0.00    +0.000 A 
ATOM      8  C   UNL     1       2.801   5.263  20.071  0.00  0.00    +0.000 A 
ATOM      9  O   UNL     1       2.423   4.848  21.161  0.00  0.00    +0.000 OA
ATOM     10  N   UNL     1       3.585   4.504  19.232  0.00  0.00    +0.000 N 
ATOM     11  C   UNL     1       1.012   7.892  21.354  0.00  0.00    +0.000 C 
ATOM     12  C   UNL     1       0.204   9.180  20.995  0.00  0.00    +0.000 C 
ATOM     13  C   UNL     1       0.944   9.858  19.798  0.00  0.00    +0.000 C 
ATOM     14  H   UNL     1       3.844   3.601  19.596  0.00  0.00    +0.000 HD
ENDROOT
BRANCH   1  15
ATOM     15  C   UNL     1       4.820   3.925  17.203  0.00  0.00    +0.000 C 
BRANCH  15  16
ATOM     16  C   UNL     1       5.565   4.594  16.054  0.00  0.00    +0.000 C 
BRANCH  16  18
ATOM     17  N   UNL     1       6.968   6.484  16.592  0.00  0.00    +0.000 N 
ATOM     18  C   UNL     1       6.908   5.126  16.496  0.00  0.00    +0.000 C 
ATOM     19  O   UNL     1       7.886   4.431  16.736  0.00  0.00    +0.000 OA
ATOM     20  H   UNL     1       7.844   6.896  16.890  0.00  0.00    +0.000 HD
ATOM     21  H   UNL     1       6.185   7.095  16.404  0.00  0.00    +0.000 HD
ENDBRANCH  16  18
ENDBRANCH  15  16
ENDBRANCH   1  15
TORSDOF 3
ENDMDL
MODEL 7
REMARK VINA RESULT:      -6.9      2.347      2.991
REMARK  Name = 
REMARK  3 active torsions:
REMARK  status: ('A' for Active; 'I' for Inactive)
REMARK    1  A    between atoms: C_2  and  C_4
REMARK    2  A    between atoms: C_4  and  C_5
REMARK    3  A    between atoms: C_5  and  C_6
REMARK                            x       y       z     vdW  Elec       q    Type
REMARK                         _______ _______ _______ _____ _____    ______ ____
ROOT
ATOM      1  C   UNL     1       5.010   4.021  16.523  0.00  0.00    +0.000 A 
ATOM      2  N   UNL     1       4.700   5.281  16.523  0.00  0.00    +0.000 NA
ATOM      3  C   UNL     1       3.934   5.674  17.577  0.00  0.00    +0.000 A 
ATOM      4  S   UNL     1       3.459   7.319  17.795  0.00  0.00    +0.000 S 
ATOM      5  C   UNL     1       2.630   6.918  19.194  0.00  0.00    +0.000 A 
ATOM      6  C   UNL     1       2.687   5.591  19.517  0.00  0.00    +0.000 A 
ATOM      7  C   UNL     1       3.452   4.859  18.591  0.00  0.00    +0.000 A 
ATOM      8  C   UNL     1       3.791   3.458  18.549  0.00  0.00    +0.000 A 
ATOM      9  O   UNL     1       3.409   2.627  19.365  0.00  0.00    +0.000 OA
ATOM     10  N   UNL     1       4.601   3.121  17.488  0.00  0.00    +0.000 N 
ATOM     11  C   UNL     1       1.934   5.304  20.763  0.00  0.00    +0.000 C 
ATOM     12  C   UNL     1       1.105   6.616  20.949  0.00  0.00    +0.000 C 
ATOM     13  C   UNL     1       1.846   7.735  20.150  0.00  0.00    +0.000 C 
ATOM     14  H   UNL     1       4.873   2.152  17.454  0.00  0.00    +0.000 HD
ENDROOT
BRANCH   1  15
ATOM     15  C   UNL     1       5.872   3.443  15.425  0.00  0.00    +0.000 C 
BRANCH  15  16
ATOM     16  C   UNL     1       5.894   4.346  14.197  0.00  0.00    +0.000 C 
BRANCH  16  18
ATOM     17  N   UNL     1       7.603   5.630  15.321  0.00  0.00    +0.000 N 
ATOM     18  C   UNL     1       7.171   5.150  14.121  0.00  0.00    +0.000 C 
ATOM     19  O   UNL     1       7.782   5.387  13.088  0.00  0.00    +0.000 OA
ATOM     20  H   UNL     1       8.458   6.172  15.330  0.00  0.00    +0.000 HD
ATOM     21  H   UNL     1       7.130   5.457  16.197  0.00  0.00    +0.000 HD
ENDBRANCH  16  18
ENDBRANCH  15  16
ENDBRANCH   1  15
TORSDOF 3
ENDMDL
MODEL 8
REMARK VINA RESULT:      -6.7      2.988      4.178
REMARK  Name = 
REMARK  3 active torsions:
REMARK  status: ('A' for Active; 'I' for Inactive)
REMARK    1  A    between atoms: C_2  and  C_4
REMARK    2  A    between atoms: C_4  and  C_5
REMARK    3  A    between atoms: C_5  and  C_6
REMARK                            x       y       z     vdW  Elec       q    Type
REMARK                         _______ _______ _______ _____ _____    ______ ____
ROOT
ATOM      1  C   UNL     1       5.631   6.146  17.570  0.00  0.00    +0.000 A 
ATOM      2  N   UNL     1       4.752   6.462  18.470  0.00  0.00    +0.000 NA
ATOM      3  C   UNL     1       3.795   5.517  18.680  0.00  0.00    +0.000 A 
ATOM      4  S   UNL     1       2.563   5.716  19.874  0.00  0.00    +0.000 S 
ATOM      5  C   UNL     1       1.905   4.230  19.474  0.00  0.00    +0.000 A 
ATOM      6  C   UNL     1       2.566   3.574  18.473  0.00  0.00    +0.000 A 
ATOM      7  C   UNL     1       3.674   4.308  18.012  0.00  0.00    +0.000 A 
ATOM      8  C   UNL     1       4.652   3.996  16.999  0.00  0.00    +0.000 A 
ATOM      9  O   UNL     1       4.644   2.978  16.317  0.00  0.00    +0.000 OA
ATOM     10  N   UNL     1       5.620   4.965  16.855  0.00  0.00    +0.000 N 
ATOM     11  C   UNL     1       1.932   2.268  18.170  0.00  0.00    +0.000 C 
ATOM     12  C   UNL     1       0.558   2.398  18.902  0.00  0.00    +0.000 C 
ATOM     13  C   UNL     1       0.736   3.489  20.005  0.00  0.00    +0.000 C 
ATOM     14  H   UNL     1       6.330   4.755  16.171  0.00  0.00    +0.000 HD
ENDROOT
BRANCH   1  15
ATOM     15  C   UNL     1       6.766   7.089  17.243  0.00  0.00    +0.000 C 
BRANCH  15  16
ATOM     16  C   UNL     1       7.882   7.001  18.277  0.00  0.00    +0.000 C 
BRANCH  16  18
ATOM     17  N   UNL     1       8.031   5.508  20.169  0.00  0.00    +0.000 N 
ATOM     18  C   UNL     1       8.038   5.596  18.809  0.00  0.00    +0.000 C 
ATOM     19  O   UNL     1       8.181   4.600  18.113  0.00  0.00    +0.000 OA
ATOM     20  H   UNL     1       8.127   4.588  20.582  0.00  0.00    +0.000 HD
ATOM     21  H   UNL     1       7.915   6.304  20.782  0.00  0.00    +0.000 HD
ENDBRANCH  16  18
ENDBRANCH  15  16
ENDBRANCH   1  15
TORSDOF 3
ENDMDL
MODEL 9
REMARK VINA RESULT:      -6.7      3.614      4.308
REMARK  Name = 
REMARK  3 active torsions:
REMARK  status: ('A' for Active; 'I' for Inactive)
REMARK    1  A    between atoms: C_2  and  C_4
REMARK    2  A    between atoms: C_4  and  C_5
REMARK    3  A    between atoms: C_5  and  C_6
REMARK                            x       y       z     vdW  Elec       q    Type
REMARK                         _______ _______ _______ _____ _____    ______ ____
ROOT
ATOM      1  C   UNL     1       6.385   5.750  18.560  0.00  0.00    +0.000 A 
ATOM      2  N   UNL     1       6.223   4.602  19.140  0.00  0.00    +0.000 NA
ATOM      3  C   UNL     1       4.962   4.097  19.051  0.00  0.00    +0.000 A 
ATOM      4  S   UNL     1       4.548   2.555  19.707  0.00  0.00    +0.000 S 
ATOM      5  C   UNL     1       2.966   2.734  19.190  0.00  0.00    +0.000 A 
ATOM      6  C   UNL     1       2.719   3.910  18.539  0.00  0.00    +0.000 A 
ATOM      7  C   UNL     1       3.875   4.706  18.442  0.00  0.00    +0.000 A 
ATOM      8  C   UNL     1       4.080   5.995  17.828  0.00  0.00    +0.000 A 
ATOM      9  O   UNL     1       3.201   6.652  17.283  0.00  0.00    +0.000 OA
ATOM     10  N   UNL     1       5.380   6.441  17.910  0.00  0.00    +0.000 N 
ATOM     11  C   UNL     1       1.303   4.004  18.109  0.00  0.00    +0.000 C 
ATOM     12  C   UNL     1       0.640   2.849  18.926  0.00  0.00    +0.000 C 
ATOM     13  C   UNL     1       1.780   1.852  19.306  0.00  0.00    +0.000 C 
ATOM     14  H   UNL     1       5.553   7.327  17.464  0.00  0.00    +0.000 HD
ENDROOT
BRANCH   1  15
ATOM     15  C   UNL     1       7.737   6.426  18.560  0.00  0.00    +0.000 C 
BRANCH  15  16
ATOM     16  C   UNL     1       7.820   7.509  17.490  0.00  0.00    +0.000 C 
BRANCH  16  18
ATOM     17  N   UNL     1       8.952   8.760  19.217  0.00  0.00    +0.000 N 
ATOM     18  C   UNL     1       8.206   8.844  18.080  0.00  0.00    +0.000 C 
ATOM     19  O   UNL     1       7.879   9.929  17.617  0.00  0.00    +0.000 OA
ATOM     20  H   UNL     1       9.244   9.626  19.654  0.00  0.00    +0.000 HD
ATOM     21  H   UNL     1       9.244   7.886  19.632  0.00  0.00    +0.000 HD
ENDBRANCH  16  18
ENDBRANCH  15  16
ENDBRANCH   1  15
TORSDOF 3
ENDMDL
