MODEL 1
REMARK VINA RESULT:      -6.4      0.000      0.000
REMARK  Name = 
REMARK  10 active torsions:
REMARK  status: ('A' for Active; 'I' for Inactive)
REMARK    1  A    between atoms: C_1  and  C_2
REMARK    2  A    between atoms: C_5  and  C_6
REMARK    3  A    between atoms: C_6  and  C_7
REMARK    4  A    between atoms: C_7  and  C_8
REMARK    5  A    between atoms: C_7  and  N_9
REMARK    6  A    between atoms: N_9  and  C_10
REMARK    7  A    between atoms: N_9  and  C_11
REMARK    8  A    between atoms: C_11  and  C_12
REMARK    9  A    between atoms: C_12  and  S_13
REMARK   10  A    between atoms: S_13  and  C_14
REMARK                            x       y       z     vdW  Elec       q    Type
REMARK                         _______ _______ _______ _____ _____    ______ ____
ROOT
ATOM      1  C   UNL     1       2.912   4.737  17.971  0.00  0.00    +0.000 C 
ATOM      2  C   UNL     1       1.437   4.327  17.839  0.00  0.00    +0.000 C 
ENDROOT
BRANCH   1   3
ATOM      3  N   UNL     1       3.865   3.584  17.974  0.00  0.00    +0.000 NA
ATOM      4  C   UNL     1       3.195   2.274  17.995  0.00  0.00    +0.000 C 
BRANCH   3   5
ATOM      5  C   UNL     1       4.840   3.596  16.855  0.00  0.00    +0.000 C 
BRANCH   5   6
ATOM      6  C   UNL     1       5.899   4.685  16.973  0.00  0.00    +0.000 C 
BRANCH   6   7
ATOM      7  S   UNL     1       6.204   5.438  15.389  0.00  0.00    +0.000 S 
ATOM      8  C   UNL     1       5.597   4.206  14.261  0.00  0.00    +0.000 C 
ATOM      9  O   UNL     1       5.359   6.607  15.261  0.00  0.00    +0.000 OA
ATOM     10  O   UNL     1       7.640   5.527  15.201  0.00  0.00    +0.000 OA
ENDBRANCH   6   7
ENDBRANCH   5   6
ENDBRANCH   3   5
ENDBRANCH   1   3
BRANCH   1  11
ATOM     11  C   UNL     1       3.159   5.680  19.186  0.00  0.00    +0.000 C 
BRANCH  11  16
ATOM     12  C   UNL     1       0.542  10.894  18.799  0.00  0.00    +0.000 C 
ATOM     13  C   UNL     1       1.234   9.568  18.912  0.00  0.00    +0.000 A 
ATOM     14  C   UNL     1       1.937   9.033  17.830  0.00  0.00    +0.000 A 
ATOM     15  C   UNL     1       2.567   7.790  17.938  0.00  0.00    +0.000 A 
ATOM     16  C   UNL     1       2.520   7.056  19.132  0.00  0.00    +0.000 A 
ATOM     17  C   UNL     1       1.823   7.598  20.220  0.00  0.00    +0.000 A 
ATOM     18  C   UNL     1       1.195   8.846  20.112  0.00  0.00    +0.000 A 
ENDBRANCH  11  16
ENDBRANCH   1  11
TORSDOF 6
ENDMDL
MODEL 2
REMARK VINA RESULT:      -6.4      1.414      2.129
REMARK  Name = 
REMARK  10 active torsions:
REMARK  status: ('A' for Active; 'I' for Inactive)
REMARK    1  A    between atoms: C_1  and  C_2
REMARK    2  A    between atoms: C_5  and  C_6
REMARK    3  A    between atoms: C_6  and  C_7
REMARK    4  A    between atoms: C_7  and  C_8
REMARK    5  A    between atoms: C_7  and  N_9
REMARK    6  A    between atoms: N_9  and  C_10
REMARK    7  A    between atoms: N_9  and  C_11
REMARK    8  A    between atoms: C_11  and  C_12
REMARK    9  A    between atoms: C_12  and  S_13
REMARK   10  A    between atoms: S_13  and  C_14
REMARK                            x       y       z     vdW  Elec       q    Type
REMARK                         _______ _______ _______ _____ _____    ______ ____
ROOT
ATOM      1  C   UNL     1       2.446   4.699  19.278  0.00  0.00    +0.000 C 
ATOM      2  C   UNL     1       1.732   4.052  20.476  0.00  0.00    +0.000 C 
ENDROOT
BRANCH   1   3
ATOM      3  N   UNL     1       3.400   3.787  18.574  0.00  0.00    +0.000 NA
ATOM      4  C   UNL     1       2.976   3.442  17.208  0.00  0.00    +0.000 C 
BRANCH   3   5
ATOM      5  C   UNL     1       4.795   4.287  18.521  0.00  0.00    +0.000 C 
BRANCH   5   6
ATOM      6  C   UNL     1       5.441   4.167  17.146  0.00  0.00    +0.000 C 
BRANCH   6   7
ATOM      7  S   UNL     1       7.055   4.917  17.144  0.00  0.00    +0.000 S 
ATOM      8  C   UNL     1       6.677   6.634  17.397  0.00  0.00    +0.000 C 
ATOM      9  O   UNL     1       7.786   4.450  18.304  0.00  0.00    +0.000 OA
ATOM     10  O   UNL     1       7.609   4.789  15.808  0.00  0.00    +0.000 OA
ENDBRANCH   6   7
ENDBRANCH   5   6
ENDBRANCH   3   5
ENDBRANCH   1   3
BRANCH   1  11
ATOM     11  C   UNL     1       3.123   6.051  19.652  0.00  0.00    +0.000 C 
BRANCH  11  16
ATOM     12  C   UNL     1       0.223  11.051  18.775  0.00  0.00    +0.000 C 
ATOM     13  C   UNL     1       0.947   9.755  18.989  0.00  0.00    +0.000 A 
ATOM     14  C   UNL     1       0.980   9.153  20.249  0.00  0.00    +0.000 A 
ATOM     15  C   UNL     1       1.667   7.952  20.443  0.00  0.00    +0.000 A 
ATOM     16  C   UNL     1       2.331   7.317  19.383  0.00  0.00    +0.000 A 
ATOM     17  C   UNL     1       2.288   7.917  18.118  0.00  0.00    +0.000 A 
ATOM     18  C   UNL     1       1.595   9.119  17.922  0.00  0.00    +0.000 A 
ENDBRANCH  11  16
ENDBRANCH   1  11
TORSDOF 6
ENDMDL
MODEL 3
REMARK VINA RESULT:      -6.3      2.050      2.545
REMARK  Name = 
REMARK  10 active torsions:
REMARK  status: ('A' for Active; 'I' for Inactive)
REMARK    1  A    between atoms: C_1  and  C_2
REMARK    2  A    between atoms: C_5  and  C_6
REMARK    3  A    between atoms: C_6  and  C_7
REMARK    4  A    between atoms: C_7  and  C_8
REMARK    5  A    between atoms: C_7  and  N_9
REMARK    6  A    between atoms: N_9  and  C_10
REMARK    7  A    between atoms: N_9  and  C_11
REMARK    8  A    between atoms: C_11  and  C_12
REMARK    9  A    between atoms: C_12  and  S_13
REMARK   10  A    between atoms: S_13  and  C_14
REMARK                            x       y       z     vdW  Elec       q    Type
REMARK                         _______ _______ _______ _____ _____    ______ ____
ROOT
ATOM      1  C   UNL     1       3.177   5.396  18.101  0.00  0.00    +0.000 C 
ATOM      2  C   UNL     1       1.708   5.014  17.860  0.00  0.00    +0.000 C 
ENDROOT
BRANCH   1   3
ATOM      3  N   UNL     1       3.735   4.879  19.390  0.00  0.00    +0.000 NA
ATOM      4  C   UNL     1       2.743   4.169  20.212  0.00  0.00    +0.000 C 
BRANCH   3   5
ATOM      5  C   UNL     1       4.926   4.008  19.232  0.00  0.00    +0.000 C 
BRANCH   5   6
ATOM      6  C   UNL     1       5.731   4.288  17.969  0.00  0.00    +0.000 C 
BRANCH   6   7
ATOM      7  S   UNL     1       7.307   5.007  18.377  0.00  0.00    +0.000 S 
ATOM      8  C   UNL     1       7.270   6.539  17.477  0.00  0.00    +0.000 C 
ATOM      9  O   UNL     1       7.321   5.326  19.790  0.00  0.00    +0.000 OA
ATOM     10  O   UNL     1       8.345   4.183  17.785  0.00  0.00    +0.000 OA
ENDBRANCH   6   7
ENDBRANCH   5   6
ENDBRANCH   3   5
ENDBRANCH   1   3
BRANCH   1  11
ATOM     11  C   UNL     1       3.424   6.926  17.948  0.00  0.00    +0.000 C 
BRANCH  11  16
ATOM     12  C   UNL     1      -0.463  10.607  20.299  0.00  0.00    +0.000 C 
ATOM     13  C   UNL     1       0.514   9.648  19.686  0.00  0.00    +0.000 A 
ATOM     14  C   UNL     1       1.145   8.674  20.463  0.00  0.00    +0.000 A 
ATOM     15  C   UNL     1       2.065   7.793  19.887  0.00  0.00    +0.000 A 
ATOM     16  C   UNL     1       2.369   7.856  18.520  0.00  0.00    +0.000 A 
ATOM     17  C   UNL     1       1.728   8.827  17.739  0.00  0.00    +0.000 A 
ATOM     18  C   UNL     1       0.803   9.707  18.316  0.00  0.00    +0.000 A 
ENDBRANCH  11  16
ENDBRANCH   1  11
TORSDOF 6
ENDMDL
MODEL 4
REMARK VINA RESULT:      -6.3      1.393      1.924
REMARK  Name = 
REMARK  10 active torsions:
REMARK  status: ('A' for Active; 'I' for Inactive)
REMARK    1  A    between atoms: C_1  and  C_2
REMARK    2  A    between atoms: C_5  and  C_6
REMARK    3  A    between atoms: C_6  and  C_7
REMARK    4  A    between atoms: C_7  and  C_8
REMARK    5  A    between atoms: C_7  and  N_9
REMARK    6  A    between atoms: N_9  and  C_10
REMARK    7  A    between atoms: N_9  and  C_11
REMARK    8  A    between atoms: C_11  and  C_12
REMARK    9  A    between atoms: C_12  and  S_13
REMARK   10  A    between atoms: S_13  and  C_14
REMARK                            x       y       z     vdW  Elec       q    Type
REMARK                         _______ _______ _______ _____ _____    ______ ____
ROOT
ATOM      1  C   UNL     1       2.305   4.717  19.057  0.00  0.00    +0.000 C 
ATOM      2  C   UNL     1       1.213   3.865  19.724  0.00  0.00    +0.000 C 
ENDROOT
BRANCH   1   3
ATOM      3  N   UNL     1       3.463   3.924  18.539  0.00  0.00    +0.000 NA
ATOM      4  C   UNL     1       3.242   3.386  17.187  0.00  0.00    +0.000 C 
BRANCH   3   5
ATOM      5  C   UNL     1       4.755   4.653  18.550  0.00  0.00    +0.000 C 
BRANCH   5   6
ATOM      6  C   UNL     1       5.432   4.726  17.187  0.00  0.00    +0.000 C 
BRANCH   6   7
ATOM      7  S   UNL     1       7.088   5.360  17.343  0.00  0.00    +0.000 S 
ATOM      8  C   UNL     1       7.214   5.666  19.089  0.00  0.00    +0.000 C 
ATOM      9  O   UNL     1       8.023   4.304  17.012  0.00  0.00    +0.000 OA
ATOM     10  O   UNL     1       7.143   6.646  16.673  0.00  0.00    +0.000 OA
ENDBRANCH   6   7
ENDBRANCH   5   6
ENDBRANCH   3   5
ENDBRANCH   1   3
BRANCH   1  11
ATOM     11  C   UNL     1       2.781   5.888  19.967  0.00  0.00    +0.000 C 
BRANCH  11  16
ATOM     12  C   UNL     1       0.316  11.053  18.769  0.00  0.00    +0.000 C 
ATOM     13  C   UNL     1       0.968   9.741  19.088  0.00  0.00    +0.000 A 
ATOM     14  C   UNL     1       1.661   9.028  18.106  0.00  0.00    +0.000 A 
ATOM     15  C   UNL     1       2.255   7.800  18.408  0.00  0.00    +0.000 A 
ATOM     16  C   UNL     1       2.181   7.257  19.699  0.00  0.00    +0.000 A 
ATOM     17  C   UNL     1       1.495   7.977  20.685  0.00  0.00    +0.000 A 
ATOM     18  C   UNL     1       0.903   9.211  20.383  0.00  0.00    +0.000 A 
ENDBRANCH  11  16
ENDBRANCH   1  11
TORSDOF 6
ENDMDL
MODEL 5
REMARK VINA RESULT:      -6.2      1.689      2.255
REMARK  Name = 
REMARK  10 active torsions:
REMARK  status: ('A' for Active; 'I' for Inactive)
REMARK    1  A    between atoms: C_1  and  C_2
REMARK    2  A    between atoms: C_5  and  C_6
REMARK    3  A    between atoms: C_6  and  C_7
REMARK    4  A    between atoms: C_7  and  C_8
REMARK    5  A    between atoms: C_7  and  N_9
REMARK    6  A    between atoms: N_9  and  C_10
REMARK    7  A    between atoms: N_9  and  C_11
REMARK    8  A    between atoms: C_11  and  C_12
REMARK    9  A    between atoms: C_12  and  S_13
REMARK   10  A    between atoms: S_13  and  C_14
REMARK                            x       y       z     vdW  Elec       q    Type
REMARK                         _______ _______ _______ _____ _____    ______ ____
ROOT
ATOM      1  C   UNL     1       2.966   4.874  18.670  0.00  0.00    +0.000 C 
ATOM      2  C   UNL     1       1.687   4.518  17.895  0.00  0.00    +0.000 C 
ENDROOT
BRANCH   1   3
ATOM      3  N   UNL     1       3.762   3.686  19.107  0.00  0.00    +0.000 NA
ATOM      4  C   UNL     1       3.229   2.409  18.604  0.00  0.00    +0.000 C 
BRANCH   3   5
ATOM      5  C   UNL     1       5.204   3.760  18.768  0.00  0.00    +0.000 C 
BRANCH   5   6
ATOM      6  C   UNL     1       5.582   4.993  17.955  0.00  0.00    +0.000 C 
BRANCH   6   7
ATOM      7  S   UNL     1       7.336   5.285  18.039  0.00  0.00    +0.000 S 
ATOM      8  C   UNL     1       7.469   6.961  17.464  0.00  0.00    +0.000 C 
ATOM      9  O   UNL     1       7.745   5.262  19.428  0.00  0.00    +0.000 OA
ATOM     10  O   UNL     1       7.982   4.437  17.054  0.00  0.00    +0.000 OA
ENDBRANCH   6   7
ENDBRANCH   5   6
ENDBRANCH   3   5
ENDBRANCH   1   3
BRANCH   1  11
ATOM     11  C   UNL     1       2.687   5.841  19.859  0.00  0.00    +0.000 C 
BRANCH  11  16
ATOM     12  C   UNL     1       0.789  11.253  18.722  0.00  0.00    +0.000 C 
ATOM     13  C   UNL     1       1.256   9.854  18.999  0.00  0.00    +0.000 A 
ATOM     14  C   UNL     1       1.009   9.249  20.234  0.00  0.00    +0.000 A 
ATOM     15  C   UNL     1       1.458   7.951  20.490  0.00  0.00    +0.000 A 
ATOM     16  C   UNL     1       2.157   7.221  19.517  0.00  0.00    +0.000 A 
ATOM     17  C   UNL     1       2.395   7.826  18.275  0.00  0.00    +0.000 A 
ATOM     18  C   UNL     1       1.940   9.126  18.018  0.00  0.00    +0.000 A 
ENDBRANCH  11  16
ENDBRANCH   1  11
TORSDOF 6
ENDMDL
MODEL 6
REMARK VINA RESULT:      -6.2      1.237      1.726
REMARK  Name = 
REMARK  10 active torsions:
REMARK  status: ('A' for Active; 'I' for Inactive)
REMARK    1  A    between atoms: C_1  and  C_2
REMARK    2  A    between atoms: C_5  and  C_6
REMARK    3  A    between atoms: C_6  and  C_7
REMARK    4  A    between atoms: C_7  and  C_8
REMARK    5  A    between atoms: C_7  and  N_9
REMARK    6  A    between atoms: N_9  and  C_10
REMARK    7  A    between atoms: N_9  and  C_11
REMARK    8  A    between atoms: C_11  and  C_12
REMARK    9  A    between atoms: C_12  and  S_13
REMARK   10  A    between atoms: S_13  and  C_14
REMARK                            x       y       z     vdW  Elec       q    Type
REMARK                         _______ _______ _______ _____ _____    ______ ____
ROOT
ATOM      1  C   UNL     1       3.179   5.215  18.758  0.00  0.00    +0.000 C 
ATOM      2  C   UNL     1       2.094   4.525  17.916  0.00  0.00    +0.000 C 
ENDROOT
BRANCH   1   3
ATOM      3  N   UNL     1       4.247   4.289  19.250  0.00  0.00    +0.000 NA
ATOM      4  C   UNL     1       3.785   2.901  19.413  0.00  0.00    +0.000 C 
BRANCH   3   5
ATOM      5  C   UNL     1       5.476   4.281  18.420  0.00  0.00    +0.000 C 
BRANCH   5   6
ATOM      6  C   UNL     1       5.647   5.529  17.562  0.00  0.00    +0.000 C 
BRANCH   6   7
ATOM      7  S   UNL     1       7.137   5.425  16.593  0.00  0.00    +0.000 S 
ATOM      8  C   UNL     1       6.529   4.862  15.021  0.00  0.00    +0.000 C 
ATOM      9  O   UNL     1       7.666   6.760  16.409  0.00  0.00    +0.000 OA
ATOM     10  O   UNL     1       7.959   4.362  17.144  0.00  0.00    +0.000 OA
ENDBRANCH   6   7
ENDBRANCH   5   6
ENDBRANCH   3   5
ENDBRANCH   1   3
BRANCH   1  11
ATOM     11  C   UNL     1       2.579   6.059  19.921  0.00  0.00    +0.000 C 
BRANCH  11  16
ATOM     12  C   UNL     1       0.689  11.466  18.747  0.00  0.00    +0.000 C 
ATOM     13  C   UNL     1       1.153  10.069  19.035  0.00  0.00    +0.000 A 
ATOM     14  C   UNL     1       0.948   9.491  20.290  0.00  0.00    +0.000 A 
ATOM     15  C   UNL     1       1.395   8.193  20.555  0.00  0.00    +0.000 A 
ATOM     16  C   UNL     1       2.049   7.437  19.571  0.00  0.00    +0.000 A 
ATOM     17  C   UNL     1       2.244   8.015  18.310  0.00  0.00    +0.000 A 
ATOM     18  C   UNL     1       1.792   9.313  18.043  0.00  0.00    +0.000 A 
ENDBRANCH  11  16
ENDBRANCH   1  11
TORSDOF 6
ENDMDL
MODEL 7
REMARK VINA RESULT:      -6.2      1.145      1.936
REMARK  Name = 
REMARK  10 active torsions:
REMARK  status: ('A' for Active; 'I' for Inactive)
REMARK    1  A    between atoms: C_1  and  C_2
REMARK    2  A    between atoms: C_5  and  C_6
REMARK    3  A    between atoms: C_6  and  C_7
REMARK    4  A    between atoms: C_7  and  C_8
REMARK    5  A    between atoms: C_7  and  N_9
REMARK    6  A    between atoms: N_9  and  C_10
REMARK    7  A    between atoms: N_9  and  C_11
REMARK    8  A    between atoms: C_11  and  C_12
REMARK    9  A    between atoms: C_12  and  S_13
REMARK   10  A    between atoms: S_13  and  C_14
REMARK                            x       y       z     vdW  Elec       q    Type
REMARK                         _______ _______ _______ _____ _____    ______ ____
ROOT
ATOM      1  C   UNL     1       2.940   4.756  18.544  0.00  0.00    +0.000 C 
ATOM      2  C   UNL     1       1.907   3.619  18.521  0.00  0.00    +0.000 C 
ENDROOT
BRANCH   1   3
ATOM      3  N   UNL     1       4.358   4.291  18.445  0.00  0.00    +0.000 NA
ATOM      4  C   UNL     1       4.668   3.170  19.347  0.00  0.00    +0.000 C 
BRANCH   3   5
ATOM      5  C   UNL     1       4.785   3.923  17.073  0.00  0.00    +0.000 C 
BRANCH   5   6
ATOM      6  C   UNL     1       5.238   5.109  16.230  0.00  0.00    +0.000 C 
BRANCH   6   7
ATOM      7  S   UNL     1       6.985   5.388  16.427  0.00  0.00    +0.000 S 
ATOM      8  C   UNL     1       7.025   6.892  17.373  0.00  0.00    +0.000 C 
ATOM      9  O   UNL     1       7.533   4.332  17.253  0.00  0.00    +0.000 OA
ATOM     10  O   UNL     1       7.544   5.685  15.120  0.00  0.00    +0.000 OA
ENDBRANCH   6   7
ENDBRANCH   5   6
ENDBRANCH   3   5
ENDBRANCH   1   3
BRANCH   1  11
ATOM     11  C   UNL     1       2.739   5.715  19.755  0.00  0.00    +0.000 C 
BRANCH  11  16
ATOM     12  C   UNL     1       0.798  11.142  18.771  0.00  0.00    +0.000 C 
ATOM     13  C   UNL     1       1.275   9.740  19.011  0.00  0.00    +0.000 A 
ATOM     14  C   UNL     1       1.127   9.138  20.263  0.00  0.00    +0.000 A 
ATOM     15  C   UNL     1       1.585   7.836  20.482  0.00  0.00    +0.000 A 
ATOM     16  C   UNL     1       2.193   7.100  19.455  0.00  0.00    +0.000 A 
ATOM     17  C   UNL     1       2.332   7.701  18.197  0.00  0.00    +0.000 A 
ATOM     18  C   UNL     1       1.868   9.005  17.977  0.00  0.00    +0.000 A 
ENDBRANCH  11  16
ENDBRANCH   1  11
TORSDOF 6
ENDMDL
MODEL 8
REMARK VINA RESULT:      -6.2      1.950      2.517
REMARK  Name = 
REMARK  10 active torsions:
REMARK  status: ('A' for Active; 'I' for Inactive)
REMARK    1  A    between atoms: C_1  and  C_2
REMARK    2  A    between atoms: C_5  and  C_6
REMARK    3  A    between atoms: C_6  and  C_7
REMARK    4  A    between atoms: C_7  and  C_8
REMARK    5  A    between atoms: C_7  and  N_9
REMARK    6  A    between atoms: N_9  and  C_10
REMARK    7  A    between atoms: N_9  and  C_11
REMARK    8  A    between atoms: C_11  and  C_12
REMARK    9  A    between atoms: C_12  and  S_13
REMARK   10  A    between atoms: S_13  and  C_14
REMARK                            x       y       z     vdW  Elec       q    Type
REMARK                         _______ _______ _______ _____ _____    ______ ____
ROOT
ATOM      1  C   UNL     1       2.760   3.933  19.366  0.00  0.00    +0.000 C 
ATOM      2  C   UNL     1       1.857   2.694  19.473  0.00  0.00    +0.000 C 
ENDROOT
BRANCH   1   3
ATOM      3  N   UNL     1       4.223   3.627  19.441  0.00  0.00    +0.000 NA
ATOM      4  C   UNL     1       4.512   2.295  19.995  0.00  0.00    +0.000 C 
BRANCH   3   5
ATOM      5  C   UNL     1       4.942   3.766  18.151  0.00  0.00    +0.000 C 
BRANCH   5   6
ATOM      6  C   UNL     1       5.449   5.177  17.879  0.00  0.00    +0.000 C 
BRANCH   6   7
ATOM      7  S   UNL     1       7.180   5.309  18.274  0.00  0.00    +0.000 S 
ATOM      8  C   UNL     1       7.541   6.994  17.842  0.00  0.00    +0.000 C 
ATOM      9  O   UNL     1       7.340   5.176  19.707  0.00  0.00    +0.000 OA
ATOM     10  O   UNL     1       7.918   4.460  17.356  0.00  0.00    +0.000 OA
ENDBRANCH   6   7
ENDBRANCH   5   6
ENDBRANCH   3   5
ENDBRANCH   1   3
BRANCH   1  11
ATOM     11  C   UNL     1       2.360   5.047  20.378  0.00  0.00    +0.000 C 
BRANCH  11  16
ATOM     12  C   UNL     1       1.467  10.459  18.352  0.00  0.00    +0.000 C 
ATOM     13  C   UNL     1       1.673   9.062  18.860  0.00  0.00    +0.000 A 
ATOM     14  C   UNL     1       1.385   8.733  20.186  0.00  0.00    +0.000 A 
ATOM     15  C   UNL     1       1.592   7.433  20.656  0.00  0.00    +0.000 A 
ATOM     16  C   UNL     1       2.084   6.428  19.811  0.00  0.00    +0.000 A 
ATOM     17  C   UNL     1       2.363   6.757  18.478  0.00  0.00    +0.000 A 
ATOM     18  C   UNL     1       2.151   8.059  18.006  0.00  0.00    +0.000 A 
ENDBRANCH  11  16
ENDBRANCH   1  11
TORSDOF 6
ENDMDL
MODEL 9
REMARK VINA RESULT:      -6.1      0.812      1.393
REMARK  Name = 
REMARK  10 active torsions:
REMARK  status: ('A' for Active; 'I' for Inactive)
REMARK    1  A    between atoms: C_1  and  C_2
REMARK    2  A    between atoms: C_5  and  C_6
REMARK    3  A    between atoms: C_6  and  C_7
REMARK    4  A    between atoms: C_7  and  C_8
REMARK    5  A    between atoms: C_7  and  N_9
REMARK    6  A    between atoms: N_9  and  C_10
REMARK    7  A    between atoms: N_9  and  C_11
REMARK    8  A    between atoms: C_11  and  C_12
REMARK    9  A    between atoms: C_12  and  S_13
REMARK   10  A    between atoms: S_13  and  C_14
REMARK                            x       y       z     vdW  Elec       q    Type
REMARK                         _______ _______ _______ _____ _____    ______ ____
ROOT
ATOM      1  C   UNL     1       3.111   4.855  17.886  0.00  0.00    +0.000 C 
ATOM      2  C   UNL     1       1.591   4.636  17.820  0.00  0.00    +0.000 C 
ENDROOT
BRANCH   1   3
ATOM      3  N   UNL     1       3.894   3.607  18.144  0.00  0.00    +0.000 NA
ATOM      4  C   UNL     1       3.120   2.376  17.919  0.00  0.00    +0.000 C 
BRANCH   3   5
ATOM      5  C   UNL     1       5.161   3.513  17.378  0.00  0.00    +0.000 C 
BRANCH   5   6
ATOM      6  C   UNL     1       5.181   4.365  16.115  0.00  0.00    +0.000 C 
BRANCH   6   7
ATOM      7  S   UNL     1       6.764   5.153  15.914  0.00  0.00    +0.000 S 
ATOM      8  C   UNL     1       7.084   4.926  14.181  0.00  0.00    +0.000 C 
ATOM      9  O   UNL     1       6.610   6.573  16.152  0.00  0.00    +0.000 OA
ATOM     10  O   UNL     1       7.751   4.374  16.641  0.00  0.00    +0.000 OA
ENDBRANCH   6   7
ENDBRANCH   5   6
ENDBRANCH   3   5
ENDBRANCH   1   3
BRANCH   1  11
ATOM     11  C   UNL     1       3.504   5.988  18.880  0.00  0.00    +0.000 C 
BRANCH  11  16
ATOM     12  C   UNL     1       0.312  10.883  19.074  0.00  0.00    +0.000 C 
ATOM     13  C   UNL     1       1.111   9.615  19.010  0.00  0.00    +0.000 A 
ATOM     14  C   UNL     1       1.182   8.758  20.111  0.00  0.00    +0.000 A 
ATOM     15  C   UNL     1       1.940   7.585  20.048  0.00  0.00    +0.000 A 
ATOM     16  C   UNL     1       2.638   7.235  18.883  0.00  0.00    +0.000 A 
ATOM     17  C   UNL     1       2.557   8.091  17.777  0.00  0.00    +0.000 A 
ATOM     18  C   UNL     1       1.794   9.264  17.839  0.00  0.00    +0.000 A 
ENDBRANCH  11  16
ENDBRANCH   1  11
TORSDOF 6
ENDMDL
