MODEL 1
REMARK VINA RESULT:      -6.5      0.000      0.000
REMARK  Name = 
REMARK  12 active torsions:
REMARK  status: ('A' for Active; 'I' for Inactive)
REMARK    1  A    between atoms: C_1  and  C_2
REMARK    2  A    between atoms: C_2  and  C_3
REMARK    3  A    between atoms: C_3  and  C_4
REMARK    4  A    between atoms: C_4  and  C_5
REMARK    5  A    between atoms: C_5  and  O_6
REMARK    6  A    between atoms: O_6  and  C_7
REMARK    7  A    between atoms: C_7  and  C_9
REMARK    8  A    between atoms: C_9  and  C_10
REMARK    9  A    between atoms: C_10  and  C_11
REMARK   10  A    between atoms: C_11  and  N_12
REMARK   11  A    between atoms: C_13  and  O_15
REMARK   12  A    between atoms: O_15  and  C_16
REMARK                            x       y       z     vdW  Elec       q    Type
REMARK                         _______ _______ _______ _____ _____    ______ ____
ROOT
ATOM      1  N   UNL     1       4.393   6.315  17.146  0.00  0.00    +0.000 N 
ATOM      2  C   UNL     1       3.265   6.343  17.954  0.00  0.00    +0.000 C 
ATOM      3  O   UNL     1       2.955   7.305  18.621  0.00  0.00    +0.000 OA
ATOM      4  H   UNL     1       4.584   5.485  16.605  0.00  0.00    +0.000 HD
ENDROOT
BRANCH   1   5
ATOM      5  C   UNL     1       5.254   7.490  17.057  0.00  0.00    +0.000 C 
BRANCH   5   6
ATOM      6  C   UNL     1       6.737   7.161  17.248  0.00  0.00    +0.000 C 
BRANCH   6   7
ATOM      7  C   UNL     1       6.974   5.899  18.095  0.00  0.00    +0.000 C 
BRANCH   7   8
ATOM      8  C   UNL     1       7.604   4.789  17.274  0.00  0.00    +0.000 C 
ATOM      9  O   UNL     1       8.361   3.945  17.750  0.00  0.00    +0.000 OA
BRANCH   8  10
ATOM     10  O   UNL     1       7.285   4.891  15.954  0.00  0.00    +0.000 OA
BRANCH  10  11
ATOM     11  C   UNL     1       6.420   3.844  15.474  0.00  0.00    +0.000 C 
BRANCH  11  12
ATOM     12  C   UNL     1       5.629   4.280  14.246  0.00  0.00    +0.000 C 
BRANCH  12  13
ATOM     13  C   UNL     1       6.327   3.852  12.952  0.00  0.00    +0.000 C 
BRANCH  13  15
ATOM     14  C   UNL     1       4.424   3.346  11.386  0.00  0.00    +0.000 C 
ATOM     15  C   UNL     1       5.542   2.756  12.231  0.00  0.00    +0.000 C 
ENDBRANCH  13  15
ENDBRANCH  12  13
ENDBRANCH  11  12
ENDBRANCH  10  11
ENDBRANCH   8  10
ENDBRANCH   7   8
ENDBRANCH   6   7
ENDBRANCH   5   6
ENDBRANCH   1   5
BRANCH   2  16
ATOM     16  O   UNL     1       2.540   5.143  17.884  0.00  0.00    +0.000 OA
BRANCH  16  17
ATOM     17  C   UNL     1       2.525   4.308  19.035  0.00  0.00    +0.000 A 
ATOM     18  C   UNL     1       1.389   4.235  19.848  0.00  0.00    +0.000 A 
ATOM     19  C   UNL     1       1.371   3.394  20.964  0.00  0.00    +0.000 A 
ATOM     20  C   UNL     1       2.477   2.602  21.263  0.00  0.00    +0.000 A 
ATOM     21  C   UNL     1       3.593   2.640  20.424  0.00  0.00    +0.000 A 
ATOM     22 CL   UNL     1       4.955   1.656  20.809  0.00  0.00    +0.000 Cl
ATOM     23  C   UNL     1       3.618   3.475  19.296  0.00  0.00    +0.000 A 
ENDBRANCH  16  17
ENDBRANCH   2  16
TORSDOF 11
ENDMDL
MODEL 2
REMARK VINA RESULT:      -5.9      1.890      2.636
REMARK  Name = 
REMARK  12 active torsions:
REMARK  status: ('A' for Active; 'I' for Inactive)
REMARK    1  A    between atoms: C_1  and  C_2
REMARK    2  A    between atoms: C_2  and  C_3
REMARK    3  A    between atoms: C_3  and  C_4
REMARK    4  A    between atoms: C_4  and  C_5
REMARK    5  A    between atoms: C_5  and  O_6
REMARK    6  A    between atoms: O_6  and  C_7
REMARK    7  A    between atoms: C_7  and  C_9
REMARK    8  A    between atoms: C_9  and  C_10
REMARK    9  A    between atoms: C_10  and  C_11
REMARK   10  A    between atoms: C_11  and  N_12
REMARK   11  A    between atoms: C_13  and  O_15
REMARK   12  A    between atoms: O_15  and  C_16
REMARK                            x       y       z     vdW  Elec       q    Type
REMARK                         _______ _______ _______ _____ _____    ______ ____
ROOT
ATOM      1  N   UNL     1       4.148   5.538  17.912  0.00  0.00    +0.000 N 
ATOM      2  C   UNL     1       3.287   6.623  18.007  0.00  0.00    +0.000 C 
ATOM      3  O   UNL     1       3.616   7.753  17.726  0.00  0.00    +0.000 OA
ATOM      4  H   UNL     1       3.804   4.620  18.150  0.00  0.00    +0.000 HD
ENDROOT
BRANCH   1   5
ATOM      5  C   UNL     1       5.513   5.733  17.431  0.00  0.00    +0.000 C 
BRANCH   5   6
ATOM      6  C   UNL     1       5.639   5.579  15.913  0.00  0.00    +0.000 C 
BRANCH   6   7
ATOM      7  C   UNL     1       7.065   5.222  15.457  0.00  0.00    +0.000 C 
BRANCH   7   8
ATOM      8  C   UNL     1       7.091   4.795  14.000  0.00  0.00    +0.000 C 
ATOM      9  O   UNL     1       7.657   5.439  13.119  0.00  0.00    +0.000 OA
BRANCH   8  10
ATOM     10  O   UNL     1       6.361   3.665  13.790  0.00  0.00    +0.000 OA
BRANCH  10  11
ATOM     11  C   UNL     1       6.116   3.371  12.401  0.00  0.00    +0.000 C 
BRANCH  11  12
ATOM     12  C   UNL     1       4.629   3.395  12.069  0.00  0.00    +0.000 C 
BRANCH  12  13
ATOM     13  C   UNL     1       4.376   4.000  10.685  0.00  0.00    +0.000 C 
BRANCH  13  15
ATOM     14  C   UNL     1       2.502   4.489   9.080  0.00  0.00    +0.000 C 
ATOM     15  C   UNL     1       3.060   3.499  10.090  0.00  0.00    +0.000 C 
ENDBRANCH  13  15
ENDBRANCH  12  13
ENDBRANCH  11  12
ENDBRANCH  10  11
ENDBRANCH   8  10
ENDBRANCH   7   8
ENDBRANCH   6   7
ENDBRANCH   5   6
ENDBRANCH   1   5
BRANCH   2  16
ATOM     16  O   UNL     1       2.010   6.241  18.449  0.00  0.00    +0.000 OA
BRANCH  16  17
ATOM     17  C   UNL     1       1.802   4.872  18.774  0.00  0.00    +0.000 A 
ATOM     18  C   UNL     1       1.726   3.903  17.767  0.00  0.00    +0.000 A 
ATOM     19  C   UNL     1       1.546   2.557  18.094  0.00  0.00    +0.000 A 
ATOM     20  C   UNL     1       1.463   2.164  19.427  0.00  0.00    +0.000 A 
ATOM     21  C   UNL     1       1.584   3.125  20.434  0.00  0.00    +0.000 A 
ATOM     22 CL   UNL     1       1.476   2.623  22.079  0.00  0.00    +0.000 Cl
ATOM     23  C   UNL     1       1.774   4.479  20.117  0.00  0.00    +0.000 A 
ENDBRANCH  16  17
ENDBRANCH   2  16
TORSDOF 11
ENDMDL
MODEL 3
REMARK VINA RESULT:      -5.9      1.956      3.063
REMARK  Name = 
REMARK  12 active torsions:
REMARK  status: ('A' for Active; 'I' for Inactive)
REMARK    1  A    between atoms: C_1  and  C_2
REMARK    2  A    between atoms: C_2  and  C_3
REMARK    3  A    between atoms: C_3  and  C_4
REMARK    4  A    between atoms: C_4  and  C_5
REMARK    5  A    between atoms: C_5  and  O_6
REMARK    6  A    between atoms: O_6  and  C_7
REMARK    7  A    between atoms: C_7  and  C_9
REMARK    8  A    between atoms: C_9  and  C_10
REMARK    9  A    between atoms: C_10  and  C_11
REMARK   10  A    between atoms: C_11  and  N_12
REMARK   11  A    between atoms: C_13  and  O_15
REMARK   12  A    between atoms: O_15  and  C_16
REMARK                            x       y       z     vdW  Elec       q    Type
REMARK                         _______ _______ _______ _____ _____    ______ ____
ROOT
ATOM      1  N   UNL     1       6.152   6.031  17.913  0.00  0.00    +0.000 N 
ATOM      2  C   UNL     1       6.314   5.518  19.192  0.00  0.00    +0.000 C 
ATOM      3  O   UNL     1       7.376   5.118  19.613  0.00  0.00    +0.000 OA
ATOM      4  H   UNL     1       5.240   6.359  17.631  0.00  0.00    +0.000 HD
ENDROOT
BRANCH   1   5
ATOM      5  C   UNL     1       7.301   6.128  17.017  0.00  0.00    +0.000 C 
BRANCH   5   6
ATOM      6  C   UNL     1       7.604   4.816  16.288  0.00  0.00    +0.000 C 
BRANCH   6   7
ATOM      7  C   UNL     1       7.006   4.757  14.872  0.00  0.00    +0.000 C 
BRANCH   7   8
ATOM      8  C   UNL     1       5.566   4.278  14.897  0.00  0.00    +0.000 C 
ATOM      9  O   UNL     1       4.965   4.003  15.934  0.00  0.00    +0.000 OA
BRANCH   8  10
ATOM     10  O   UNL     1       5.060   4.128  13.642  0.00  0.00    +0.000 OA
BRANCH  10  11
ATOM     11  C   UNL     1       6.044   3.795  12.644  0.00  0.00    +0.000 C 
BRANCH  11  12
ATOM     12  C   UNL     1       5.662   2.540  11.868  0.00  0.00    +0.000 C 
BRANCH  12  13
ATOM     13  C   UNL     1       4.252   2.654  11.281  0.00  0.00    +0.000 C 
BRANCH  13  15
ATOM     14  C   UNL     1       2.958   4.027   9.618  0.00  0.00    +0.000 C 
ATOM     15  C   UNL     1       3.985   4.057  10.738  0.00  0.00    +0.000 C 
ENDBRANCH  13  15
ENDBRANCH  12  13
ENDBRANCH  11  12
ENDBRANCH  10  11
ENDBRANCH   8  10
ENDBRANCH   7   8
ENDBRANCH   6   7
ENDBRANCH   5   6
ENDBRANCH   1   5
BRANCH   2  16
ATOM     16  O   UNL     1       5.113   5.537  19.920  0.00  0.00    +0.000 OA
BRANCH  16  17
ATOM     17  C   UNL     1       3.934   5.081  19.270  0.00  0.00    +0.000 A 
ATOM     18  C   UNL     1       3.092   5.980  18.607  0.00  0.00    +0.000 A 
ATOM     19  C   UNL     1       1.948   5.522  17.949  0.00  0.00    +0.000 A 
ATOM     20  C   UNL     1       1.648   4.162  17.927  0.00  0.00    +0.000 A 
ATOM     21  C   UNL     1       2.514   3.260  18.549  0.00  0.00    +0.000 A 
ATOM     22 CL   UNL     1       2.127   1.580  18.516  0.00  0.00    +0.000 Cl
ATOM     23  C   UNL     1       3.670   3.708  19.206  0.00  0.00    +0.000 A 
ENDBRANCH  16  17
ENDBRANCH   2  16
TORSDOF 11
ENDMDL
MODEL 4
REMARK VINA RESULT:      -5.9      2.847      5.219
REMARK  Name = 
REMARK  12 active torsions:
REMARK  status: ('A' for Active; 'I' for Inactive)
REMARK    1  A    between atoms: C_1  and  C_2
REMARK    2  A    between atoms: C_2  and  C_3
REMARK    3  A    between atoms: C_3  and  C_4
REMARK    4  A    between atoms: C_4  and  C_5
REMARK    5  A    between atoms: C_5  and  O_6
REMARK    6  A    between atoms: O_6  and  C_7
REMARK    7  A    between atoms: C_7  and  C_9
REMARK    8  A    between atoms: C_9  and  C_10
REMARK    9  A    between atoms: C_10  and  C_11
REMARK   10  A    between atoms: C_11  and  N_12
REMARK   11  A    between atoms: C_13  and  O_15
REMARK   12  A    between atoms: O_15  and  C_16
REMARK                            x       y       z     vdW  Elec       q    Type
REMARK                         _______ _______ _______ _____ _____    ______ ____
ROOT
ATOM      1  N   UNL     1       4.429   5.523  16.528  0.00  0.00    +0.000 N 
ATOM      2  C   UNL     1       4.107   6.582  17.366  0.00  0.00    +0.000 C 
ATOM      3  O   UNL     1       4.878   7.478  17.624  0.00  0.00    +0.000 OA
ATOM      4  H   UNL     1       3.732   4.817  16.345  0.00  0.00    +0.000 HD
ENDROOT
BRANCH   1   5
ATOM      5  C   UNL     1       5.742   5.471  15.893  0.00  0.00    +0.000 C 
BRANCH   5   6
ATOM      6  C   UNL     1       6.675   4.438  16.532  0.00  0.00    +0.000 C 
BRANCH   6   7
ATOM      7  C   UNL     1       7.528   5.016  17.674  0.00  0.00    +0.000 C 
BRANCH   7   8
ATOM      8  C   UNL     1       6.849   4.838  19.020  0.00  0.00    +0.000 C 
ATOM      9  O   UNL     1       7.248   5.373  20.053  0.00  0.00    +0.000 OA
BRANCH   8  10
ATOM     10  O   UNL     1       5.804   3.968  18.950  0.00  0.00    +0.000 OA
BRANCH  10  11
ATOM     11  C   UNL     1       4.739   4.248  19.878  0.00  0.00    +0.000 C 
BRANCH  11  12
ATOM     12  C   UNL     1       3.443   3.551  19.481  0.00  0.00    +0.000 C 
BRANCH  12  13
ATOM     13  C   UNL     1       2.281   3.977  20.383  0.00  0.00    +0.000 C 
BRANCH  13  15
ATOM     14  C   UNL     1       1.064   2.421  18.826  0.00  0.00    +0.000 C 
ATOM     15  C   UNL     1       1.072   3.059  20.206  0.00  0.00    +0.000 C 
ENDBRANCH  13  15
ENDBRANCH  12  13
ENDBRANCH  11  12
ENDBRANCH  10  11
ENDBRANCH   8  10
ENDBRANCH   7   8
ENDBRANCH   6   7
ENDBRANCH   5   6
ENDBRANCH   1   5
BRANCH   2  16
ATOM     16  O   UNL     1       2.793   6.484  17.852  0.00  0.00    +0.000 OA
BRANCH  16  17
ATOM     17  C   UNL     1       2.221   7.637  18.458  0.00  0.00    +0.000 A 
ATOM     18  C   UNL     1       1.814   8.725  17.678  0.00  0.00    +0.000 A 
ATOM     19  C   UNL     1       1.230   9.844  18.277  0.00  0.00    +0.000 A 
ATOM     20  C   UNL     1       1.027   9.877  19.654  0.00  0.00    +0.000 A 
ATOM     21  C   UNL     1       1.391   8.771  20.427  0.00  0.00    +0.000 A 
ATOM     22 CL   UNL     1       1.136   8.829  22.131  0.00  0.00    +0.000 Cl
ATOM     23  C   UNL     1       1.971   7.638  19.835  0.00  0.00    +0.000 A 
ENDBRANCH  16  17
ENDBRANCH   2  16
TORSDOF 11
ENDMDL
MODEL 5
REMARK VINA RESULT:      -5.9      3.367      6.498
REMARK  Name = 
REMARK  12 active torsions:
REMARK  status: ('A' for Active; 'I' for Inactive)
REMARK    1  A    between atoms: C_1  and  C_2
REMARK    2  A    between atoms: C_2  and  C_3
REMARK    3  A    between atoms: C_3  and  C_4
REMARK    4  A    between atoms: C_4  and  C_5
REMARK    5  A    between atoms: C_5  and  O_6
REMARK    6  A    between atoms: O_6  and  C_7
REMARK    7  A    between atoms: C_7  and  C_9
REMARK    8  A    between atoms: C_9  and  C_10
REMARK    9  A    between atoms: C_10  and  C_11
REMARK   10  A    between atoms: C_11  and  N_12
REMARK   11  A    between atoms: C_13  and  O_15
REMARK   12  A    between atoms: O_15  and  C_16
REMARK                            x       y       z     vdW  Elec       q    Type
REMARK                         _______ _______ _______ _____ _____    ______ ____
ROOT
ATOM      1  N   UNL     1       3.181   3.734  17.026  0.00  0.00    +0.000 N 
ATOM      2  C   UNL     1       4.444   3.887  17.581  0.00  0.00    +0.000 C 
ATOM      3  O   UNL     1       4.802   3.303  18.579  0.00  0.00    +0.000 OA
ATOM      4  H   UNL     1       2.954   4.241  16.184  0.00  0.00    +0.000 HD
ENDROOT
BRANCH   1   5
ATOM      5  C   UNL     1       2.225   2.815  17.637  0.00  0.00    +0.000 C 
BRANCH   5   6
ATOM      6  C   UNL     1       1.246   3.513  18.585  0.00  0.00    +0.000 C 
BRANCH   6   7
ATOM      7  C   UNL     1       1.223   2.896  19.994  0.00  0.00    +0.000 C 
BRANCH   7   8
ATOM      8  C   UNL     1       2.021   3.731  20.979  0.00  0.00    +0.000 C 
ATOM      9  O   UNL     1       2.187   3.411  22.155  0.00  0.00    +0.000 OA
BRANCH   8  10
ATOM     10  O   UNL     1       2.459   4.893  20.421  0.00  0.00    +0.000 OA
BRANCH  10  11
ATOM     11  C   UNL     1       1.735   6.063  20.846  0.00  0.00    +0.000 C 
BRANCH  11  12
ATOM     12  C   UNL     1       2.044   7.271  19.970  0.00  0.00    +0.000 C 
BRANCH  12  13
ATOM     13  C   UNL     1       3.047   6.921  18.868  0.00  0.00    +0.000 C 
BRANCH  13  15
ATOM     14  C   UNL     1       1.886   8.932  17.903  0.00  0.00    +0.000 C 
ATOM     15  C   UNL     1       2.820   7.767  17.616  0.00  0.00    +0.000 C 
ENDBRANCH  13  15
ENDBRANCH  12  13
ENDBRANCH  11  12
ENDBRANCH  10  11
ENDBRANCH   8  10
ENDBRANCH   7   8
ENDBRANCH   6   7
ENDBRANCH   5   6
ENDBRANCH   1   5
BRANCH   2  16
ATOM     16  O   UNL     1       5.237   4.778  16.839  0.00  0.00    +0.000 OA
BRANCH  16  17
ATOM     17  C   UNL     1       6.242   5.509  17.532  0.00  0.00    +0.000 A 
ATOM     18  C   UNL     1       7.068   4.875  18.466  0.00  0.00    +0.000 A 
ATOM     19  C   UNL     1       8.069   5.593  19.126  0.00  0.00    +0.000 A 
ATOM     20  C   UNL     1       8.268   6.942  18.842  0.00  0.00    +0.000 A 
ATOM     21  C   UNL     1       7.473   7.563  17.875  0.00  0.00    +0.000 A 
ATOM     22 CL   UNL     1       7.730   9.233  17.537  0.00  0.00    +0.000 Cl
ATOM     23  C   UNL     1       6.470   6.849  17.201  0.00  0.00    +0.000 A 
ENDBRANCH  16  17
ENDBRANCH   2  16
TORSDOF 11
ENDMDL
MODEL 6
REMARK VINA RESULT:      -5.9      2.705      6.620
REMARK  Name = 
REMARK  12 active torsions:
REMARK  status: ('A' for Active; 'I' for Inactive)
REMARK    1  A    between atoms: C_1  and  C_2
REMARK    2  A    between atoms: C_2  and  C_3
REMARK    3  A    between atoms: C_3  and  C_4
REMARK    4  A    between atoms: C_4  and  C_5
REMARK    5  A    between atoms: C_5  and  O_6
REMARK    6  A    between atoms: O_6  and  C_7
REMARK    7  A    between atoms: C_7  and  C_9
REMARK    8  A    between atoms: C_9  and  C_10
REMARK    9  A    between atoms: C_10  and  C_11
REMARK   10  A    between atoms: C_11  and  N_12
REMARK   11  A    between atoms: C_13  and  O_15
REMARK   12  A    between atoms: O_15  and  C_16
REMARK                            x       y       z     vdW  Elec       q    Type
REMARK                         _______ _______ _______ _____ _____    ______ ____
ROOT
ATOM      1  N   UNL     1       4.732   6.293  17.362  0.00  0.00    +0.000 N 
ATOM      2  C   UNL     1       5.121   6.147  16.037  0.00  0.00    +0.000 C 
ATOM      3  O   UNL     1       4.901   6.982  15.189  0.00  0.00    +0.000 OA
ATOM      4  H   UNL     1       4.960   5.564  18.020  0.00  0.00    +0.000 HD
ENDROOT
BRANCH   1   5
ATOM      5  C   UNL     1       4.045   7.509  17.788  0.00  0.00    +0.000 C 
BRANCH   5   6
ATOM      6  C   UNL     1       2.560   7.284  18.087  0.00  0.00    +0.000 C 
BRANCH   6   7
ATOM      7  C   UNL     1       2.270   7.067  19.582  0.00  0.00    +0.000 C 
BRANCH   7   8
ATOM      8  C   UNL     1       2.499   5.622  19.989  0.00  0.00    +0.000 C 
ATOM      9  O   UNL     1       3.617   5.141  20.166  0.00  0.00    +0.000 OA
BRANCH   8  10
ATOM     10  O   UNL     1       1.332   4.924  20.060  0.00  0.00    +0.000 OA
BRANCH  10  11
ATOM     11  C   UNL     1       1.435   3.673  20.767  0.00  0.00    +0.000 C 
BRANCH  11  12
ATOM     12  C   UNL     1       1.223   2.480  19.843  0.00  0.00    +0.000 C 
BRANCH  12  13
ATOM     13  C   UNL     1       2.543   2.013  19.222  0.00  0.00    +0.000 C 
BRANCH  13  15
ATOM     14  C   UNL     1       2.583   3.470  17.172  0.00  0.00    +0.000 C 
ATOM     15  C   UNL     1       2.484   2.046  17.695  0.00  0.00    +0.000 C 
ENDBRANCH  13  15
ENDBRANCH  12  13
ENDBRANCH  11  12
ENDBRANCH  10  11
ENDBRANCH   8  10
ENDBRANCH   7   8
ENDBRANCH   6   7
ENDBRANCH   5   6
ENDBRANCH   1   5
BRANCH   2  16
ATOM     16  O   UNL     1       5.799   4.937  15.821  0.00  0.00    +0.000 OA
BRANCH  16  17
ATOM     17  C   UNL     1       6.273   4.665  14.508  0.00  0.00    +0.000 A 
ATOM     18  C   UNL     1       7.405   5.318  14.009  0.00  0.00    +0.000 A 
ATOM     19  C   UNL     1       7.879   5.028  12.727  0.00  0.00    +0.000 A 
ATOM     20  C   UNL     1       7.242   4.069  11.943  0.00  0.00    +0.000 A 
ATOM     21  C   UNL     1       6.140   3.384  12.460  0.00  0.00    +0.000 A 
ATOM     22 CL   UNL     1       5.361   2.202  11.476  0.00  0.00    +0.000 Cl
ATOM     23  C   UNL     1       5.660   3.661  13.750  0.00  0.00    +0.000 A 
ENDBRANCH  16  17
ENDBRANCH   2  16
TORSDOF 11
ENDMDL
MODEL 7
REMARK VINA RESULT:      -5.9      3.102      6.787
REMARK  Name = 
REMARK  12 active torsions:
REMARK  status: ('A' for Active; 'I' for Inactive)
REMARK    1  A    between atoms: C_1  and  C_2
REMARK    2  A    between atoms: C_2  and  C_3
REMARK    3  A    between atoms: C_3  and  C_4
REMARK    4  A    between atoms: C_4  and  C_5
REMARK    5  A    between atoms: C_5  and  O_6
REMARK    6  A    between atoms: O_6  and  C_7
REMARK    7  A    between atoms: C_7  and  C_9
REMARK    8  A    between atoms: C_9  and  C_10
REMARK    9  A    between atoms: C_10  and  C_11
REMARK   10  A    between atoms: C_11  and  N_12
REMARK   11  A    between atoms: C_13  and  O_15
REMARK   12  A    between atoms: O_15  and  C_16
REMARK                            x       y       z     vdW  Elec       q    Type
REMARK                         _______ _______ _______ _____ _____    ______ ____
ROOT
ATOM      1  N   UNL     1       3.363   3.119  20.263  0.00  0.00    +0.000 N 
ATOM      2  C   UNL     1       4.197   2.536  19.319  0.00  0.00    +0.000 C 
ATOM      3  O   UNL     1       3.845   1.630  18.598  0.00  0.00    +0.000 OA
ATOM      4  H   UNL     1       3.717   3.880  20.823  0.00  0.00    +0.000 HD
ENDROOT
BRANCH   1   5
ATOM      5  C   UNL     1       1.985   2.657  20.401  0.00  0.00    +0.000 C 
BRANCH   5   6
ATOM      6  C   UNL     1       0.973   3.804  20.472  0.00  0.00    +0.000 C 
BRANCH   6   7
ATOM      7  C   UNL     1       1.634   5.186  20.624  0.00  0.00    +0.000 C 
BRANCH   7   8
ATOM      8  C   UNL     1       2.002   5.776  19.275  0.00  0.00    +0.000 C 
ATOM      9  O   UNL     1       1.889   5.161  18.216  0.00  0.00    +0.000 OA
BRANCH   8  10
ATOM     10  O   UNL     1       2.530   7.025  19.395  0.00  0.00    +0.000 OA
BRANCH  10  11
ATOM     11  C   UNL     1       2.833   7.661  18.138  0.00  0.00    +0.000 C 
BRANCH  11  12
ATOM     12  C   UNL     1       1.812   8.736  17.786  0.00  0.00    +0.000 C 
BRANCH  12  13
ATOM     13  C   UNL     1       1.217   9.376  19.043  0.00  0.00    +0.000 C 
BRANCH  13  15
ATOM     14  C   UNL     1       0.961  11.599  20.193  0.00  0.00    +0.000 C 
ATOM     15  C   UNL     1       0.997  10.877  18.855  0.00  0.00    +0.000 C 
ENDBRANCH  13  15
ENDBRANCH  12  13
ENDBRANCH  11  12
ENDBRANCH  10  11
ENDBRANCH   8  10
ENDBRANCH   7   8
ENDBRANCH   6   7
ENDBRANCH   5   6
ENDBRANCH   1   5
BRANCH   2  16
ATOM     16  O   UNL     1       5.468   3.132  19.303  0.00  0.00    +0.000 OA
BRANCH  16  17
ATOM     17  C   UNL     1       5.683   4.213  18.403  0.00  0.00    +0.000 A 
ATOM     18  C   UNL     1       4.914   4.337  17.241  0.00  0.00    +0.000 A 
ATOM     19  C   UNL     1       5.115   5.414  16.374  0.00  0.00    +0.000 A 
ATOM     20  C   UNL     1       6.065   6.386  16.671  0.00  0.00    +0.000 A 
ATOM     21  C   UNL     1       6.801   6.287  17.855  0.00  0.00    +0.000 A 
ATOM     22 CL   UNL     1       7.977   7.497  18.206  0.00  0.00    +0.000 Cl
ATOM     23  C   UNL     1       6.602   5.213  18.737  0.00  0.00    +0.000 A 
ENDBRANCH  16  17
ENDBRANCH   2  16
TORSDOF 11
ENDMDL
MODEL 8
REMARK VINA RESULT:      -5.9      2.834      6.420
REMARK  Name = 
REMARK  12 active torsions:
REMARK  status: ('A' for Active; 'I' for Inactive)
REMARK    1  A    between atoms: C_1  and  C_2
REMARK    2  A    between atoms: C_2  and  C_3
REMARK    3  A    between atoms: C_3  and  C_4
REMARK    4  A    between atoms: C_4  and  C_5
REMARK    5  A    between atoms: C_5  and  O_6
REMARK    6  A    between atoms: O_6  and  C_7
REMARK    7  A    between atoms: C_7  and  C_9
REMARK    8  A    between atoms: C_9  and  C_10
REMARK    9  A    between atoms: C_10  and  C_11
REMARK   10  A    between atoms: C_11  and  N_12
REMARK   11  A    between atoms: C_13  and  O_15
REMARK   12  A    between atoms: O_15  and  C_16
REMARK                            x       y       z     vdW  Elec       q    Type
REMARK                         _______ _______ _______ _____ _____    ______ ____
ROOT
ATOM      1  N   UNL     1       3.552   3.364  20.613  0.00  0.00    +0.000 N 
ATOM      2  C   UNL     1       4.350   2.726  19.672  0.00  0.00    +0.000 C 
ATOM      3  O   UNL     1       4.046   1.676  19.153  0.00  0.00    +0.000 OA
ATOM      4  H   UNL     1       3.860   4.245  20.995  0.00  0.00    +0.000 HD
ENDROOT
BRANCH   1   5
ATOM      5  C   UNL     1       2.272   2.777  20.998  0.00  0.00    +0.000 C 
BRANCH   5   6
ATOM      6  C   UNL     1       1.279   2.692  19.835  0.00  0.00    +0.000 C 
BRANCH   6   7
ATOM      7  C   UNL     1       0.979   4.057  19.193  0.00  0.00    +0.000 C 
BRANCH   7   8
ATOM      8  C   UNL     1       1.721   4.228  17.879  0.00  0.00    +0.000 C 
ATOM      9  O   UNL     1       1.913   3.306  17.089  0.00  0.00    +0.000 OA
BRANCH   8  10
ATOM     10  O   UNL     1       2.196   5.495  17.726  0.00  0.00    +0.000 OA
BRANCH  10  11
ATOM     11  C   UNL     1       2.265   6.251  18.950  0.00  0.00    +0.000 C 
BRANCH  11  12
ATOM     12  C   UNL     1       2.667   7.700  18.699  0.00  0.00    +0.000 C 
BRANCH  12  13
ATOM     13  C   UNL     1       1.637   8.422  17.827  0.00  0.00    +0.000 C 
BRANCH  13  15
ATOM     14  C   UNL     1      -0.252  10.013  18.306  0.00  0.00    +0.000 C 
ATOM     15  C   UNL     1       1.243   9.771  18.430  0.00  0.00    +0.000 C 
ENDBRANCH  13  15
ENDBRANCH  12  13
ENDBRANCH  11  12
ENDBRANCH  10  11
ENDBRANCH   8  10
ENDBRANCH   7   8
ENDBRANCH   6   7
ENDBRANCH   5   6
ENDBRANCH   1   5
BRANCH   2  16
ATOM     16  O   UNL     1       5.520   3.453  19.398  0.00  0.00    +0.000 OA
BRANCH  16  17
ATOM     17  C   UNL     1       5.510   4.333  18.281  0.00  0.00    +0.000 A 
ATOM     18  C   UNL     1       5.734   5.703  18.451  0.00  0.00    +0.000 A 
ATOM     19  C   UNL     1       5.747   6.559  17.346  0.00  0.00    +0.000 A 
ATOM     20  C   UNL     1       5.561   6.051  16.063  0.00  0.00    +0.000 A 
ATOM     21  C   UNL     1       5.383   4.676  15.890  0.00  0.00    +0.000 A 
ATOM     22 CL   UNL     1       5.151   4.063  14.295  0.00  0.00    +0.000 Cl
ATOM     23  C   UNL     1       5.376   3.806  16.992  0.00  0.00    +0.000 A 
ENDBRANCH  16  17
ENDBRANCH   2  16
TORSDOF 11
ENDMDL
MODEL 9
REMARK VINA RESULT:      -5.8      2.626      3.487
REMARK  Name = 
REMARK  12 active torsions:
REMARK  status: ('A' for Active; 'I' for Inactive)
REMARK    1  A    between atoms: C_1  and  C_2
REMARK    2  A    between atoms: C_2  and  C_3
REMARK    3  A    between atoms: C_3  and  C_4
REMARK    4  A    between atoms: C_4  and  C_5
REMARK    5  A    between atoms: C_5  and  O_6
REMARK    6  A    between atoms: O_6  and  C_7
REMARK    7  A    between atoms: C_7  and  C_9
REMARK    8  A    between atoms: C_9  and  C_10
REMARK    9  A    between atoms: C_10  and  C_11
REMARK   10  A    between atoms: C_11  and  N_12
REMARK   11  A    between atoms: C_13  and  O_15
REMARK   12  A    between atoms: O_15  and  C_16
REMARK                            x       y       z     vdW  Elec       q    Type
REMARK                         _______ _______ _______ _____ _____    ______ ____
ROOT
ATOM      1  N   UNL     1       4.938   5.033  18.106  0.00  0.00    +0.000 N 
ATOM      2  C   UNL     1       3.915   4.125  17.868  0.00  0.00    +0.000 C 
ATOM      3  O   UNL     1       4.081   2.927  17.879  0.00  0.00    +0.000 OA
ATOM      4  H   UNL     1       4.727   6.020  18.095  0.00  0.00    +0.000 HD
ENDROOT
BRANCH   1   5
ATOM      5  C   UNL     1       6.283   4.551  18.409  0.00  0.00    +0.000 C 
BRANCH   5   6
ATOM      6  C   UNL     1       7.371   5.585  18.106  0.00  0.00    +0.000 C 
BRANCH   6   7
ATOM      7  C   UNL     1       6.895   6.708  17.167  0.00  0.00    +0.000 C 
BRANCH   7   8
ATOM      8  C   UNL     1       6.437   6.156  15.829  0.00  0.00    +0.000 C 
ATOM      9  O   UNL     1       5.339   6.410  15.336  0.00  0.00    +0.000 OA
BRANCH   8  10
ATOM     10  O   UNL     1       7.352   5.303  15.292  0.00  0.00    +0.000 OA
BRANCH  10  11
ATOM     11  C   UNL     1       7.213   5.107  13.871  0.00  0.00    +0.000 C 
BRANCH  11  12
ATOM     12  C   UNL     1       6.299   3.932  13.547  0.00  0.00    +0.000 C 
BRANCH  12  13
ATOM     13  C   UNL     1       6.596   3.360  12.158  0.00  0.00    +0.000 C 
BRANCH  13  15
ATOM     14  C   UNL     1       4.187   3.291  11.437  0.00  0.00    +0.000 C 
ATOM     15  C   UNL     1       5.451   2.477  11.662  0.00  0.00    +0.000 C 
ENDBRANCH  13  15
ENDBRANCH  12  13
ENDBRANCH  11  12
ENDBRANCH  10  11
ENDBRANCH   8  10
ENDBRANCH   7   8
ENDBRANCH   6   7
ENDBRANCH   5   6
ENDBRANCH   1   5
BRANCH   2  16
ATOM     16  O   UNL     1       2.689   4.768  17.634  0.00  0.00    +0.000 OA
BRANCH  16  17
ATOM     17  C   UNL     1       2.354   5.881  18.453  0.00  0.00    +0.000 A 
ATOM     18  C   UNL     1       2.106   5.711  19.819  0.00  0.00    +0.000 A 
ATOM     19  C   UNL     1       1.801   6.813  20.624  0.00  0.00    +0.000 A 
ATOM     20  C   UNL     1       1.767   8.093  20.077  0.00  0.00    +0.000 A 
ATOM     21  C   UNL     1       2.061   8.267  18.722  0.00  0.00    +0.000 A 
ATOM     22 CL   UNL     1       2.011   9.858  18.060  0.00  0.00    +0.000 Cl
ATOM     23  C   UNL     1       2.376   7.169  17.907  0.00  0.00    +0.000 A 
ENDBRANCH  16  17
ENDBRANCH   2  16
TORSDOF 11
ENDMDL
