MODEL 1
REMARK VINA RESULT:      -7.6      0.000      0.000
REMARK  Name = 
REMARK  6 active torsions:
REMARK  status: ('A' for Active; 'I' for Inactive)
REMARK    1  A    between atoms: C_1  and  C_2
REMARK    2  A    between atoms: C_2  and  C_3
REMARK    3  A    between atoms: C_3  and  C_4
REMARK    4  A    between atoms: C_10  and  C_11
REMARK    5  A    between atoms: C_11  and  C_12
REMARK    6  A    between atoms: C_12  and  C_13
REMARK                            x       y       z     vdW  Elec       q    Type
REMARK                         _______ _______ _______ _____ _____    ______ ____
ROOT
ATOM      1  C   UNL     1       6.805   3.807  12.681  0.00  0.00    +0.000 C 
ATOM      2  O   UNL     1       7.379   4.884  12.604  0.00  0.00    +0.000 OA
ATOM      3  N   UNL     1       5.993   3.520  13.742  0.00  0.00    +0.000 N 
ATOM      4  C   UNL     1       5.728   4.439  14.796  0.00  0.00    +0.000 A 
ATOM      5  N   UNL     1       6.103   5.736  14.789  0.00  0.00    +0.000 NA
ATOM      6  N   UNL     1       5.737   6.393  15.885  0.00  0.00    +0.000 NA
ATOM      7  C   UNL     1       5.078   5.622  16.781  0.00  0.00    +0.000 A 
ATOM      8  S   UNL     1       4.903   4.044  16.212  0.00  0.00    +0.000 S 
ATOM      9  H   UNL     1       5.568   2.584  13.803  0.00  0.00    +0.000 HD
ENDROOT
BRANCH   1  10
ATOM     10  C   UNL     1       7.033   2.785  11.599  0.00  0.00    +0.000 C 
BRANCH  10  12
ATOM     11  C   UNL     1       6.208   0.442  11.137  0.00  0.00    +0.000 C 
ATOM     12  C   UNL     1       5.805   1.884  11.432  0.00  0.00    +0.000 C 
ENDBRANCH  10  12
ENDBRANCH   1  10
BRANCH   7  13
ATOM     13  C   UNL     1       4.577   6.108  18.111  0.00  0.00    +0.000 C 
BRANCH  13  14
ATOM     14  C   UNL     1       3.054   6.320  18.107  0.00  0.00    +0.000 C 
BRANCH  14  15
ATOM     15  C   UNL     1       2.311   5.191  18.780  0.00  0.00    +0.000 A 
ATOM     16  C   UNL     1       2.211   5.146  20.182  0.00  0.00    +0.000 A 
ATOM     17  C   UNL     1       1.507   4.110  20.805  0.00  0.00    +0.000 A 
ATOM     18  C   UNL     1       0.901   3.114  20.038  0.00  0.00    +0.000 A 
ATOM     19  C   UNL     1       0.994   3.150  18.644  0.00  0.00    +0.000 A 
ATOM     20  C   UNL     1       1.694   4.185  18.015  0.00  0.00    +0.000 A 
ENDBRANCH  14  15
ENDBRANCH  13  14
ENDBRANCH   7  13
TORSDOF 5
ENDMDL
MODEL 2
REMARK VINA RESULT:      -7.5      1.120      1.699
REMARK  Name = 
REMARK  6 active torsions:
REMARK  status: ('A' for Active; 'I' for Inactive)
REMARK    1  A    between atoms: C_1  and  C_2
REMARK    2  A    between atoms: C_2  and  C_3
REMARK    3  A    between atoms: C_3  and  C_4
REMARK    4  A    between atoms: C_10  and  C_11
REMARK    5  A    between atoms: C_11  and  C_12
REMARK    6  A    between atoms: C_12  and  C_13
REMARK                            x       y       z     vdW  Elec       q    Type
REMARK                         _______ _______ _______ _____ _____    ______ ____
ROOT
ATOM      1  C   UNL     1       6.887   4.587  13.440  0.00  0.00    +0.000 C 
ATOM      2  O   UNL     1       7.713   5.445  13.715  0.00  0.00    +0.000 OA
ATOM      3  N   UNL     1       5.947   4.201  14.354  0.00  0.00    +0.000 N 
ATOM      4  C   UNL     1       5.833   4.776  15.650  0.00  0.00    +0.000 A 
ATOM      5  N   UNL     1       6.517   5.865  16.064  0.00  0.00    +0.000 NA
ATOM      6  N   UNL     1       6.237   6.213  17.317  0.00  0.00    +0.000 NA
ATOM      7  C   UNL     1       5.338   5.398  17.916  0.00  0.00    +0.000 A 
ATOM      8  S   UNL     1       4.825   4.182  16.864  0.00  0.00    +0.000 S 
ATOM      9  H   UNL     1       5.300   3.438  14.108  0.00  0.00    +0.000 HD
ENDROOT
BRANCH   1  10
ATOM     10  C   UNL     1       6.942   3.937  12.084  0.00  0.00    +0.000 C 
BRANCH  10  12
ATOM     11  C   UNL     1       4.587   3.267  11.461  0.00  0.00    +0.000 C 
ATOM     12  C   UNL     1       5.934   2.786  11.989  0.00  0.00    +0.000 C 
ENDBRANCH  10  12
ENDBRANCH   1  10
BRANCH   7  13
ATOM     13  C   UNL     1       4.868   5.552  19.334  0.00  0.00    +0.000 C 
BRANCH  13  14
ATOM     14  C   UNL     1       3.388   5.965  19.405  0.00  0.00    +0.000 C 
BRANCH  14  15
ATOM     15  C   UNL     1       2.483   4.813  19.767  0.00  0.00    +0.000 A 
ATOM     16  C   UNL     1       1.721   4.170  18.774  0.00  0.00    +0.000 A 
ATOM     17  C   UNL     1       0.897   3.090  19.106  0.00  0.00    +0.000 A 
ATOM     18  C   UNL     1       0.825   2.643  20.426  0.00  0.00    +0.000 A 
ATOM     19  C   UNL     1       1.578   3.273  21.420  0.00  0.00    +0.000 A 
ATOM     20  C   UNL     1       2.407   4.352  21.094  0.00  0.00    +0.000 A 
ENDBRANCH  14  15
ENDBRANCH  13  14
ENDBRANCH   7  13
TORSDOF 5
ENDMDL
MODEL 3
REMARK VINA RESULT:      -7.3      4.478      6.727
REMARK  Name = 
REMARK  6 active torsions:
REMARK  status: ('A' for Active; 'I' for Inactive)
REMARK    1  A    between atoms: C_1  and  C_2
REMARK    2  A    between atoms: C_2  and  C_3
REMARK    3  A    between atoms: C_3  and  C_4
REMARK    4  A    between atoms: C_10  and  C_11
REMARK    5  A    between atoms: C_11  and  C_12
REMARK    6  A    between atoms: C_12  and  C_13
REMARK                            x       y       z     vdW  Elec       q    Type
REMARK                         _______ _______ _______ _____ _____    ______ ____
ROOT
ATOM      1  C   UNL     1       8.896   9.808  18.743  0.00  0.00    +0.000 C 
ATOM      2  O   UNL     1       8.353  10.253  17.741  0.00  0.00    +0.000 OA
ATOM      3  N   UNL     1       8.778   8.488  19.075  0.00  0.00    +0.000 N 
ATOM      4  C   UNL     1       8.066   7.543  18.285  0.00  0.00    +0.000 A 
ATOM      5  N   UNL     1       7.574   7.795  17.053  0.00  0.00    +0.000 NA
ATOM      6  N   UNL     1       6.949   6.751  16.515  0.00  0.00    +0.000 NA
ATOM      7  C   UNL     1       6.928   5.663  17.319  0.00  0.00    +0.000 A 
ATOM      8  S   UNL     1       7.731   5.963  18.771  0.00  0.00    +0.000 S 
ATOM      9  H   UNL     1       9.203   8.158  19.953  0.00  0.00    +0.000 HD
ENDROOT
BRANCH   1  10
ATOM     10  C   UNL     1       9.672  10.749  19.625  0.00  0.00    +0.000 C 
BRANCH  10  12
ATOM     11  C   UNL     1      11.879  11.969  19.785  0.00  0.00    +0.000 C 
ATOM     12  C   UNL     1      10.814  11.411  18.846  0.00  0.00    +0.000 C 
ENDBRANCH  10  12
ENDBRANCH   1  10
BRANCH   7  13
ATOM     13  C   UNL     1       6.267   4.361  16.964  0.00  0.00    +0.000 C 
BRANCH  13  14
ATOM     14  C   UNL     1       4.931   4.577  16.233  0.00  0.00    +0.000 C 
BRANCH  14  15
ATOM     15  C   UNL     1       3.738   4.335  17.126  0.00  0.00    +0.000 A 
ATOM     16  C   UNL     1       3.201   3.042  17.256  0.00  0.00    +0.000 A 
ATOM     17  C   UNL     1       2.107   2.813  18.097  0.00  0.00    +0.000 A 
ATOM     18  C   UNL     1       1.541   3.870  18.813  0.00  0.00    +0.000 A 
ATOM     19  C   UNL     1       2.068   5.159  18.692  0.00  0.00    +0.000 A 
ATOM     20  C   UNL     1       3.163   5.392  17.855  0.00  0.00    +0.000 A 
ENDBRANCH  14  15
ENDBRANCH  13  14
ENDBRANCH   7  13
TORSDOF 5
ENDMDL
MODEL 4
REMARK VINA RESULT:      -7.2      0.930      1.334
REMARK  Name = 
REMARK  6 active torsions:
REMARK  status: ('A' for Active; 'I' for Inactive)
REMARK    1  A    between atoms: C_1  and  C_2
REMARK    2  A    between atoms: C_2  and  C_3
REMARK    3  A    between atoms: C_3  and  C_4
REMARK    4  A    between atoms: C_10  and  C_11
REMARK    5  A    between atoms: C_11  and  C_12
REMARK    6  A    between atoms: C_12  and  C_13
REMARK                            x       y       z     vdW  Elec       q    Type
REMARK                         _______ _______ _______ _____ _____    ______ ____
ROOT
ATOM      1  C   UNL     1       6.833   3.932  12.704  0.00  0.00    +0.000 C 
ATOM      2  O   UNL     1       7.494   4.960  12.709  0.00  0.00    +0.000 OA
ATOM      3  N   UNL     1       6.007   3.624  13.749  0.00  0.00    +0.000 N 
ATOM      4  C   UNL     1       5.827   4.470  14.879  0.00  0.00    +0.000 A 
ATOM      5  N   UNL     1       6.310   5.728  14.975  0.00  0.00    +0.000 NA
ATOM      6  N   UNL     1       6.008   6.318  16.128  0.00  0.00    +0.000 NA
ATOM      7  C   UNL     1       5.293   5.531  16.965  0.00  0.00    +0.000 A 
ATOM      8  S   UNL     1       4.982   4.026  16.269  0.00  0.00    +0.000 S 
ATOM      9  H   UNL     1       5.506   2.725  13.737  0.00  0.00    +0.000 HD
ENDROOT
BRANCH   1  10
ATOM     10  C   UNL     1       6.967   2.990  11.538  0.00  0.00    +0.000 C 
BRANCH  10  12
ATOM     11  C   UNL     1       6.292   0.589  11.132  0.00  0.00    +0.000 C 
ATOM     12  C   UNL     1       5.810   1.986  11.511  0.00  0.00    +0.000 C 
ENDBRANCH  10  12
ENDBRANCH   1  10
BRANCH   7  13
ATOM     13  C   UNL     1       4.843   5.943  18.338  0.00  0.00    +0.000 C 
BRANCH  13  14
ATOM     14  C   UNL     1       4.892   4.770  19.333  0.00  0.00    +0.000 C 
BRANCH  14  15
ATOM     15  C   UNL     1       3.517   4.285  19.721  0.00  0.00    +0.000 A 
ATOM     16  C   UNL     1       3.199   2.917  19.642  0.00  0.00    +0.000 A 
ATOM     17  C   UNL     1       1.931   2.465  20.021  0.00  0.00    +0.000 A 
ATOM     18  C   UNL     1       0.971   3.370  20.478  0.00  0.00    +0.000 A 
ATOM     19  C   UNL     1       1.277   4.731  20.561  0.00  0.00    +0.000 A 
ATOM     20  C   UNL     1       2.544   5.189  20.188  0.00  0.00    +0.000 A 
ENDBRANCH  14  15
ENDBRANCH  13  14
ENDBRANCH   7  13
TORSDOF 5
ENDMDL
MODEL 5
REMARK VINA RESULT:      -7.2      3.651      5.720
REMARK  Name = 
REMARK  6 active torsions:
REMARK  status: ('A' for Active; 'I' for Inactive)
REMARK    1  A    between atoms: C_1  and  C_2
REMARK    2  A    between atoms: C_2  and  C_3
REMARK    3  A    between atoms: C_3  and  C_4
REMARK    4  A    between atoms: C_10  and  C_11
REMARK    5  A    between atoms: C_11  and  C_12
REMARK    6  A    between atoms: C_12  and  C_13
REMARK                            x       y       z     vdW  Elec       q    Type
REMARK                         _______ _______ _______ _____ _____    ______ ____
ROOT
ATOM      1  C   UNL     1       7.948   8.236  17.989  0.00  0.00    +0.000 C 
ATOM      2  O   UNL     1       8.521   7.505  18.784  0.00  0.00    +0.000 OA
ATOM      3  N   UNL     1       6.867   7.791  17.281  0.00  0.00    +0.000 N 
ATOM      4  C   UNL     1       6.313   6.489  17.434  0.00  0.00    +0.000 A 
ATOM      5  N   UNL     1       6.676   5.615  18.397  0.00  0.00    +0.000 NA
ATOM      6  N   UNL     1       6.013   4.464  18.336  0.00  0.00    +0.000 NA
ATOM      7  C   UNL     1       5.125   4.407  17.316  0.00  0.00    +0.000 A 
ATOM      8  S   UNL     1       5.118   5.845  16.435  0.00  0.00    +0.000 S 
ATOM      9  H   UNL     1       6.441   8.415  16.581  0.00  0.00    +0.000 HD
ENDROOT
BRANCH   1  10
ATOM     10  C   UNL     1       8.475   9.631  17.777  0.00  0.00    +0.000 C 
BRANCH  10  12
ATOM     11  C   UNL     1       9.608  11.603  18.878  0.00  0.00    +0.000 C 
ATOM     12  C   UNL     1       9.154  10.156  19.047  0.00  0.00    +0.000 C 
ENDBRANCH  10  12
ENDBRANCH   1  10
BRANCH   7  13
ATOM     13  C   UNL     1       4.266   3.214  17.007  0.00  0.00    +0.000 C 
BRANCH  13  14
ATOM     14  C   UNL     1       2.768   3.544  17.113  0.00  0.00    +0.000 C 
BRANCH  14  15
ATOM     15  C   UNL     1       2.278   3.553  18.541  0.00  0.00    +0.000 A 
ATOM     16  C   UNL     1       2.018   4.772  19.193  0.00  0.00    +0.000 A 
ATOM     17  C   UNL     1       1.546   4.781  20.510  0.00  0.00    +0.000 A 
ATOM     18  C   UNL     1       1.332   3.578  21.185  0.00  0.00    +0.000 A 
ATOM     19  C   UNL     1       1.586   2.362  20.546  0.00  0.00    +0.000 A 
ATOM     20  C   UNL     1       2.055   2.347  19.229  0.00  0.00    +0.000 A 
ENDBRANCH  14  15
ENDBRANCH  13  14
ENDBRANCH   7  13
TORSDOF 5
ENDMDL
MODEL 6
REMARK VINA RESULT:      -7.2      4.400      6.846
REMARK  Name = 
REMARK  6 active torsions:
REMARK  status: ('A' for Active; 'I' for Inactive)
REMARK    1  A    between atoms: C_1  and  C_2
REMARK    2  A    between atoms: C_2  and  C_3
REMARK    3  A    between atoms: C_3  and  C_4
REMARK    4  A    between atoms: C_10  and  C_11
REMARK    5  A    between atoms: C_11  and  C_12
REMARK    6  A    between atoms: C_12  and  C_13
REMARK                            x       y       z     vdW  Elec       q    Type
REMARK                         _______ _______ _______ _____ _____    ______ ____
ROOT
ATOM      1  C   UNL     1       8.989   9.812  18.725  0.00  0.00    +0.000 C 
ATOM      2  O   UNL     1       8.326  10.310  17.826  0.00  0.00    +0.000 OA
ATOM      3  N   UNL     1       8.881   8.483  19.023  0.00  0.00    +0.000 N 
ATOM      4  C   UNL     1       8.037   7.587  18.308  0.00  0.00    +0.000 A 
ATOM      5  N   UNL     1       7.385   7.900  17.167  0.00  0.00    +0.000 NA
ATOM      6  N   UNL     1       6.661   6.894  16.686  0.00  0.00    +0.000 NA
ATOM      7  C   UNL     1       6.720   5.775  17.445  0.00  0.00    +0.000 A 
ATOM      8  S   UNL     1       7.727   5.998  18.779  0.00  0.00    +0.000 S 
ATOM      9  H   UNL     1       9.414   8.108  19.820  0.00  0.00    +0.000 HD
ENDROOT
BRANCH   1  10
ATOM     10  C   UNL     1       9.909  10.698  19.522  0.00  0.00    +0.000 C 
BRANCH  10  12
ATOM     11  C   UNL     1       9.955  12.493  21.301  0.00  0.00    +0.000 C 
ATOM     12  C   UNL     1       9.167  11.330  20.705  0.00  0.00    +0.000 C 
ENDBRANCH  10  12
ENDBRANCH   1  10
BRANCH   7  13
ATOM     13  C   UNL     1       5.977   4.505  17.141  0.00  0.00    +0.000 C 
BRANCH  13  14
ATOM     14  C   UNL     1       4.542   4.781  16.663  0.00  0.00    +0.000 C 
BRANCH  14  15
ATOM     15  C   UNL     1       3.524   3.910  17.358  0.00  0.00    +0.000 A 
ATOM     16  C   UNL     1       3.870   2.613  17.777  0.00  0.00    +0.000 A 
ATOM     17  C   UNL     1       2.933   1.812  18.438  0.00  0.00    +0.000 A 
ATOM     18  C   UNL     1       1.647   2.295  18.684  0.00  0.00    +0.000 A 
ATOM     19  C   UNL     1       1.293   3.583  18.272  0.00  0.00    +0.000 A 
ATOM     20  C   UNL     1       2.227   4.390  17.614  0.00  0.00    +0.000 A 
ENDBRANCH  14  15
ENDBRANCH  13  14
ENDBRANCH   7  13
TORSDOF 5
ENDMDL
MODEL 7
REMARK VINA RESULT:      -7.0      1.044      1.356
REMARK  Name = 
REMARK  6 active torsions:
REMARK  status: ('A' for Active; 'I' for Inactive)
REMARK    1  A    between atoms: C_1  and  C_2
REMARK    2  A    between atoms: C_2  and  C_3
REMARK    3  A    between atoms: C_3  and  C_4
REMARK    4  A    between atoms: C_10  and  C_11
REMARK    5  A    between atoms: C_11  and  C_12
REMARK    6  A    between atoms: C_12  and  C_13
REMARK                            x       y       z     vdW  Elec       q    Type
REMARK                         _______ _______ _______ _____ _____    ______ ____
ROOT
ATOM      1  C   UNL     1       6.752   3.895  12.798  0.00  0.00    +0.000 C 
ATOM      2  O   UNL     1       7.387   4.939  12.765  0.00  0.00    +0.000 OA
ATOM      3  N   UNL     1       6.029   3.549  13.905  0.00  0.00    +0.000 N 
ATOM      4  C   UNL     1       5.930   4.370  15.063  0.00  0.00    +0.000 A 
ATOM      5  N   UNL     1       6.391   5.637  15.141  0.00  0.00    +0.000 NA
ATOM      6  N   UNL     1       6.178   6.199  16.328  0.00  0.00    +0.000 NA
ATOM      7  C   UNL     1       5.558   5.380  17.209  0.00  0.00    +0.000 A 
ATOM      8  S   UNL     1       5.221   3.881  16.513  0.00  0.00    +0.000 S 
ATOM      9  H   UNL     1       5.548   2.638  13.919  0.00  0.00    +0.000 HD
ENDROOT
BRANCH   1  10
ATOM     10  C   UNL     1       6.804   2.978  11.605  0.00  0.00    +0.000 C 
BRANCH  10  12
ATOM     11  C   UNL     1       4.308   3.112  11.233  0.00  0.00    +0.000 C 
ATOM     12  C   UNL     1       5.498   2.187  11.467  0.00  0.00    +0.000 C 
ENDBRANCH  10  12
ENDBRANCH   1  10
BRANCH   7  13
ATOM     13  C   UNL     1       5.223   5.757  18.624  0.00  0.00    +0.000 C 
BRANCH  13  14
ATOM     14  C   UNL     1       3.712   5.972  18.817  0.00  0.00    +0.000 C 
BRANCH  14  15
ATOM     15  C   UNL     1       3.064   4.855  19.597  0.00  0.00    +0.000 A 
ATOM     16  C   UNL     1       1.735   4.978  20.041  0.00  0.00    +0.000 A 
ATOM     17  C   UNL     1       1.127   3.936  20.748  0.00  0.00    +0.000 A 
ATOM     18  C   UNL     1       1.839   2.765  21.019  0.00  0.00    +0.000 A 
ATOM     19  C   UNL     1       3.159   2.632  20.582  0.00  0.00    +0.000 A 
ATOM     20  C   UNL     1       3.771   3.670  19.872  0.00  0.00    +0.000 A 
ENDBRANCH  14  15
ENDBRANCH  13  14
ENDBRANCH   7  13
TORSDOF 5
ENDMDL
MODEL 8
REMARK VINA RESULT:      -6.9      4.085      6.320
REMARK  Name = 
REMARK  6 active torsions:
REMARK  status: ('A' for Active; 'I' for Inactive)
REMARK    1  A    between atoms: C_1  and  C_2
REMARK    2  A    between atoms: C_2  and  C_3
REMARK    3  A    between atoms: C_3  and  C_4
REMARK    4  A    between atoms: C_10  and  C_11
REMARK    5  A    between atoms: C_11  and  C_12
REMARK    6  A    between atoms: C_12  and  C_13
REMARK                            x       y       z     vdW  Elec       q    Type
REMARK                         _______ _______ _______ _____ _____    ______ ____
ROOT
ATOM      1  C   UNL     1       8.568   9.328  18.503  0.00  0.00    +0.000 C 
ATOM      2  O   UNL     1       7.906   9.840  17.612  0.00  0.00    +0.000 OA
ATOM      3  N   UNL     1       8.509   7.982  18.735  0.00  0.00    +0.000 N 
ATOM      4  C   UNL     1       7.722   7.088  17.956  0.00  0.00    +0.000 A 
ATOM      5  N   UNL     1       7.086   7.428  16.814  0.00  0.00    +0.000 NA
ATOM      6  N   UNL     1       6.418   6.418  16.266  0.00  0.00    +0.000 NA
ATOM      7  C   UNL     1       6.506   5.267  16.972  0.00  0.00    +0.000 A 
ATOM      8  S   UNL     1       7.469   5.467  18.343  0.00  0.00    +0.000 S 
ATOM      9  H   UNL     1       9.038   7.591  19.528  0.00  0.00    +0.000 HD
ENDROOT
BRANCH   1  10
ATOM     10  C   UNL     1       9.429  10.211  19.366  0.00  0.00    +0.000 C 
BRANCH  10  12
ATOM     11  C   UNL     1       9.613  12.676  18.840  0.00  0.00    +0.000 C 
ATOM     12  C   UNL     1      10.134  11.278  18.522  0.00  0.00    +0.000 C 
ENDBRANCH  10  12
ENDBRANCH   1  10
BRANCH   7  13
ATOM     13  C   UNL     1       5.826   3.983  16.589  0.00  0.00    +0.000 C 
BRANCH  13  14
ATOM     14  C   UNL     1       4.297   4.139  16.535  0.00  0.00    +0.000 C 
BRANCH  14  15
ATOM     15  C   UNL     1       3.670   4.162  17.908  0.00  0.00    +0.000 A 
ATOM     16  C   UNL     1       2.792   5.200  18.268  0.00  0.00    +0.000 A 
ATOM     17  C   UNL     1       2.195   5.213  19.533  0.00  0.00    +0.000 A 
ATOM     18  C   UNL     1       2.471   4.194  20.448  0.00  0.00    +0.000 A 
ATOM     19  C   UNL     1       3.342   3.158  20.099  0.00  0.00    +0.000 A 
ATOM     20  C   UNL     1       3.938   3.139  18.835  0.00  0.00    +0.000 A 
ENDBRANCH  14  15
ENDBRANCH  13  14
ENDBRANCH   7  13
TORSDOF 5
ENDMDL
MODEL 9
REMARK VINA RESULT:      -6.9      1.382      1.832
REMARK  Name = 
REMARK  6 active torsions:
REMARK  status: ('A' for Active; 'I' for Inactive)
REMARK    1  A    between atoms: C_1  and  C_2
REMARK    2  A    between atoms: C_2  and  C_3
REMARK    3  A    between atoms: C_3  and  C_4
REMARK    4  A    between atoms: C_10  and  C_11
REMARK    5  A    between atoms: C_11  and  C_12
REMARK    6  A    between atoms: C_12  and  C_13
REMARK                            x       y       z     vdW  Elec       q    Type
REMARK                         _______ _______ _______ _____ _____    ______ ____
ROOT
ATOM      1  C   UNL     1       6.199   3.187  12.291  0.00  0.00    +0.000 C 
ATOM      2  O   UNL     1       7.262   3.756  12.088  0.00  0.00    +0.000 OA
ATOM      3  N   UNL     1       5.514   3.376  13.459  0.00  0.00    +0.000 N 
ATOM      4  C   UNL     1       5.953   4.254  14.489  0.00  0.00    +0.000 A 
ATOM      5  N   UNL     1       6.986   5.115  14.369  0.00  0.00    +0.000 NA
ATOM      6  N   UNL     1       7.200   5.832  15.468  0.00  0.00    +0.000 NA
ATOM      7  C   UNL     1       6.347   5.540  16.478  0.00  0.00    +0.000 A 
ATOM      8  S   UNL     1       5.244   4.351  16.016  0.00  0.00    +0.000 S 
ATOM      9  H   UNL     1       4.650   2.839  13.620  0.00  0.00    +0.000 HD
ENDROOT
BRANCH   1  10
ATOM     10  C   UNL     1       5.669   2.245  11.243  0.00  0.00    +0.000 C 
BRANCH  10  12
ATOM     11  C   UNL     1       6.127  -0.240  11.300  0.00  0.00    +0.000 C 
ATOM     12  C   UNL     1       6.683   1.135  10.944  0.00  0.00    +0.000 C 
ENDBRANCH  10  12
ENDBRANCH   1  10
BRANCH   7  13
ATOM     13  C   UNL     1       6.386   6.186  17.834  0.00  0.00    +0.000 C 
BRANCH  13  14
ATOM     14  C   UNL     1       6.279   5.149  18.965  0.00  0.00    +0.000 C 
BRANCH  14  15
ATOM     15  C   UNL     1       4.848   4.820  19.313  0.00  0.00    +0.000 A 
ATOM     16  C   UNL     1       3.879   5.839  19.362  0.00  0.00    +0.000 A 
ATOM     17  C   UNL     1       2.548   5.532  19.666  0.00  0.00    +0.000 A 
ATOM     18  C   UNL     1       2.175   4.212  19.924  0.00  0.00    +0.000 A 
ATOM     19  C   UNL     1       3.129   3.193  19.877  0.00  0.00    +0.000 A 
ATOM     20  C   UNL     1       4.460   3.493  19.570  0.00  0.00    +0.000 A 
ENDBRANCH  14  15
ENDBRANCH  13  14
ENDBRANCH   7  13
TORSDOF 5
ENDMDL
