MODEL 1
REMARK VINA RESULT:      -8.8      0.000      0.000
REMARK  Name = 
REMARK  3 active torsions:
REMARK  status: ('A' for Active; 'I' for Inactive)
REMARK    1  A    between atoms: C_1  and  C_2
REMARK    2  A    between atoms: C_14  and  O_15
REMARK    3  A    between atoms: C_16  and  C_17
REMARK                            x       y       z     vdW  Elec       q    Type
REMARK                         _______ _______ _______ _____ _____    ______ ____
ROOT
ATOM      1  C   UNL     1       0.332   8.828  21.916  0.00  0.00    +0.000 C 
ATOM      2  C   UNL     1       0.943   8.706  20.565  0.00  0.00    +0.000 A 
ATOM      3  N   UNL     1       1.790   7.690  20.313  0.00  0.00    +0.000 NA
ATOM      4  N   UNL     1       2.221   7.931  19.056  0.00  0.00    +0.000 N 
ATOM      5  C   UNL     1       3.226   7.146  18.503  0.00  0.00    +0.000 A 
ATOM      6  N   UNL     1       3.728   7.350  17.298  0.00  0.00    +0.000 NA
ATOM      7  C   UNL     1       4.735   6.420  17.180  0.00  0.00    +0.000 A 
ATOM      8  C   UNL     1       5.618   6.194  16.115  0.00  0.00    +0.000 A 
ATOM      9  C   UNL     1       6.577   5.181  16.238  0.00  0.00    +0.000 A 
ATOM     10  C   UNL     1       6.654   4.409  17.401  0.00  0.00    +0.000 A 
ATOM     11  C   UNL     1       5.780   4.620  18.476  0.00  0.00    +0.000 A 
ATOM     12  C   UNL     1       4.830   5.635  18.328  0.00  0.00    +0.000 A 
ATOM     13  N   UNL     1       3.839   6.112  19.153  0.00  0.00    +0.000 N 
ATOM     14  C   UNL     1       1.613   9.029  18.482  0.00  0.00    +0.000 A 
ATOM     15  C   UNL     1       0.791   9.582  19.448  0.00  0.00    +0.000 A 
ATOM     16  H   UNL     1       3.609   5.796  20.087  0.00  0.00    +0.000 HD
ENDROOT
BRANCH  15  17
ATOM     17  C   UNL     1       0.097  10.886  19.306  0.00  0.00    +0.000 C 
ATOM     18  O   UNL     1      -0.100  11.622  20.528  0.00  0.00    +0.000 OA
ATOM     19  C   UNL     1      -1.312  12.253  20.512  0.00  0.00    +0.000 C 
ATOM     20  O   UNL     1      -1.708  13.083  21.307  0.00  0.00    +0.000 OA
ATOM     21  C   UNL     1      -2.061  11.696  19.391  0.00  0.00    +0.000 A 
ATOM     22  C   UNL     1      -3.333  12.036  18.960  0.00  0.00    +0.000 A 
ATOM     23  C   UNL     1      -3.845  11.350  17.859  0.00  0.00    +0.000 A 
ATOM     24  C   UNL     1      -3.090  10.336  17.246  0.00  0.00    +0.000 A 
ATOM     25  C   UNL     1      -1.794  10.036  17.687  0.00  0.00    +0.000 A 
ATOM     26  C   UNL     1      -1.276  10.748  18.759  0.00  0.00    +0.000 A 
ENDBRANCH  15  17
BRANCH  14  27
ATOM     27  O   UNL     1       1.885   9.447  17.243  0.00  0.00    +0.000 OA
ATOM     28  H   UNL     1       2.718   9.971  17.271  0.00  0.00    +0.000 HD
ENDBRANCH  14  27
TORSDOF 2
ENDMDL
MODEL 2
REMARK VINA RESULT:      -8.7      3.014      8.352
REMARK  Name = 
REMARK  3 active torsions:
REMARK  status: ('A' for Active; 'I' for Inactive)
REMARK    1  A    between atoms: C_1  and  C_2
REMARK    2  A    between atoms: C_14  and  O_15
REMARK    3  A    between atoms: C_16  and  C_17
REMARK                            x       y       z     vdW  Elec       q    Type
REMARK                         _______ _______ _______ _____ _____    ______ ____
ROOT
ATOM      1  C   UNL     1       3.412   7.657  17.110  0.00  0.00    +0.000 C 
ATOM      2  C   UNL     1       2.613   7.742  18.362  0.00  0.00    +0.000 A 
ATOM      3  N   UNL     1       1.836   8.820  18.579  0.00  0.00    +0.000 NA
ATOM      4  N   UNL     1       1.341   8.620  19.818  0.00  0.00    +0.000 N 
ATOM      5  C   UNL     1       0.590   9.613  20.437  0.00  0.00    +0.000 A 
ATOM      6  N   UNL     1       0.111   9.505  21.663  0.00  0.00    +0.000 NA
ATOM      7  C   UNL     1      -0.487  10.719  21.909  0.00  0.00    +0.000 A 
ATOM      8  C   UNL     1      -1.141  11.172  23.064  0.00  0.00    +0.000 A 
ATOM      9  C   UNL     1      -1.666  12.470  23.075  0.00  0.00    +0.000 A 
ATOM     10  C   UNL     1      -1.541  13.300  21.957  0.00  0.00    +0.000 A 
ATOM     11  C   UNL     1      -0.892  12.865  20.795  0.00  0.00    +0.000 A 
ATOM     12  C   UNL     1      -0.379  11.565  20.806  0.00  0.00    +0.000 A 
ATOM     13  N   UNL     1       0.303  10.823  19.871  0.00  0.00    +0.000 N 
ATOM     14  C   UNL     1       1.725   7.409  20.360  0.00  0.00    +0.000 A 
ATOM     15  C   UNL     1       2.582   6.818  19.450  0.00  0.00    +0.000 A 
ATOM     16  H   UNL     1       0.582  11.110  18.941  0.00  0.00    +0.000 HD
ENDROOT
BRANCH  15  17
ATOM     17  C   UNL     1       3.371   5.590  19.723  0.00  0.00    +0.000 C 
ATOM     18  O   UNL     1       4.731   5.606  19.249  0.00  0.00    +0.000 OA
ATOM     19  C   UNL     1       5.085   4.372  18.780  0.00  0.00    +0.000 C 
ATOM     20  O   UNL     1       6.202   4.008  18.471  0.00  0.00    +0.000 OA
ATOM     21  C   UNL     1       3.855   3.596  18.669  0.00  0.00    +0.000 A 
ATOM     22  C   UNL     1       3.708   2.281  18.260  0.00  0.00    +0.000 A 
ATOM     23  C   UNL     1       2.417   1.756  18.228  0.00  0.00    +0.000 A 
ATOM     24  C   UNL     1       1.319   2.561  18.575  0.00  0.00    +0.000 A 
ATOM     25  C   UNL     1       1.503   3.879  19.014  0.00  0.00    +0.000 A 
ATOM     26  C   UNL     1       2.793   4.383  19.080  0.00  0.00    +0.000 A 
ENDBRANCH  15  17
BRANCH  14  27
ATOM     27  O   UNL     1       1.346   7.002  21.575  0.00  0.00    +0.000 OA
ATOM     28  H   UNL     1       0.511   7.471  21.809  0.00  0.00    +0.000 HD
ENDBRANCH  14  27
TORSDOF 2
ENDMDL
MODEL 3
REMARK VINA RESULT:      -8.5      2.914      8.204
REMARK  Name = 
REMARK  3 active torsions:
REMARK  status: ('A' for Active; 'I' for Inactive)
REMARK    1  A    between atoms: C_1  and  C_2
REMARK    2  A    between atoms: C_14  and  O_15
REMARK    3  A    between atoms: C_16  and  C_17
REMARK                            x       y       z     vdW  Elec       q    Type
REMARK                         _______ _______ _______ _____ _____    ______ ____
ROOT
ATOM      1  C   UNL     1       3.841   7.380  16.698  0.00  0.00    +0.000 C 
ATOM      2  C   UNL     1       2.945   7.735  17.831  0.00  0.00    +0.000 A 
ATOM      3  N   UNL     1       2.247   8.886  17.786  0.00  0.00    +0.000 NA
ATOM      4  N   UNL     1       1.628   8.938  18.985  0.00  0.00    +0.000 N 
ATOM      5  C   UNL     1       0.913  10.072  19.350  0.00  0.00    +0.000 A 
ATOM      6  N   UNL     1       0.320  10.212  20.523  0.00  0.00    +0.000 NA
ATOM      7  C   UNL     1      -0.192  11.488  20.501  0.00  0.00    +0.000 A 
ATOM      8  C   UNL     1      -0.905  12.178  21.493  0.00  0.00    +0.000 A 
ATOM      9  C   UNL     1      -1.316  13.492  21.235  0.00  0.00    +0.000 A 
ATOM     10  C   UNL     1      -1.022  14.105  20.014  0.00  0.00    +0.000 A 
ATOM     11  C   UNL     1      -0.312  13.432  19.012  0.00  0.00    +0.000 A 
ATOM     12  C   UNL     1       0.085  12.121  19.291  0.00  0.00    +0.000 A 
ATOM     13  N   UNL     1       0.782  11.183  18.565  0.00  0.00    +0.000 N 
ATOM     14  C   UNL     1       1.858   7.815  19.756  0.00  0.00    +0.000 A 
ATOM     15  C   UNL     1       2.739   7.018  19.048  0.00  0.00    +0.000 A 
ATOM     16  H   UNL     1       1.165  11.285  17.635  0.00  0.00    +0.000 HD
ENDROOT
BRANCH  15  17
ATOM     17  C   UNL     1       3.393   5.805  19.599  0.00  0.00    +0.000 C 
ATOM     18  O   UNL     1       4.799   5.673  19.317  0.00  0.00    +0.000 OA
ATOM     19  C   UNL     1       5.116   4.365  19.084  0.00  0.00    +0.000 C 
ATOM     20  O   UNL     1       6.233   3.897  18.985  0.00  0.00    +0.000 OA
ATOM     21  C   UNL     1       3.856   3.649  18.919  0.00  0.00    +0.000 A 
ATOM     22  C   UNL     1       3.664   2.297  18.687  0.00  0.00    +0.000 A 
ATOM     23  C   UNL     1       2.352   1.846  18.554  0.00  0.00    +0.000 A 
ATOM     24  C   UNL     1       1.282   2.753  18.629  0.00  0.00    +0.000 A 
ATOM     25  C   UNL     1       1.506   4.111  18.895  0.00  0.00    +0.000 A 
ATOM     26  C   UNL     1       2.812   4.547  19.063  0.00  0.00    +0.000 A 
ENDBRANCH  15  17
BRANCH  14  27
ATOM     27  O   UNL     1       1.340   7.652  20.976  0.00  0.00    +0.000 OA
ATOM     28  H   UNL     1       1.317   8.532  21.420  0.00  0.00    +0.000 HD
ENDBRANCH  14  27
TORSDOF 2
ENDMDL
MODEL 4
REMARK VINA RESULT:      -8.4      2.617      8.207
REMARK  Name = 
REMARK  3 active torsions:
REMARK  status: ('A' for Active; 'I' for Inactive)
REMARK    1  A    between atoms: C_1  and  C_2
REMARK    2  A    between atoms: C_14  and  O_15
REMARK    3  A    between atoms: C_16  and  C_17
REMARK                            x       y       z     vdW  Elec       q    Type
REMARK                         _______ _______ _______ _____ _____    ______ ____
ROOT
ATOM      1  C   UNL     1       2.204   5.193  20.836  0.00  0.00    +0.000 C 
ATOM      2  C   UNL     1       2.152   6.451  20.044  0.00  0.00    +0.000 A 
ATOM      3  N   UNL     1       1.619   7.557  20.596  0.00  0.00    +0.000 NA
ATOM      4  N   UNL     1       1.643   8.464  19.597  0.00  0.00    +0.000 N 
ATOM      5  C   UNL     1       1.039   9.704  19.766  0.00  0.00    +0.000 A 
ATOM      6  N   UNL     1       0.985  10.623  18.819  0.00  0.00    +0.000 NA
ATOM      7  C   UNL     1       0.243  11.643  19.368  0.00  0.00    +0.000 A 
ATOM      8  C   UNL     1      -0.147  12.865  18.801  0.00  0.00    +0.000 A 
ATOM      9  C   UNL     1      -0.920  13.746  19.567  0.00  0.00    +0.000 A 
ATOM     10  C   UNL     1      -1.297  13.416  20.871  0.00  0.00    +0.000 A 
ATOM     11  C   UNL     1      -0.917  12.200  21.454  0.00  0.00    +0.000 A 
ATOM     12  C   UNL     1      -0.143  11.338  20.672  0.00  0.00    +0.000 A 
ATOM     13  N   UNL     1       0.395  10.095  20.907  0.00  0.00    +0.000 N 
ATOM     14  C   UNL     1       2.245   7.982  18.451  0.00  0.00    +0.000 A 
ATOM     15  C   UNL     1       2.565   6.659  18.693  0.00  0.00    +0.000 A 
ATOM     16  H   UNL     1       0.315   9.538  21.748  0.00  0.00    +0.000 HD
ENDROOT
BRANCH  15  17
ATOM     17  C   UNL     1       3.057   5.716  17.658  0.00  0.00    +0.000 C 
ATOM     18  O   UNL     1       2.777   4.324  17.899  0.00  0.00    +0.000 OA
ATOM     19  C   UNL     1       3.828   3.551  17.494  0.00  0.00    +0.000 C 
ATOM     20  O   UNL     1       3.842   2.339  17.403  0.00  0.00    +0.000 OA
ATOM     21  C   UNL     1       4.945   4.455  17.248  0.00  0.00    +0.000 A 
ATOM     22  C   UNL     1       6.218   4.140  16.801  0.00  0.00    +0.000 A 
ATOM     23  C   UNL     1       7.125   5.187  16.649  0.00  0.00    +0.000 A 
ATOM     24  C   UNL     1       6.748   6.501  16.973  0.00  0.00    +0.000 A 
ATOM     25  C   UNL     1       5.443   6.793  17.394  0.00  0.00    +0.000 A 
ATOM     26  C   UNL     1       4.534   5.751  17.507  0.00  0.00    +0.000 A 
ENDBRANCH  15  17
BRANCH  14  27
ATOM     27  O   UNL     1       2.383   8.711  17.340  0.00  0.00    +0.000 OA
ATOM     28  H   UNL     1       1.512   9.123  17.133  0.00  0.00    +0.000 HD
ENDBRANCH  14  27
TORSDOF 2
ENDMDL
MODEL 5
REMARK VINA RESULT:      -8.2      2.745      8.270
REMARK  Name = 
REMARK  3 active torsions:
REMARK  status: ('A' for Active; 'I' for Inactive)
REMARK    1  A    between atoms: C_1  and  C_2
REMARK    2  A    between atoms: C_14  and  O_15
REMARK    3  A    between atoms: C_16  and  C_17
REMARK                            x       y       z     vdW  Elec       q    Type
REMARK                         _______ _______ _______ _____ _____    ______ ____
ROOT
ATOM      1  C   UNL     1       2.221   4.234  20.926  0.00  0.00    +0.000 C 
ATOM      2  C   UNL     1       2.134   5.626  20.409  0.00  0.00    +0.000 A 
ATOM      3  N   UNL     1       1.603   6.588  21.187  0.00  0.00    +0.000 NA
ATOM      4  N   UNL     1       1.590   7.679  20.392  0.00  0.00    +0.000 N 
ATOM      5  C   UNL     1       0.976   8.849  20.825  0.00  0.00    +0.000 A 
ATOM      6  N   UNL     1       0.888   9.940  20.086  0.00  0.00    +0.000 NA
ATOM      7  C   UNL     1       0.148  10.815  20.848  0.00  0.00    +0.000 A 
ATOM      8  C   UNL     1      -0.271  12.120  20.550  0.00  0.00    +0.000 A 
ATOM      9  C   UNL     1      -1.034  12.814  21.497  0.00  0.00    +0.000 A 
ATOM     10  C   UNL     1      -1.374  12.219  22.715  0.00  0.00    +0.000 A 
ATOM     11  C   UNL     1      -0.965  10.916  23.030  0.00  0.00    +0.000 A 
ATOM     12  C   UNL     1      -0.201  10.245  22.071  0.00  0.00    +0.000 A 
ATOM     13  N   UNL     1       0.358   8.989  22.035  0.00  0.00    +0.000 N 
ATOM     14  C   UNL     1       2.169   7.451  19.159  0.00  0.00    +0.000 A 
ATOM     15  C   UNL     1       2.511   6.112  19.119  0.00  0.00    +0.000 A 
ATOM     16  H   UNL     1       0.305   8.271  22.747  0.00  0.00    +0.000 HD
ENDROOT
BRANCH  15  17
ATOM     17  C   UNL     1       2.987   5.408  17.903  0.00  0.00    +0.000 C 
ATOM     18  O   UNL     1       2.834   3.976  17.912  0.00  0.00    +0.000 OA
ATOM     19  C   UNL     1       3.905   3.380  17.307  0.00  0.00    +0.000 C 
ATOM     20  O   UNL     1       4.004   2.208  17.001  0.00  0.00    +0.000 OA
ATOM     21  C   UNL     1       4.926   4.409  17.151  0.00  0.00    +0.000 A 
ATOM     22  C   UNL     1       6.178   4.290  16.570  0.00  0.00    +0.000 A 
ATOM     23  C   UNL     1       6.988   5.425  16.547  0.00  0.00    +0.000 A 
ATOM     24  C   UNL     1       6.539   6.625  17.123  0.00  0.00    +0.000 A 
ATOM     25  C   UNL     1       5.255   6.722  17.675  0.00  0.00    +0.000 A 
ATOM     26  C   UNL     1       4.440   5.600  17.662  0.00  0.00    +0.000 A 
ENDBRANCH  15  17
BRANCH  14  27
ATOM     27  O   UNL     1       2.270   8.393  18.217  0.00  0.00    +0.000 OA
ATOM     28  H   UNL     1       2.816   8.033  17.481  0.00  0.00    +0.000 HD
ENDBRANCH  14  27
TORSDOF 2
ENDMDL
MODEL 6
REMARK VINA RESULT:      -8.1      1.562      2.055
REMARK  Name = 
REMARK  3 active torsions:
REMARK  status: ('A' for Active; 'I' for Inactive)
REMARK    1  A    between atoms: C_1  and  C_2
REMARK    2  A    between atoms: C_14  and  O_15
REMARK    3  A    between atoms: C_16  and  C_17
REMARK                            x       y       z     vdW  Elec       q    Type
REMARK                         _______ _______ _______ _____ _____    ______ ____
ROOT
ATOM      1  C   UNL     1      -0.059   9.640  23.027  0.00  0.00    +0.000 C 
ATOM      2  C   UNL     1       0.513   9.422  21.671  0.00  0.00    +0.000 A 
ATOM      3  N   UNL     1       1.026   8.217  21.356  0.00  0.00    +0.000 NA
ATOM      4  N   UNL     1       1.531   8.393  20.117  0.00  0.00    +0.000 N 
ATOM      5  C   UNL     1       2.269   7.380  19.517  0.00  0.00    +0.000 A 
ATOM      6  N   UNL     1       2.830   7.496  18.326  0.00  0.00    +0.000 NA
ATOM      7  C   UNL     1       3.518   6.318  18.151  0.00  0.00    +0.000 A 
ATOM      8  C   UNL     1       4.314   5.903  17.073  0.00  0.00    +0.000 A 
ATOM      9  C   UNL     1       4.928   4.646  17.134  0.00  0.00    +0.000 A 
ATOM     10  C   UNL     1       4.753   3.819  18.248  0.00  0.00    +0.000 A 
ATOM     11  C   UNL     1       3.962   4.217  19.334  0.00  0.00    +0.000 A 
ATOM     12  C   UNL     1       3.357   5.474  19.248  0.00  0.00    +0.000 A 
ATOM     13  N   UNL     1       2.537   6.174  20.102  0.00  0.00    +0.000 N 
ATOM     14  C   UNL     1       1.285   9.654  19.611  0.00  0.00    +0.000 A 
ATOM     15  C   UNL     1       0.647  10.368  20.610  0.00  0.00    +0.000 A 
ATOM     16  H   UNL     1       2.207   5.886  21.014  0.00  0.00    +0.000 HD
ENDROOT
BRANCH  15  17
ATOM     17  C   UNL     1       0.372  11.825  20.549  0.00  0.00    +0.000 C 
ATOM     18  O   UNL     1       0.854  12.597  21.665  0.00  0.00    +0.000 OA
ATOM     19  C   UNL     1      -0.036  13.585  21.978  0.00  0.00    +0.000 C 
ATOM     20  O   UNL     1       0.146  14.506  22.750  0.00  0.00    +0.000 OA
ATOM     21  C   UNL     1      -1.266  13.290  21.250  0.00  0.00    +0.000 A 
ATOM     22  C   UNL     1      -2.443  14.019  21.231  0.00  0.00    +0.000 A 
ATOM     23  C   UNL     1      -3.494  13.525  20.459  0.00  0.00    +0.000 A 
ATOM     24  C   UNL     1      -3.349  12.315  19.759  0.00  0.00    +0.000 A 
ATOM     25  C   UNL     1      -2.134  11.617  19.774  0.00  0.00    +0.000 A 
ATOM     26  C   UNL     1      -1.080  12.133  20.514  0.00  0.00    +0.000 A 
ENDBRANCH  15  17
BRANCH  14  27
ATOM     27  O   UNL     1       1.690  10.044  18.400  0.00  0.00    +0.000 OA
ATOM     28  H   UNL     1       0.918  10.434  17.929  0.00  0.00    +0.000 HD
ENDBRANCH  14  27
TORSDOF 2
ENDMDL
MODEL 7
REMARK VINA RESULT:      -7.8      2.467      3.360
REMARK  Name = 
REMARK  3 active torsions:
REMARK  status: ('A' for Active; 'I' for Inactive)
REMARK    1  A    between atoms: C_1  and  C_2
REMARK    2  A    between atoms: C_14  and  O_15
REMARK    3  A    between atoms: C_16  and  C_17
REMARK                            x       y       z     vdW  Elec       q    Type
REMARK                         _______ _______ _______ _____ _____    ______ ____
ROOT
ATOM      1  C   UNL     1       2.120  11.075  17.659  0.00  0.00    +0.000 C 
ATOM      2  C   UNL     1       1.875  10.061  18.719  0.00  0.00    +0.000 A 
ATOM      3  N   UNL     1       2.255   8.785  18.514  0.00  0.00    +0.000 NA
ATOM      4  N   UNL     1       1.807   8.132  19.607  0.00  0.00    +0.000 N 
ATOM      5  C   UNL     1       1.905   6.748  19.679  0.00  0.00    +0.000 A 
ATOM      6  N   UNL     1       1.449   6.039  20.696  0.00  0.00    +0.000 NA
ATOM      7  C   UNL     1       1.671   4.730  20.333  0.00  0.00    +0.000 A 
ATOM      8  C   UNL     1       1.365   3.550  21.026  0.00  0.00    +0.000 A 
ATOM      9  C   UNL     1       1.684   2.321  20.435  0.00  0.00    +0.000 A 
ATOM     10  C   UNL     1       2.294   2.270  19.179  0.00  0.00    +0.000 A 
ATOM     11  C   UNL     1       2.607   3.438  18.472  0.00  0.00    +0.000 A 
ATOM     12  C   UNL     1       2.282   4.652  19.083  0.00  0.00    +0.000 A 
ATOM     13  N   UNL     1       2.436   5.963  18.694  0.00  0.00    +0.000 N 
ATOM     14  C   UNL     1       1.221   8.974  20.531  0.00  0.00    +0.000 A 
ATOM     15  C   UNL     1       1.219  10.240  19.975  0.00  0.00    +0.000 A 
ATOM     16  H   UNL     1       2.833   6.306  17.829  0.00  0.00    +0.000 HD
ENDROOT
BRANCH  15  17
ATOM     17  C   UNL     1       0.511  11.407  20.558  0.00  0.00    +0.000 C 
ATOM     18  O   UNL     1       0.394  11.410  21.993  0.00  0.00    +0.000 OA
ATOM     19  C   UNL     1      -0.819  11.915  22.369  0.00  0.00    +0.000 C 
ATOM     20  O   UNL     1      -1.164  12.208  23.497  0.00  0.00    +0.000 OA
ATOM     21  C   UNL     1      -1.640  11.978  21.164  0.00  0.00    +0.000 A 
ATOM     22  C   UNL     1      -2.939  12.442  21.039  0.00  0.00    +0.000 A 
ATOM     23  C   UNL     1      -3.521  12.394  19.772  0.00  0.00    +0.000 A 
ATOM     24  C   UNL     1      -2.805  11.862  18.686  0.00  0.00    +0.000 A 
ATOM     25  C   UNL     1      -1.480  11.429  18.839  0.00  0.00    +0.000 A 
ATOM     26  C   UNL     1      -0.895  11.515  20.094  0.00  0.00    +0.000 A 
ENDBRANCH  15  17
BRANCH  14  27
ATOM     27  O   UNL     1       0.713   8.543  21.689  0.00  0.00    +0.000 OA
ATOM     28  H   UNL     1       0.278   7.673  21.529  0.00  0.00    +0.000 HD
ENDBRANCH  14  27
TORSDOF 2
ENDMDL
MODEL 8
REMARK VINA RESULT:      -7.8      1.680      2.458
REMARK  Name = 
REMARK  3 active torsions:
REMARK  status: ('A' for Active; 'I' for Inactive)
REMARK    1  A    between atoms: C_1  and  C_2
REMARK    2  A    between atoms: C_14  and  O_15
REMARK    3  A    between atoms: C_16  and  C_17
REMARK                            x       y       z     vdW  Elec       q    Type
REMARK                         _______ _______ _______ _____ _____    ______ ____
ROOT
ATOM      1  C   UNL     1       0.403   8.997  22.700  0.00  0.00    +0.000 C 
ATOM      2  C   UNL     1       0.798   8.730  21.291  0.00  0.00    +0.000 A 
ATOM      3  N   UNL     1       1.696   7.761  21.029  0.00  0.00    +0.000 NA
ATOM      4  N   UNL     1       1.892   7.850  19.697  0.00  0.00    +0.000 N 
ATOM      5  C   UNL     1       2.872   7.079  19.084  0.00  0.00    +0.000 A 
ATOM      6  N   UNL     1       3.149   7.145  17.794  0.00  0.00    +0.000 NA
ATOM      7  C   UNL     1       4.217   6.294  17.625  0.00  0.00    +0.000 A 
ATOM      8  C   UNL     1       4.936   5.988  16.460  0.00  0.00    +0.000 A 
ATOM      9  C   UNL     1       6.004   5.087  16.546  0.00  0.00    +0.000 A 
ATOM     10  C   UNL     1       6.349   4.502  17.768  0.00  0.00    +0.000 A 
ATOM     11  C   UNL     1       5.642   4.795  18.942  0.00  0.00    +0.000 A 
ATOM     12  C   UNL     1       4.578   5.695  18.831  0.00  0.00    +0.000 A 
ATOM     13  N   UNL     1       3.688   6.205  19.747  0.00  0.00    +0.000 N 
ATOM     14  C   UNL     1       1.086   8.799  19.099  0.00  0.00    +0.000 A 
ATOM     15  C   UNL     1       0.377   9.417  20.113  0.00  0.00    +0.000 A 
ATOM     16  H   UNL     1       3.646   6.010  20.739  0.00  0.00    +0.000 HD
ENDROOT
BRANCH  15  17
ATOM     17  C   UNL     1      -0.465  10.625  19.926  0.00  0.00    +0.000 C 
ATOM     18  O   UNL     1      -1.450  10.542  18.878  0.00  0.00    +0.000 OA
ATOM     19  C   UNL     1      -1.563  11.743  18.236  0.00  0.00    +0.000 C 
ATOM     20  O   UNL     1      -2.414  12.054  17.427  0.00  0.00    +0.000 OA
ATOM     21  C   UNL     1      -0.433  12.558  18.667  0.00  0.00    +0.000 A 
ATOM     22  C   UNL     1      -0.132  13.861  18.305  0.00  0.00    +0.000 A 
ATOM     23  C   UNL     1       1.020  14.430  18.847  0.00  0.00    +0.000 A 
ATOM     24  C   UNL     1       1.843  13.679  19.703  0.00  0.00    +0.000 A 
ATOM     25  C   UNL     1       1.495  12.373  20.075  0.00  0.00    +0.000 A 
ATOM     26  C   UNL     1       0.328  11.826  19.562  0.00  0.00    +0.000 A 
ENDBRANCH  15  17
BRANCH  14  27
ATOM     27  O   UNL     1       1.109   9.052  17.788  0.00  0.00    +0.000 OA
ATOM     28  H   UNL     1       1.922   8.642  17.410  0.00  0.00    +0.000 HD
ENDBRANCH  14  27
TORSDOF 2
ENDMDL
MODEL 9
REMARK VINA RESULT:      -7.8      7.826      9.502
REMARK  Name = 
REMARK  3 active torsions:
REMARK  status: ('A' for Active; 'I' for Inactive)
REMARK    1  A    between atoms: C_1  and  C_2
REMARK    2  A    between atoms: C_14  and  O_15
REMARK    3  A    between atoms: C_16  and  C_17
REMARK                            x       y       z     vdW  Elec       q    Type
REMARK                         _______ _______ _______ _____ _____    ______ ____
ROOT
ATOM      1  C   UNL     1      11.407  12.118  20.229  0.00  0.00    +0.000 C 
ATOM      2  C   UNL     1      10.252  11.657  19.413  0.00  0.00    +0.000 A 
ATOM      3  N   UNL     1       9.835  10.381  19.521  0.00  0.00    +0.000 NA
ATOM      4  N   UNL     1       8.858  10.279  18.595  0.00  0.00    +0.000 N 
ATOM      5  C   UNL     1       8.279   9.044  18.327  0.00  0.00    +0.000 A 
ATOM      6  N   UNL     1       7.350   8.860  17.406  0.00  0.00    +0.000 NA
ATOM      7  C   UNL     1       7.119   7.504  17.413  0.00  0.00    +0.000 A 
ATOM      8  C   UNL     1       6.243   6.746  16.621  0.00  0.00    +0.000 A 
ATOM      9  C   UNL     1       6.194   5.360  16.811  0.00  0.00    +0.000 A 
ATOM     10  C   UNL     1       7.001   4.741  17.770  0.00  0.00    +0.000 A 
ATOM     11  C   UNL     1       7.882   5.482  18.569  0.00  0.00    +0.000 A 
ATOM     12  C   UNL     1       7.912   6.864  18.364  0.00  0.00    +0.000 A 
ATOM     13  N   UNL     1       8.634   7.879  18.947  0.00  0.00    +0.000 N 
ATOM     14  C   UNL     1       8.596  11.476  17.958  0.00  0.00    +0.000 A 
ATOM     15  C   UNL     1       9.508  12.395  18.444  0.00  0.00    +0.000 A 
ATOM     16  H   UNL     1       9.330   7.798  19.677  0.00  0.00    +0.000 HD
ENDROOT
BRANCH  15  17
ATOM     17  C   UNL     1       9.696  13.758  17.886  0.00  0.00    +0.000 C 
ATOM     18  O   UNL     1      10.975  14.008  17.273  0.00  0.00    +0.000 OA
ATOM     19  C   UNL     1      11.388  15.283  17.539  0.00  0.00    +0.000 C 
ATOM     20  O   UNL     1      12.332  15.859  17.035  0.00  0.00    +0.000 OA
ATOM     21  C   UNL     1      10.514  15.797  18.588  0.00  0.00    +0.000 A 
ATOM     22  C   UNL     1      10.529  17.053  19.173  0.00  0.00    +0.000 A 
ATOM     23  C   UNL     1       9.590  17.309  20.171  0.00  0.00    +0.000 A 
ATOM     24  C   UNL     1       8.692  16.306  20.571  0.00  0.00    +0.000 A 
ATOM     25  C   UNL     1       8.681  15.055  19.938  0.00  0.00    +0.000 A 
ATOM     26  C   UNL     1       9.594  14.819  18.920  0.00  0.00    +0.000 A 
ENDBRANCH  15  17
BRANCH  14  27
ATOM     27  O   UNL     1       7.664  11.607  17.010  0.00  0.00    +0.000 OA
ATOM     28  H   UNL     1       6.782  11.467  17.425  0.00  0.00    +0.000 HD
ENDBRANCH  14  27
TORSDOF 2
ENDMDL
