MODEL 1
REMARK VINA RESULT:      -8.3      0.000      0.000
REMARK  Name = 
REMARK  2 active torsions:
REMARK  status: ('A' for Active; 'I' for Inactive)
REMARK    1  A    between atoms: N_7  and  C_8
REMARK    2  A    between atoms: C_8  and  C_9
REMARK                            x       y       z     vdW  Elec       q    Type
REMARK                         _______ _______ _______ _____ _____    ______ ____
ROOT
ATOM      1  O   UNL     1       0.790   3.050  21.061  0.00  0.00    +0.000 OA
ATOM      2  C   UNL     1       1.629   3.254  20.180  0.00  0.00    +0.000 C 
ATOM      3  C   UNL     1       2.165   2.119  19.377  0.00  0.00    +0.000 C 
ATOM      4  S   UNL     1       3.812   2.484  18.872  0.00  0.00    +0.000 S 
ATOM      5  O   UNL     1       4.608   2.848  20.019  0.00  0.00    +0.000 OA
ATOM      6  O   UNL     1       4.227   1.445  17.955  0.00  0.00    +0.000 OA
ATOM      7  N   UNL     1       3.440   3.890  17.981  0.00  0.00    +0.000 N 
ATOM      8  C   UNL     1       2.906   4.960  18.798  0.00  0.00    +0.000 A 
ATOM      9  C   UNL     1       3.185   6.306  18.530  0.00  0.00    +0.000 A 
ATOM     10  C   UNL     1       2.649   7.324  19.326  0.00  0.00    +0.000 A 
ATOM     11  C   UNL     1       1.803   7.008  20.385  0.00  0.00    +0.000 A 
ATOM     12 BR   UNL     1       1.080   8.388  21.453  0.00  0.00    +0.000 Br
ATOM     13  C   UNL     1       1.481   5.684  20.652  0.00  0.00    +0.000 A 
ATOM     14  C   UNL     1       2.022   4.659  19.859  0.00  0.00    +0.000 A 
ENDROOT
BRANCH   7  15
ATOM     15  C   UNL     1       4.280   4.131  16.788  0.00  0.00    +0.000 C 
BRANCH  15  16
ATOM     16  C   UNL     1       5.510   4.960  17.075  0.00  0.00    +0.000 A 
ATOM     17  C   UNL     1       6.478   4.529  17.997  0.00  0.00    +0.000 A 
ATOM     18  C   UNL     1       7.523   5.374  18.376  0.00  0.00    +0.000 A 
ATOM     19  C   UNL     1       7.624   6.657  17.834  0.00  0.00    +0.000 A 
ATOM     20  C   UNL     1       6.696   7.075  16.880  0.00  0.00    +0.000 A 
ATOM     21  C   UNL     1       5.658   6.227  16.508  0.00  0.00    +0.000 A 
ATOM     22  F   UNL     1       4.765   6.663  15.607  0.00  0.00    +0.000 F 
ENDBRANCH  15  16
ENDBRANCH   7  15
TORSDOF 2
ENDMDL
MODEL 2
REMARK VINA RESULT:      -7.6      3.157      5.308
REMARK  Name = 
REMARK  2 active torsions:
REMARK  status: ('A' for Active; 'I' for Inactive)
REMARK    1  A    between atoms: N_7  and  C_8
REMARK    2  A    between atoms: C_8  and  C_9
REMARK                            x       y       z     vdW  Elec       q    Type
REMARK                         _______ _______ _______ _____ _____    ______ ____
ROOT
ATOM      1  O   UNL     1       3.437   1.581  17.453  0.00  0.00    +0.000 OA
ATOM      2  C   UNL     1       3.313   2.697  17.965  0.00  0.00    +0.000 C 
ATOM      3  C   UNL     1       2.491   2.870  19.196  0.00  0.00    +0.000 C 
ATOM      4  S   UNL     1       1.797   4.488  19.214  0.00  0.00    +0.000 S 
ATOM      5  O   UNL     1       1.099   4.737  17.976  0.00  0.00    +0.000 OA
ATOM      6  O   UNL     1       1.160   4.674  20.500  0.00  0.00    +0.000 OA
ATOM      7  N   UNL     1       3.275   5.339  19.203  0.00  0.00    +0.000 N 
ATOM      8  C   UNL     1       4.048   5.127  17.997  0.00  0.00    +0.000 A 
ATOM      9  C   UNL     1       4.832   6.142  17.432  0.00  0.00    +0.000 A 
ATOM     10  C   UNL     1       5.579   5.911  16.272  0.00  0.00    +0.000 A 
ATOM     11  C   UNL     1       5.573   4.653  15.678  0.00  0.00    +0.000 A 
ATOM     12 BR   UNL     1       6.588   4.348  14.114  0.00  0.00    +0.000 Br
ATOM     13  C   UNL     1       4.833   3.619  16.237  0.00  0.00    +0.000 A 
ATOM     14  C   UNL     1       4.077   3.848  17.398  0.00  0.00    +0.000 A 
ENDROOT
BRANCH   7  15
ATOM     15  C   UNL     1       3.283   6.616  19.950  0.00  0.00    +0.000 C 
BRANCH  15  16
ATOM     16  C   UNL     1       2.284   7.624  19.431  0.00  0.00    +0.000 A 
ATOM     17  C   UNL     1       2.289   8.025  18.085  0.00  0.00    +0.000 A 
ATOM     18  C   UNL     1       1.473   9.074  17.654  0.00  0.00    +0.000 A 
ATOM     19  C   UNL     1       0.635   9.731  18.557  0.00  0.00    +0.000 A 
ATOM     20  C   UNL     1       0.588   9.306  19.885  0.00  0.00    +0.000 A 
ATOM     21  C   UNL     1       1.403   8.261  20.306  0.00  0.00    +0.000 A 
ATOM     22  F   UNL     1       1.355   7.888  21.594  0.00  0.00    +0.000 F 
ENDBRANCH  15  16
ENDBRANCH   7  15
TORSDOF 2
ENDMDL
MODEL 3
REMARK VINA RESULT:      -7.5      2.893      4.960
REMARK  Name = 
REMARK  2 active torsions:
REMARK  status: ('A' for Active; 'I' for Inactive)
REMARK    1  A    between atoms: N_7  and  C_8
REMARK    2  A    between atoms: C_8  and  C_9
REMARK                            x       y       z     vdW  Elec       q    Type
REMARK                         _______ _______ _______ _____ _____    ______ ____
ROOT
ATOM      1  O   UNL     1       6.623   7.659  17.126  0.00  0.00    +0.000 OA
ATOM      2  C   UNL     1       5.943   6.630  17.083  0.00  0.00    +0.000 C 
ATOM      3  C   UNL     1       6.594   5.313  16.831  0.00  0.00    +0.000 C 
ATOM      4  S   UNL     1       5.460   4.249  16.004  0.00  0.00    +0.000 S 
ATOM      5  O   UNL     1       4.939   4.904  14.830  0.00  0.00    +0.000 OA
ATOM      6  O   UNL     1       6.064   2.935  15.940  0.00  0.00    +0.000 OA
ATOM      7  N   UNL     1       4.266   4.247  17.221  0.00  0.00    +0.000 N 
ATOM      8  C   UNL     1       3.674   5.550  17.444  0.00  0.00    +0.000 A 
ATOM      9  C   UNL     1       2.324   5.701  17.785  0.00  0.00    +0.000 A 
ATOM     10  C   UNL     1       1.776   6.970  18.006  0.00  0.00    +0.000 A 
ATOM     11  C   UNL     1       2.582   8.101  17.917  0.00  0.00    +0.000 A 
ATOM     12 BR   UNL     1       1.836   9.811  18.221  0.00  0.00    +0.000 Br
ATOM     13  C   UNL     1       3.932   7.977  17.615  0.00  0.00    +0.000 A 
ATOM     14  C   UNL     1       4.484   6.707  17.387  0.00  0.00    +0.000 A 
ENDROOT
BRANCH   7  15
ATOM     15  C   UNL     1       3.510   2.984  17.373  0.00  0.00    +0.000 C 
BRANCH  15  16
ATOM     16  C   UNL     1       2.798   2.864  18.700  0.00  0.00    +0.000 A 
ATOM     17  C   UNL     1       1.396   2.891  18.778  0.00  0.00    +0.000 A 
ATOM     18  C   UNL     1       0.755   2.945  20.017  0.00  0.00    +0.000 A 
ATOM     19  C   UNL     1       1.502   2.963  21.197  0.00  0.00    +0.000 A 
ATOM     20  C   UNL     1       2.893   2.886  21.130  0.00  0.00    +0.000 A 
ATOM     21  C   UNL     1       3.524   2.833  19.892  0.00  0.00    +0.000 A 
ATOM     22  F   UNL     1       4.864   2.784  19.856  0.00  0.00    +0.000 F 
ENDBRANCH  15  16
ENDBRANCH   7  15
TORSDOF 2
ENDMDL
MODEL 4
REMARK VINA RESULT:      -7.3      2.878      4.947
REMARK  Name = 
REMARK  2 active torsions:
REMARK  status: ('A' for Active; 'I' for Inactive)
REMARK    1  A    between atoms: N_7  and  C_8
REMARK    2  A    between atoms: C_8  and  C_9
REMARK                            x       y       z     vdW  Elec       q    Type
REMARK                         _______ _______ _______ _____ _____    ______ ____
ROOT
ATOM      1  O   UNL     1       6.679   7.669  16.953  0.00  0.00    +0.000 OA
ATOM      2  C   UNL     1       5.982   6.651  16.989  0.00  0.00    +0.000 C 
ATOM      3  C   UNL     1       6.600   5.312  16.780  0.00  0.00    +0.000 C 
ATOM      4  S   UNL     1       5.418   4.228  16.054  0.00  0.00    +0.000 S 
ATOM      5  O   UNL     1       4.859   4.832  14.870  0.00  0.00    +0.000 OA
ATOM      6  O   UNL     1       5.997   2.902  16.034  0.00  0.00    +0.000 OA
ATOM      7  N   UNL     1       4.273   4.309  17.316  0.00  0.00    +0.000 N 
ATOM      8  C   UNL     1       3.712   5.632  17.495  0.00  0.00    +0.000 A 
ATOM      9  C   UNL     1       2.379   5.826  17.880  0.00  0.00    +0.000 A 
ATOM     10  C   UNL     1       1.862   7.114  18.058  0.00  0.00    +0.000 A 
ATOM     11  C   UNL     1       2.681   8.224  17.879  0.00  0.00    +0.000 A 
ATOM     12 BR   UNL     1       1.977   9.960  18.124  0.00  0.00    +0.000 Br
ATOM     13  C   UNL     1       4.016   8.061  17.531  0.00  0.00    +0.000 A 
ATOM     14  C   UNL     1       4.537   6.770  17.346  0.00  0.00    +0.000 A 
ENDROOT
BRANCH   7  15
ATOM     15  C   UNL     1       3.504   3.070  17.563  0.00  0.00    +0.000 C 
BRANCH  15  16
ATOM     16  C   UNL     1       2.877   3.013  18.936  0.00  0.00    +0.000 A 
ATOM     17  C   UNL     1       3.666   2.884  20.091  0.00  0.00    +0.000 A 
ATOM     18  C   UNL     1       3.071   2.667  21.336  0.00  0.00    +0.000 A 
ATOM     19  C   UNL     1       1.682   2.586  21.449  0.00  0.00    +0.000 A 
ATOM     20  C   UNL     1       0.889   2.762  20.315  0.00  0.00    +0.000 A 
ATOM     21  C   UNL     1       1.489   2.978  19.079  0.00  0.00    +0.000 A 
ATOM     22  F   UNL     1       0.704   3.120  18.001  0.00  0.00    +0.000 F 
ENDBRANCH  15  16
ENDBRANCH   7  15
TORSDOF 2
ENDMDL
MODEL 5
REMARK VINA RESULT:      -7.0      3.764      6.289
REMARK  Name = 
REMARK  2 active torsions:
REMARK  status: ('A' for Active; 'I' for Inactive)
REMARK    1  A    between atoms: N_7  and  C_8
REMARK    2  A    between atoms: C_8  and  C_9
REMARK                            x       y       z     vdW  Elec       q    Type
REMARK                         _______ _______ _______ _____ _____    ______ ____
ROOT
ATOM      1  O   UNL     1       7.907   7.263  16.008  0.00  0.00    +0.000 OA
ATOM      2  C   UNL     1       7.387   6.437  16.764  0.00  0.00    +0.000 C 
ATOM      3  C   UNL     1       7.407   6.654  18.238  0.00  0.00    +0.000 C 
ATOM      4  S   UNL     1       7.417   5.096  19.059  0.00  0.00    +0.000 S 
ATOM      5  O   UNL     1       8.491   4.279  18.549  0.00  0.00    +0.000 OA
ATOM      6  O   UNL     1       7.256   5.349  20.475  0.00  0.00    +0.000 OA
ATOM      7  N   UNL     1       5.937   4.530  18.429  0.00  0.00    +0.000 N 
ATOM      8  C   UNL     1       5.958   4.351  16.992  0.00  0.00    +0.000 A 
ATOM      9  C   UNL     1       5.250   3.317  16.364  0.00  0.00    +0.000 A 
ATOM     10  C   UNL     1       5.276   3.170  14.973  0.00  0.00    +0.000 A 
ATOM     11  C   UNL     1       5.988   4.074  14.191  0.00  0.00    +0.000 A 
ATOM     12 BR   UNL     1       6.016   3.871  12.312  0.00  0.00    +0.000 Br
ATOM     13  C   UNL     1       6.670   5.129  14.784  0.00  0.00    +0.000 A 
ATOM     14  C   UNL     1       6.651   5.276  16.180  0.00  0.00    +0.000 A 
ENDROOT
BRANCH   7  15
ATOM     15  C   UNL     1       5.143   3.671  19.335  0.00  0.00    +0.000 C 
BRANCH  15  16
ATOM     16  C   UNL     1       3.743   4.183  19.579  0.00  0.00    +0.000 A 
ATOM     17  C   UNL     1       3.488   5.556  19.733  0.00  0.00    +0.000 A 
ATOM     18  C   UNL     1       2.223   6.003  20.120  0.00  0.00    +0.000 A 
ATOM     19  C   UNL     1       1.192   5.090  20.350  0.00  0.00    +0.000 A 
ATOM     20  C   UNL     1       1.424   3.729  20.152  0.00  0.00    +0.000 A 
ATOM     21  C   UNL     1       2.686   3.291  19.766  0.00  0.00    +0.000 A 
ATOM     22  F   UNL     1       2.888   1.975  19.606  0.00  0.00    +0.000 F 
ENDBRANCH  15  16
ENDBRANCH   7  15
TORSDOF 2
ENDMDL
MODEL 6
REMARK VINA RESULT:      -6.9      6.602      8.241
REMARK  Name = 
REMARK  2 active torsions:
REMARK  status: ('A' for Active; 'I' for Inactive)
REMARK    1  A    between atoms: N_7  and  C_8
REMARK    2  A    between atoms: C_8  and  C_9
REMARK                            x       y       z     vdW  Elec       q    Type
REMARK                         _______ _______ _______ _____ _____    ______ ____
ROOT
ATOM      1  O   UNL     1      -2.964  12.836  21.852  0.00  0.00    +0.000 OA
ATOM      2  C   UNL     1      -2.011  12.447  21.172  0.00  0.00    +0.000 C 
ATOM      3  C   UNL     1      -0.642  12.396  21.758  0.00  0.00    +0.000 C 
ATOM      4  S   UNL     1       0.550  12.652  20.488  0.00  0.00    +0.000 S 
ATOM      5  O   UNL     1       0.242  13.860  19.763  0.00  0.00    +0.000 OA
ATOM      6  O   UNL     1       1.856  12.419  21.064  0.00  0.00    +0.000 OA
ATOM      7  N   UNL     1       0.118  11.304  19.537  0.00  0.00    +0.000 N 
ATOM      8  C   UNL     1      -1.225  11.387  19.002  0.00  0.00    +0.000 A 
ATOM      9  C   UNL     1      -1.552  10.879  17.738  0.00  0.00    +0.000 A 
ATOM     10  C   UNL     1      -2.859  10.961  17.246  0.00  0.00    +0.000 A 
ATOM     11  C   UNL     1      -3.863  11.527  18.027  0.00  0.00    +0.000 A 
ATOM     12 BR   UNL     1      -5.627  11.631  17.358  0.00  0.00    +0.000 Br
ATOM     13  C   UNL     1      -3.574  12.007  19.298  0.00  0.00    +0.000 A 
ATOM     14  C   UNL     1      -2.262  11.932  19.793  0.00  0.00    +0.000 A 
ENDROOT
BRANCH   7  15
ATOM     15  C   UNL     1       1.231  10.647  18.816  0.00  0.00    +0.000 C 
BRANCH  15  16
ATOM     16  C   UNL     1       1.447   9.209  19.224  0.00  0.00    +0.000 A 
ATOM     17  C   UNL     1       1.050   8.744  20.488  0.00  0.00    +0.000 A 
ATOM     18  C   UNL     1       1.402   7.461  20.915  0.00  0.00    +0.000 A 
ATOM     19  C   UNL     1       2.145   6.621  20.084  0.00  0.00    +0.000 A 
ATOM     20  C   UNL     1       2.501   7.057  18.808  0.00  0.00    +0.000 A 
ATOM     21  C   UNL     1       2.147   8.335  18.390  0.00  0.00    +0.000 A 
ATOM     22  F   UNL     1       2.523   8.738  17.167  0.00  0.00    +0.000 F 
ENDBRANCH  15  16
ENDBRANCH   7  15
TORSDOF 2
ENDMDL
MODEL 7
REMARK VINA RESULT:      -6.9      1.001      1.427
REMARK  Name = 
REMARK  2 active torsions:
REMARK  status: ('A' for Active; 'I' for Inactive)
REMARK    1  A    between atoms: N_7  and  C_8
REMARK    2  A    between atoms: C_8  and  C_9
REMARK                            x       y       z     vdW  Elec       q    Type
REMARK                         _______ _______ _______ _____ _____    ______ ____
ROOT
ATOM      1  O   UNL     1       0.689   2.971  21.084  0.00  0.00    +0.000 OA
ATOM      2  C   UNL     1       1.540   3.199  20.220  0.00  0.00    +0.000 C 
ATOM      3  C   UNL     1       2.097   2.084  19.404  0.00  0.00    +0.000 C 
ATOM      4  S   UNL     1       3.750   2.470  18.934  0.00  0.00    +0.000 S 
ATOM      5  O   UNL     1       4.524   2.816  20.100  0.00  0.00    +0.000 OA
ATOM      6  O   UNL     1       4.186   1.453  18.002  0.00  0.00    +0.000 OA
ATOM      7  N   UNL     1       3.382   3.891  18.065  0.00  0.00    +0.000 N 
ATOM      8  C   UNL     1       2.827   4.940  18.895  0.00  0.00    +0.000 A 
ATOM      9  C   UNL     1       3.101   6.294  18.658  0.00  0.00    +0.000 A 
ATOM     10  C   UNL     1       2.545   7.292  19.465  0.00  0.00    +0.000 A 
ATOM     11  C   UNL     1       1.685   6.949  20.503  0.00  0.00    +0.000 A 
ATOM     12 BR   UNL     1       0.935   8.302  21.588  0.00  0.00    +0.000 Br
ATOM     13  C   UNL     1       1.368   5.617  20.739  0.00  0.00    +0.000 A 
ATOM     14  C   UNL     1       1.928   4.612  19.934  0.00  0.00    +0.000 A 
ENDROOT
BRANCH   7  15
ATOM     15  C   UNL     1       4.239   4.162  16.891  0.00  0.00    +0.000 C 
BRANCH  15  16
ATOM     16  C   UNL     1       5.290   5.218  17.143  0.00  0.00    +0.000 A 
ATOM     17  C   UNL     1       5.199   6.490  16.555  0.00  0.00    +0.000 A 
ATOM     18  C   UNL     1       6.254   7.398  16.661  0.00  0.00    +0.000 A 
ATOM     19  C   UNL     1       7.412   7.055  17.363  0.00  0.00    +0.000 A 
ATOM     20  C   UNL     1       7.491   5.813  17.992  0.00  0.00    +0.000 A 
ATOM     21  C   UNL     1       6.435   4.913  17.882  0.00  0.00    +0.000 A 
ATOM     22  F   UNL     1       6.547   3.716  18.476  0.00  0.00    +0.000 F 
ENDBRANCH  15  16
ENDBRANCH   7  15
TORSDOF 2
ENDMDL
MODEL 8
REMARK VINA RESULT:      -6.8      9.166     10.822
REMARK  Name = 
REMARK  2 active torsions:
REMARK  status: ('A' for Active; 'I' for Inactive)
REMARK    1  A    between atoms: N_7  and  C_8
REMARK    2  A    between atoms: C_8  and  C_9
REMARK                            x       y       z     vdW  Elec       q    Type
REMARK                         _______ _______ _______ _____ _____    ______ ____
ROOT
ATOM      1  O   UNL     1      -6.721  11.114  19.030  0.00  0.00    +0.000 OA
ATOM      2  C   UNL     1      -5.704  11.632  19.500  0.00  0.00    +0.000 C 
ATOM      3  C   UNL     1      -5.714  12.185  20.883  0.00  0.00    +0.000 C 
ATOM      4  S   UNL     1      -4.574  13.522  20.988  0.00  0.00    +0.000 S 
ATOM      5  O   UNL     1      -4.846  14.482  19.947  0.00  0.00    +0.000 OA
ATOM      6  O   UNL     1      -4.485  13.910  22.379  0.00  0.00    +0.000 OA
ATOM      7  N   UNL     1      -3.181  12.629  20.575  0.00  0.00    +0.000 N 
ATOM      8  C   UNL     1      -3.223  12.096  19.229  0.00  0.00    +0.000 A 
ATOM      9  C   UNL     1      -2.070  11.987  18.441  0.00  0.00    +0.000 A 
ATOM     10  C   UNL     1      -2.131  11.459  17.146  0.00  0.00    +0.000 A 
ATOM     11  C   UNL     1      -3.344  11.005  16.636  0.00  0.00    +0.000 A 
ATOM     12 BR   UNL     1      -3.419  10.289  14.889  0.00  0.00    +0.000 Br
ATOM     13  C   UNL     1      -4.496  11.068  17.410  0.00  0.00    +0.000 A 
ATOM     14  C   UNL     1      -4.439  11.603  18.706  0.00  0.00    +0.000 A 
ENDROOT
BRANCH   7  15
ATOM     15  C   UNL     1      -1.928  13.059  21.232  0.00  0.00    +0.000 C 
BRANCH  15  16
ATOM     16  C   UNL     1      -1.088  11.910  21.740  0.00  0.00    +0.000 A 
ATOM     17  C   UNL     1       0.036  11.460  21.028  0.00  0.00    +0.000 A 
ATOM     18  C   UNL     1       0.705  10.298  21.418  0.00  0.00    +0.000 A 
ATOM     19  C   UNL     1       0.269   9.573  22.528  0.00  0.00    +0.000 A 
ATOM     20  C   UNL     1      -0.816  10.039  23.270  0.00  0.00    +0.000 A 
ATOM     21  C   UNL     1      -1.477  11.198  22.876  0.00  0.00    +0.000 A 
ATOM     22  F   UNL     1      -2.533  11.610  23.593  0.00  0.00    +0.000 F 
ENDBRANCH  15  16
ENDBRANCH   7  15
TORSDOF 2
ENDMDL
MODEL 9
REMARK VINA RESULT:      -6.8      3.669      6.222
REMARK  Name = 
REMARK  2 active torsions:
REMARK  status: ('A' for Active; 'I' for Inactive)
REMARK    1  A    between atoms: N_7  and  C_8
REMARK    2  A    between atoms: C_8  and  C_9
REMARK                            x       y       z     vdW  Elec       q    Type
REMARK                         _______ _______ _______ _____ _____    ______ ____
ROOT
ATOM      1  O   UNL     1       7.384   7.732  16.532  0.00  0.00    +0.000 OA
ATOM      2  C   UNL     1       6.913   6.679  16.971  0.00  0.00    +0.000 C 
ATOM      3  C   UNL     1       6.530   6.570  18.407  0.00  0.00    +0.000 C 
ATOM      4  S   UNL     1       6.719   4.902  18.939  0.00  0.00    +0.000 S 
ATOM      5  O   UNL     1       8.046   4.434  18.626  0.00  0.00    +0.000 OA
ATOM      6  O   UNL     1       6.171   4.807  20.275  0.00  0.00    +0.000 OA
ATOM      7  N   UNL     1       5.610   4.217  17.839  0.00  0.00    +0.000 N 
ATOM      8  C   UNL     1       6.014   4.361  16.456  0.00  0.00    +0.000 A 
ATOM      9  C   UNL     1       5.744   3.374  15.499  0.00  0.00    +0.000 A 
ATOM     10  C   UNL     1       6.134   3.539  14.165  0.00  0.00    +0.000 A 
ATOM     11  C   UNL     1       6.773   4.709  13.767  0.00  0.00    +0.000 A 
ATOM     12 BR   UNL     1       7.293   4.928  11.964  0.00  0.00    +0.000 Br
ATOM     13  C   UNL     1       7.022   5.720  14.687  0.00  0.00    +0.000 A 
ATOM     14  C   UNL     1       6.637   5.555  16.028  0.00  0.00    +0.000 A 
ENDROOT
BRANCH   7  15
ATOM     15  C   UNL     1       4.855   3.047  18.339  0.00  0.00    +0.000 C 
BRANCH  15  16
ATOM     16  C   UNL     1       3.472   3.393  18.841  0.00  0.00    +0.000 A 
ATOM     17  C   UNL     1       3.199   3.480  20.216  0.00  0.00    +0.000 A 
ATOM     18  C   UNL     1       1.888   3.637  20.671  0.00  0.00    +0.000 A 
ATOM     19  C   UNL     1       0.832   3.718  19.761  0.00  0.00    +0.000 A 
ATOM     20  C   UNL     1       1.100   3.681  18.393  0.00  0.00    +0.000 A 
ATOM     21  C   UNL     1       2.408   3.526  17.948  0.00  0.00    +0.000 A 
ATOM     22  F   UNL     1       2.634   3.469  16.627  0.00  0.00    +0.000 F 
ENDBRANCH  15  16
ENDBRANCH   7  15
TORSDOF 2
ENDMDL
