MODEL 1
REMARK VINA RESULT:      -8.9      0.000      0.000
REMARK  Name = 
REMARK  5 active torsions:
REMARK  status: ('A' for Active; 'I' for Inactive)
REMARK    1  A    between atoms: C_2  and  O_3
REMARK    2  A    between atoms: C_2  and  C_4
REMARK    3  A    between atoms: C_7  and  N_8
REMARK    4  A    between atoms: N_8  and  C_9
REMARK    5  A    between atoms: C_10  and  N_11
REMARK                            x       y       z     vdW  Elec       q    Type
REMARK                         _______ _______ _______ _____ _____    ______ ____
ROOT
ATOM      1  C   UNL     1       2.205   6.859  19.006  0.00  0.00    +0.000 C 
ATOM      2  C   UNL     1       2.824   5.953  18.211  0.00  0.00    +0.000 C 
ATOM      3  C   UNL     1       2.024   4.720  18.040  0.00  0.00    +0.000 C 
ATOM      4  O   UNL     1       1.750   4.258  16.934  0.00  0.00    +0.000 OA
ATOM      5  C   UNL     1       1.619   4.050  19.272  0.00  0.00    +0.000 A 
ATOM      6  C   UNL     1       1.332   2.687  19.279  0.00  0.00    +0.000 A 
ATOM      7  C   UNL     1       1.506   1.988  20.466  0.00  0.00    +0.000 A 
ATOM      8  C   UNL     1       1.954   2.663  21.609  0.00  0.00    +0.000 A 
ATOM      9  C   UNL     1       2.046   4.064  21.621  0.00  0.00    +0.000 A 
ATOM     10  C   UNL     1       1.806   4.765  20.441  0.00  0.00    +0.000 A 
ATOM     11  C   UNL     1       1.732   6.245  20.325  0.00  0.00    +0.000 C 
ATOM     12  O   UNL     1       1.353   6.910  21.278  0.00  0.00    +0.000 OA
ENDROOT
BRANCH   2  13
ATOM     13  N   UNL     1       4.073   6.182  17.615  0.00  0.00    +0.000 N 
ATOM     14  N   UNL     1       4.198   6.866  16.427  0.00  0.00    +0.000 NA
ATOM     15  N   UNL     1       5.464   7.112  16.168  0.00  0.00    +0.000 NA
ATOM     16  C   UNL     1       6.201   6.611  17.189  0.00  0.00    +0.000 A 
ATOM     17  C   UNL     1       7.591   6.652  17.364  0.00  0.00    +0.000 A 
ATOM     18  C   UNL     1       8.141   6.108  18.524  0.00  0.00    +0.000 A 
ATOM     19  C   UNL     1       7.314   5.544  19.493  0.00  0.00    +0.000 A 
ATOM     20  C   UNL     1       5.917   5.490  19.330  0.00  0.00    +0.000 A 
ATOM     21  C   UNL     1       5.372   6.019  18.144  0.00  0.00    +0.000 A 
ENDBRANCH   2  13
BRANCH   1  22
ATOM     22  N   UNL     1       2.337   8.258  18.964  0.00  0.00    +0.000 N 
ATOM     23  H   UNL     1       2.865   8.517  18.120  0.00  0.00    +0.000 HD
BRANCH  22  27
ATOM     24  C   UNL     1      -1.004  10.915  18.846  0.00  0.00    +0.000 A 
ATOM     25  C   UNL     1      -0.736  10.083  17.754  0.00  0.00    +0.000 A 
ATOM     26  C   UNL     1       0.322   9.165  17.802  0.00  0.00    +0.000 A 
ATOM     27  C   UNL     1       1.166   9.094  18.920  0.00  0.00    +0.000 A 
ATOM     28  C   UNL     1       0.803   9.838  20.059  0.00  0.00    +0.000 A 
ATOM     29  C   UNL     1      -0.271  10.745  20.026  0.00  0.00    +0.000 A 
BRANCH  24  31
ATOM     30  O   UNL     1      -2.594  12.500  19.651  0.00  0.00    +0.000 OA
ATOM     31  C   UNL     1      -2.080  11.935  18.701  0.00  0.00    +0.000 C 
BRANCH  31  32
ATOM     32  O   UNL     1      -2.488  12.127  17.429  0.00  0.00    +0.000 OA
ATOM     33  H   UNL     1      -3.191  11.528  17.121  0.00  0.00    +0.000 HD
ENDBRANCH  31  32
ENDBRANCH  24  31
ENDBRANCH  22  27
ENDBRANCH   1  22
TORSDOF 5
ENDMDL
MODEL 2
REMARK VINA RESULT:      -8.6      1.186      1.412
REMARK  Name = 
REMARK  5 active torsions:
REMARK  status: ('A' for Active; 'I' for Inactive)
REMARK    1  A    between atoms: C_2  and  O_3
REMARK    2  A    between atoms: C_2  and  C_4
REMARK    3  A    between atoms: C_7  and  N_8
REMARK    4  A    between atoms: N_8  and  C_9
REMARK    5  A    between atoms: C_10  and  N_11
REMARK                            x       y       z     vdW  Elec       q    Type
REMARK                         _______ _______ _______ _____ _____    ______ ____
ROOT
ATOM      1  C   UNL     1       2.156   6.941  18.964  0.00  0.00    +0.000 C 
ATOM      2  C   UNL     1       2.654   6.015  18.109  0.00  0.00    +0.000 C 
ATOM      3  C   UNL     1       1.825   4.792  18.063  0.00  0.00    +0.000 C 
ATOM      4  O   UNL     1       1.403   4.318  17.010  0.00  0.00    +0.000 OA
ATOM      5  C   UNL     1       1.576   4.144  19.348  0.00  0.00    +0.000 A 
ATOM      6  C   UNL     1       1.277   2.785  19.414  0.00  0.00    +0.000 A 
ATOM      7  C   UNL     1       1.596   2.100  20.578  0.00  0.00    +0.000 A 
ATOM      8  C   UNL     1       2.198   2.785  21.643  0.00  0.00    +0.000 A 
ATOM      9  C   UNL     1       2.308   4.184  21.620  0.00  0.00    +0.000 A 
ATOM     10  C   UNL     1       1.923   4.872  20.472  0.00  0.00    +0.000 A 
ATOM     11  C   UNL     1       1.853   6.352  20.343  0.00  0.00    +0.000 C 
ATOM     12  O   UNL     1       1.610   7.036  21.327  0.00  0.00    +0.000 OA
ENDROOT
BRANCH   2  13
ATOM     13  N   UNL     1       3.817   6.219  17.352  0.00  0.00    +0.000 N 
ATOM     14  N   UNL     1       4.471   7.431  17.333  0.00  0.00    +0.000 NA
ATOM     15  N   UNL     1       5.622   7.324  16.705  0.00  0.00    +0.000 NA
ATOM     16  C   UNL     1       5.762   6.034  16.313  0.00  0.00    +0.000 A 
ATOM     17  C   UNL     1       6.833   5.441  15.631  0.00  0.00    +0.000 A 
ATOM     18  C   UNL     1       6.789   4.074  15.365  0.00  0.00    +0.000 A 
ATOM     19  C   UNL     1       5.698   3.314  15.782  0.00  0.00    +0.000 A 
ATOM     20  C   UNL     1       4.611   3.895  16.463  0.00  0.00    +0.000 A 
ATOM     21  C   UNL     1       4.653   5.282  16.705  0.00  0.00    +0.000 A 
ENDBRANCH   2  13
BRANCH   1  22
ATOM     22  N   UNL     1       2.298   8.337  18.883  0.00  0.00    +0.000 N 
ATOM     23  H   UNL     1       2.775   8.572  18.003  0.00  0.00    +0.000 HD
BRANCH  22  27
ATOM     24  C   UNL     1      -1.020  11.025  18.915  0.00  0.00    +0.000 A 
ATOM     25  C   UNL     1      -0.815  10.184  17.817  0.00  0.00    +0.000 A 
ATOM     26  C   UNL     1       0.235   9.256  17.818  0.00  0.00    +0.000 A 
ATOM     27  C   UNL     1       1.134   9.184  18.893  0.00  0.00    +0.000 A 
ATOM     28  C   UNL     1       0.837   9.939  20.043  0.00  0.00    +0.000 A 
ATOM     29  C   UNL     1      -0.229  10.857  20.057  0.00  0.00    +0.000 A 
BRANCH  24  31
ATOM     30  O   UNL     1      -2.485  12.699  19.775  0.00  0.00    +0.000 OA
ATOM     31  C   UNL     1      -2.092  12.055  18.817  0.00  0.00    +0.000 C 
BRANCH  31  32
ATOM     32  O   UNL     1      -2.642  12.162  17.589  0.00  0.00    +0.000 OA
ATOM     33  H   UNL     1      -2.510  13.019  17.145  0.00  0.00    +0.000 HD
ENDBRANCH  31  32
ENDBRANCH  24  31
ENDBRANCH  22  27
ENDBRANCH   1  22
TORSDOF 5
ENDMDL
MODEL 3
REMARK VINA RESULT:      -8.3      1.627      2.131
REMARK  Name = 
REMARK  5 active torsions:
REMARK  status: ('A' for Active; 'I' for Inactive)
REMARK    1  A    between atoms: C_2  and  O_3
REMARK    2  A    between atoms: C_2  and  C_4
REMARK    3  A    between atoms: C_7  and  N_8
REMARK    4  A    between atoms: N_8  and  C_9
REMARK    5  A    between atoms: C_10  and  N_11
REMARK                            x       y       z     vdW  Elec       q    Type
REMARK                         _______ _______ _______ _____ _____    ______ ____
ROOT
ATOM      1  C   UNL     1       2.744   6.821  18.338  0.00  0.00    +0.000 C 
ATOM      2  C   UNL     1       3.363   5.744  17.795  0.00  0.00    +0.000 C 
ATOM      3  C   UNL     1       2.504   4.541  17.804  0.00  0.00    +0.000 C 
ATOM      4  O   UNL     1       2.286   3.877  16.792  0.00  0.00    +0.000 OA
ATOM      5  C   UNL     1       1.964   4.154  19.105  0.00  0.00    +0.000 A 
ATOM      6  C   UNL     1       1.593   2.836  19.358  0.00  0.00    +0.000 A 
ATOM      7  C   UNL     1       1.632   2.385  20.670  0.00  0.00    +0.000 A 
ATOM      8  C   UNL     1       2.033   3.257  21.691  0.00  0.00    +0.000 A 
ATOM      9  C   UNL     1       2.212   4.625  21.432  0.00  0.00    +0.000 A 
ATOM     10  C   UNL     1       2.106   5.082  20.120  0.00  0.00    +0.000 A 
ATOM     11  C   UNL     1       2.135   6.510  19.706  0.00  0.00    +0.000 C 
ATOM     12  O   UNL     1       1.727   7.372  20.471  0.00  0.00    +0.000 OA
ENDROOT
BRANCH   2  13
ATOM     13  N   UNL     1       4.666   5.790  17.277  0.00  0.00    +0.000 N 
ATOM     14  N   UNL     1       5.734   6.229  18.028  0.00  0.00    +0.000 NA
ATOM     15  N   UNL     1       6.865   6.008  17.394  0.00  0.00    +0.000 NA
ATOM     16  C   UNL     1       6.569   5.401  16.219  0.00  0.00    +0.000 A 
ATOM     17  C   UNL     1       7.449   4.957  15.222  0.00  0.00    +0.000 A 
ATOM     18  C   UNL     1       6.927   4.311  14.102  0.00  0.00    +0.000 A 
ATOM     19  C   UNL     1       5.554   4.107  13.988  0.00  0.00    +0.000 A 
ATOM     20  C   UNL     1       4.657   4.552  14.978  0.00  0.00    +0.000 A 
ATOM     21  C   UNL     1       5.191   5.225  16.093  0.00  0.00    +0.000 A 
ENDBRANCH   2  13
BRANCH   1  22
ATOM     22  N   UNL     1       2.967   8.174  18.030  0.00  0.00    +0.000 N 
ATOM     23  H   UNL     1       3.303   8.244  17.061  0.00  0.00    +0.000 HD
BRANCH  22  27
ATOM     24  C   UNL     1      -0.350  10.842  18.372  0.00  0.00    +0.000 A 
ATOM     25  C   UNL     1       0.917  11.245  18.808  0.00  0.00    +0.000 A 
ATOM     26  C   UNL     1       2.025  10.402  18.648  0.00  0.00    +0.000 A 
ATOM     27  C   UNL     1       1.883   9.119  18.098  0.00  0.00    +0.000 A 
ATOM     28  C   UNL     1       0.634   8.782  17.544  0.00  0.00    +0.000 A 
ATOM     29  C   UNL     1      -0.478   9.632  17.681  0.00  0.00    +0.000 A 
BRANCH  24  31
ATOM     30  O   UNL     1      -1.929  11.944  19.780  0.00  0.00    +0.000 OA
ATOM     31  C   UNL     1      -1.505  11.739  18.655  0.00  0.00    +0.000 C 
BRANCH  31  32
ATOM     32  O   UNL     1      -2.089  12.250  17.550  0.00  0.00    +0.000 OA
ATOM     33  H   UNL     1      -1.668  12.006  16.706  0.00  0.00    +0.000 HD
ENDBRANCH  31  32
ENDBRANCH  24  31
ENDBRANCH  22  27
ENDBRANCH   1  22
TORSDOF 5
ENDMDL
MODEL 4
REMARK VINA RESULT:      -8.3      3.409      8.674
REMARK  Name = 
REMARK  5 active torsions:
REMARK  status: ('A' for Active; 'I' for Inactive)
REMARK    1  A    between atoms: C_2  and  O_3
REMARK    2  A    between atoms: C_2  and  C_4
REMARK    3  A    between atoms: C_7  and  N_8
REMARK    4  A    between atoms: N_8  and  C_9
REMARK    5  A    between atoms: C_10  and  N_11
REMARK                            x       y       z     vdW  Elec       q    Type
REMARK                         _______ _______ _______ _____ _____    ______ ____
ROOT
ATOM      1  C   UNL     1      -0.023  11.307  19.110  0.00  0.00    +0.000 C 
ATOM      2  C   UNL     1       0.238  12.420  19.838  0.00  0.00    +0.000 C 
ATOM      3  C   UNL     1      -0.534  12.458  21.098  0.00  0.00    +0.000 C 
ATOM      4  O   UNL     1      -0.004  12.631  22.194  0.00  0.00    +0.000 OA
ATOM      5  C   UNL     1      -1.982  12.329  20.960  0.00  0.00    +0.000 A 
ATOM      6  C   UNL     1      -2.838  12.838  21.933  0.00  0.00    +0.000 A 
ATOM      7  C   UNL     1      -4.119  13.209  21.549  0.00  0.00    +0.000 A 
ATOM      8  C   UNL     1      -4.514  13.058  20.213  0.00  0.00    +0.000 A 
ATOM      9  C   UNL     1      -3.700  12.365  19.303  0.00  0.00    +0.000 A 
ATOM     10  C   UNL     1      -2.440  11.937  19.715  0.00  0.00    +0.000 A 
ATOM     11  C   UNL     1      -1.523  11.080  18.918  0.00  0.00    +0.000 C 
ATOM     12  O   UNL     1      -1.984  10.276  18.120  0.00  0.00    +0.000 OA
ENDROOT
BRANCH   2  13
ATOM     13  N   UNL     1       1.152  13.404  19.433  0.00  0.00    +0.000 N 
ATOM     14  N   UNL     1       2.469  13.107  19.157  0.00  0.00    +0.000 NA
ATOM     15  N   UNL     1       3.074  14.146  18.626  0.00  0.00    +0.000 NA
ATOM     16  C   UNL     1       2.166  15.146  18.521  0.00  0.00    +0.000 A 
ATOM     17  C   UNL     1       2.343  16.434  17.997  0.00  0.00    +0.000 A 
ATOM     18  C   UNL     1       1.250  17.297  17.945  0.00  0.00    +0.000 A 
ATOM     19  C   UNL     1       0.002  16.875  18.400  0.00  0.00    +0.000 A 
ATOM     20  C   UNL     1      -0.192  15.588  18.935  0.00  0.00    +0.000 A 
ATOM     21  C   UNL     1       0.925  14.731  19.007  0.00  0.00    +0.000 A 
ENDBRANCH   2  13
BRANCH   1  22
ATOM     22  N   UNL     1       0.842  10.655  18.214  0.00  0.00    +0.000 N 
ATOM     23  H   UNL     1       1.624  11.284  17.988  0.00  0.00    +0.000 HD
BRANCH  22  27
ATOM     24  C   UNL     1       2.528   6.898  19.344  0.00  0.00    +0.000 A 
ATOM     25  C   UNL     1       2.826   7.448  18.093  0.00  0.00    +0.000 A 
ATOM     26  C   UNL     1       2.327   8.707  17.732  0.00  0.00    +0.000 A 
ATOM     27  C   UNL     1       1.478   9.420  18.592  0.00  0.00    +0.000 A 
ATOM     28  C   UNL     1       1.298   8.918  19.894  0.00  0.00    +0.000 A 
ATOM     29  C   UNL     1       1.814   7.666  20.271  0.00  0.00    +0.000 A 
BRANCH  24  31
ATOM     30  O   UNL     1       3.563   4.818  18.804  0.00  0.00    +0.000 OA
ATOM     31  C   UNL     1       3.008   5.518  19.634  0.00  0.00    +0.000 C 
BRANCH  31  32
ATOM     32  O   UNL     1       2.708   5.080  20.875  0.00  0.00    +0.000 OA
ATOM     33  H   UNL     1       1.817   4.702  20.981  0.00  0.00    +0.000 HD
ENDBRANCH  31  32
ENDBRANCH  24  31
ENDBRANCH  22  27
ENDBRANCH   1  22
TORSDOF 5
ENDMDL
MODEL 5
REMARK VINA RESULT:      -7.9      3.286      8.741
REMARK  Name = 
REMARK  5 active torsions:
REMARK  status: ('A' for Active; 'I' for Inactive)
REMARK    1  A    between atoms: C_2  and  O_3
REMARK    2  A    between atoms: C_2  and  C_4
REMARK    3  A    between atoms: C_7  and  N_8
REMARK    4  A    between atoms: N_8  and  C_9
REMARK    5  A    between atoms: C_10  and  N_11
REMARK                            x       y       z     vdW  Elec       q    Type
REMARK                         _______ _______ _______ _____ _____    ______ ____
ROOT
ATOM      1  C   UNL     1       0.071  11.134  18.766  0.00  0.00    +0.000 C 
ATOM      2  C   UNL     1       0.005  12.319  19.420  0.00  0.00    +0.000 C 
ATOM      3  C   UNL     1      -1.097  12.353  20.406  0.00  0.00    +0.000 C 
ATOM      4  O   UNL     1      -0.922  12.667  21.582  0.00  0.00    +0.000 OA
ATOM      5  C   UNL     1      -2.425  12.040  19.886  0.00  0.00    +0.000 A 
ATOM      6  C   UNL     1      -3.569  12.511  20.526  0.00  0.00    +0.000 A 
ATOM      7  C   UNL     1      -4.715  12.696  19.766  0.00  0.00    +0.000 A 
ATOM      8  C   UNL     1      -4.694  12.404  18.396  0.00  0.00    +0.000 A 
ATOM      9  C   UNL     1      -3.591  11.751  17.823  0.00  0.00    +0.000 A 
ATOM     10  C   UNL     1      -2.467  11.508  18.610  0.00  0.00    +0.000 A 
ATOM     11  C   UNL     1      -1.282  10.714  18.190  0.00  0.00    +0.000 C 
ATOM     12  O   UNL     1      -1.417   9.806  17.383  0.00  0.00    +0.000 OA
ENDROOT
BRANCH   2  13
ATOM     13  N   UNL     1       0.898  13.375  19.185  0.00  0.00    +0.000 N 
ATOM     14  N   UNL     1       2.242  13.159  18.974  0.00  0.00    +0.000 NA
ATOM     15  N   UNL     1       2.834  14.271  18.598  0.00  0.00    +0.000 NA
ATOM     16  C   UNL     1       1.890  15.241  18.534  0.00  0.00    +0.000 A 
ATOM     17  C   UNL     1       2.043  16.584  18.160  0.00  0.00    +0.000 A 
ATOM     18  C   UNL     1       0.918  17.406  18.120  0.00  0.00    +0.000 A 
ATOM     19  C   UNL     1      -0.337  16.890  18.440  0.00  0.00    +0.000 A 
ATOM     20  C   UNL     1      -0.507  15.546  18.823  0.00  0.00    +0.000 A 
ATOM     21  C   UNL     1       0.639  14.730  18.884  0.00  0.00    +0.000 A 
ENDBRANCH   2  13
BRANCH   1  22
ATOM     22  N   UNL     1       1.214  10.528  18.217  0.00  0.00    +0.000 N 
ATOM     23  H   UNL     1       2.033  11.117  18.420  0.00  0.00    +0.000 HD
BRANCH  22  27
ATOM     24  C   UNL     1       2.599   6.684  19.460  0.00  0.00    +0.000 A 
ATOM     25  C   UNL     1       1.839   7.469  20.335  0.00  0.00    +0.000 A 
ATOM     26  C   UNL     1       1.330   8.707  19.920  0.00  0.00    +0.000 A 
ATOM     27  C   UNL     1       1.610   9.211  18.641  0.00  0.00    +0.000 A 
ATOM     28  C   UNL     1       2.258   8.355  17.731  0.00  0.00    +0.000 A 
ATOM     29  C   UNL     1       2.753   7.102  18.133  0.00  0.00    +0.000 A 
BRANCH  24  31
ATOM     30  O   UNL     1       4.100   4.831  19.427  0.00  0.00    +0.000 OA
ATOM     31  C   UNL     1       3.193   5.425  19.987  0.00  0.00    +0.000 C 
BRANCH  31  32
ATOM     32  O   UNL     1       2.591   4.956  21.101  0.00  0.00    +0.000 OA
ATOM     33  H   UNL     1       1.773   4.449  20.951  0.00  0.00    +0.000 HD
ENDBRANCH  31  32
ENDBRANCH  24  31
ENDBRANCH  22  27
ENDBRANCH   1  22
TORSDOF 5
ENDMDL
MODEL 6
REMARK VINA RESULT:      -7.8      3.512      8.498
REMARK  Name = 
REMARK  5 active torsions:
REMARK  status: ('A' for Active; 'I' for Inactive)
REMARK    1  A    between atoms: C_2  and  O_3
REMARK    2  A    between atoms: C_2  and  C_4
REMARK    3  A    between atoms: C_7  and  N_8
REMARK    4  A    between atoms: N_8  and  C_9
REMARK    5  A    between atoms: C_10  and  N_11
REMARK                            x       y       z     vdW  Elec       q    Type
REMARK                         _______ _______ _______ _____ _____    ______ ____
ROOT
ATOM      1  C   UNL     1      -0.398  11.355  18.651  0.00  0.00    +0.000 C 
ATOM      2  C   UNL     1      -0.714  12.529  19.249  0.00  0.00    +0.000 C 
ATOM      3  C   UNL     1      -1.961  12.439  20.038  0.00  0.00    +0.000 C 
ATOM      4  O   UNL     1      -2.025  12.782  21.217  0.00  0.00    +0.000 OA
ATOM      5  C   UNL     1      -3.137  11.961  19.314  0.00  0.00    +0.000 A 
ATOM      6  C   UNL     1      -4.420  12.294  19.742  0.00  0.00    +0.000 A 
ATOM      7  C   UNL     1      -5.436  12.330  18.797  0.00  0.00    +0.000 A 
ATOM      8  C   UNL     1      -5.149  12.030  17.459  0.00  0.00    +0.000 A 
ATOM      9  C   UNL     1      -3.896  11.511  17.097  0.00  0.00    +0.000 A 
ATOM     10  C   UNL     1      -2.900  11.415  18.065  0.00  0.00    +0.000 A 
ATOM     11  C   UNL     1      -1.576  10.767  17.872  0.00  0.00    +0.000 C 
ATOM     12  O   UNL     1      -1.464   9.842  17.081  0.00  0.00    +0.000 OA
ENDROOT
BRANCH   2  13
ATOM     13  N   UNL     1       0.074  13.684  19.133  0.00  0.00    +0.000 N 
ATOM     14  N   UNL     1      -0.391  14.824  18.516  0.00  0.00    +0.000 NA
ATOM     15  N   UNL     1       0.451  15.819  18.693  0.00  0.00    +0.000 NA
ATOM     16  C   UNL     1       1.480  15.363  19.447  0.00  0.00    +0.000 A 
ATOM     17  C   UNL     1       2.602  16.066  19.908  0.00  0.00    +0.000 A 
ATOM     18  C   UNL     1       3.526  15.405  20.717  0.00  0.00    +0.000 A 
ATOM     19  C   UNL     1       3.324  14.071  21.063  0.00  0.00    +0.000 A 
ATOM     20  C   UNL     1       2.206  13.349  20.604  0.00  0.00    +0.000 A 
ATOM     21  C   UNL     1       1.291  14.018  19.767  0.00  0.00    +0.000 A 
ENDBRANCH   2  13
BRANCH   1  22
ATOM     22  N   UNL     1       0.885  10.889  18.317  0.00  0.00    +0.000 N 
ATOM     23  H   UNL     1       1.586  11.520  18.727  0.00  0.00    +0.000 HD
BRANCH  22  27
ATOM     24  C   UNL     1       2.345   7.057  19.508  0.00  0.00    +0.000 A 
ATOM     25  C   UNL     1       1.627   7.842  20.416  0.00  0.00    +0.000 A 
ATOM     26  C   UNL     1       1.092   9.076  20.021  0.00  0.00    +0.000 A 
ATOM     27  C   UNL     1       1.307   9.575  18.727  0.00  0.00    +0.000 A 
ATOM     28  C   UNL     1       1.913   8.717  17.790  0.00  0.00    +0.000 A 
ATOM     29  C   UNL     1       2.433   7.468  18.174  0.00  0.00    +0.000 A 
BRANCH  24  31
ATOM     30  O   UNL     1       3.842   5.202  19.404  0.00  0.00    +0.000 OA
ATOM     31  C   UNL     1       2.971   5.802  20.011  0.00  0.00    +0.000 C 
BRANCH  31  32
ATOM     32  O   UNL     1       2.437   5.345  21.164  0.00  0.00    +0.000 OA
ATOM     33  H   UNL     1       2.491   4.381  21.295  0.00  0.00    +0.000 HD
ENDBRANCH  31  32
ENDBRANCH  24  31
ENDBRANCH  22  27
ENDBRANCH   1  22
TORSDOF 5
ENDMDL
MODEL 7
REMARK VINA RESULT:      -7.8      5.792      9.203
REMARK  Name = 
REMARK  5 active torsions:
REMARK  status: ('A' for Active; 'I' for Inactive)
REMARK    1  A    between atoms: C_2  and  O_3
REMARK    2  A    between atoms: C_2  and  C_4
REMARK    3  A    between atoms: C_7  and  N_8
REMARK    4  A    between atoms: N_8  and  C_9
REMARK    5  A    between atoms: C_10  and  N_11
REMARK                            x       y       z     vdW  Elec       q    Type
REMARK                         _______ _______ _______ _____ _____    ______ ____
ROOT
ATOM      1  C   UNL     1      -0.236  14.608  19.878  0.00  0.00    +0.000 C 
ATOM      2  C   UNL     1       0.705  13.739  20.321  0.00  0.00    +0.000 C 
ATOM      3  C   UNL     1       1.854  14.428  20.947  0.00  0.00    +0.000 C 
ATOM      4  O   UNL     1       2.263  14.144  22.072  0.00  0.00    +0.000 OA
ATOM      5  C   UNL     1       2.513  15.440  20.125  0.00  0.00    +0.000 A 
ATOM      6  C   UNL     1       3.843  15.784  20.352  0.00  0.00    +0.000 A 
ATOM      7  C   UNL     1       4.583  16.274  19.285  0.00  0.00    +0.000 A 
ATOM      8  C   UNL     1       3.980  16.412  18.027  0.00  0.00    +0.000 A 
ATOM      9  C   UNL     1       2.594  16.242  17.879  0.00  0.00    +0.000 A 
ATOM     10  C   UNL     1       1.846  15.813  18.972  0.00  0.00    +0.000 A 
ATOM     11  C   UNL     1       0.363  15.717  19.011  0.00  0.00    +0.000 C 
ATOM     12  O   UNL     1      -0.312  16.475  18.329  0.00  0.00    +0.000 OA
ENDROOT
BRANCH   2  13
ATOM     13  N   UNL     1       0.578  12.347  20.203  0.00  0.00    +0.000 N 
ATOM     14  N   UNL     1       1.149  11.649  19.161  0.00  0.00    +0.000 NA
ATOM     15  N   UNL     1       1.049  10.354  19.365  0.00  0.00    +0.000 NA
ATOM     16  C   UNL     1       0.427  10.168  20.554  0.00  0.00    +0.000 A 
ATOM     17  C   UNL     1       0.120   8.962  21.199  0.00  0.00    +0.000 A 
ATOM     18  C   UNL     1      -0.488   9.003  22.453  0.00  0.00    +0.000 A 
ATOM     19  C   UNL     1      -0.774  10.228  23.052  0.00  0.00    +0.000 A 
ATOM     20  C   UNL     1      -0.477  11.448  22.416  0.00  0.00    +0.000 A 
ATOM     21  C   UNL     1       0.114  11.397  21.139  0.00  0.00    +0.000 A 
ENDBRANCH   2  13
BRANCH   1  22
ATOM     22  N   UNL     1      -1.617  14.377  19.757  0.00  0.00    +0.000 N 
ATOM     23  H   UNL     1      -1.767  13.588  19.115  0.00  0.00    +0.000 HD
BRANCH  22  27
ATOM     24  C   UNL     1      -3.852  13.191  23.197  0.00  0.00    +0.000 A 
ATOM     25  C   UNL     1      -2.906  14.217  23.299  0.00  0.00    +0.000 A 
ATOM     26  C   UNL     1      -2.207  14.656  22.166  0.00  0.00    +0.000 A 
ATOM     27  C   UNL     1      -2.400  14.045  20.918  0.00  0.00    +0.000 A 
ATOM     28  C   UNL     1      -3.447  13.111  20.804  0.00  0.00    +0.000 A 
ATOM     29  C   UNL     1      -4.167  12.682  21.932  0.00  0.00    +0.000 A 
BRANCH  24  31
ATOM     30  O   UNL     1      -5.423  11.915  24.458  0.00  0.00    +0.000 OA
ATOM     31  C   UNL     1      -4.492  12.702  24.450  0.00  0.00    +0.000 C 
BRANCH  31  32
ATOM     32  O   UNL     1      -4.000  13.264  25.575  0.00  0.00    +0.000 OA
ATOM     33  H   UNL     1      -3.481  12.669  26.145  0.00  0.00    +0.000 HD
ENDBRANCH  31  32
ENDBRANCH  24  31
ENDBRANCH  22  27
ENDBRANCH   1  22
TORSDOF 5
ENDMDL
MODEL 8
REMARK VINA RESULT:      -7.8      3.499      8.453
REMARK  Name = 
REMARK  5 active torsions:
REMARK  status: ('A' for Active; 'I' for Inactive)
REMARK    1  A    between atoms: C_2  and  O_3
REMARK    2  A    between atoms: C_2  and  C_4
REMARK    3  A    between atoms: C_7  and  N_8
REMARK    4  A    between atoms: N_8  and  C_9
REMARK    5  A    between atoms: C_10  and  N_11
REMARK                            x       y       z     vdW  Elec       q    Type
REMARK                         _______ _______ _______ _____ _____    ______ ____
ROOT
ATOM      1  C   UNL     1      -0.539  11.368  18.581  0.00  0.00    +0.000 C 
ATOM      2  C   UNL     1      -0.831  12.522  19.229  0.00  0.00    +0.000 C 
ATOM      3  C   UNL     1      -2.057  12.409  20.048  0.00  0.00    +0.000 C 
ATOM      4  O   UNL     1      -2.086  12.711  21.240  0.00  0.00    +0.000 OA
ATOM      5  C   UNL     1      -3.255  11.963  19.342  0.00  0.00    +0.000 A 
ATOM      6  C   UNL     1      -4.523  12.288  19.817  0.00  0.00    +0.000 A 
ATOM      7  C   UNL     1      -5.565  12.363  18.903  0.00  0.00    +0.000 A 
ATOM      8  C   UNL     1      -5.318  12.108  17.547  0.00  0.00    +0.000 A 
ATOM      9  C   UNL     1      -4.079  11.596  17.132  0.00  0.00    +0.000 A 
ATOM     10  C   UNL     1      -3.057  11.461  18.069  0.00  0.00    +0.000 A 
ATOM     11  C   UNL     1      -1.742  10.814  17.815  0.00  0.00    +0.000 C 
ATOM     12  O   UNL     1      -1.658   9.916  16.989  0.00  0.00    +0.000 OA
ENDROOT
BRANCH   2  13
ATOM     13  N   UNL     1      -0.040  13.676  19.132  0.00  0.00    +0.000 N 
ATOM     14  N   UNL     1      -0.514  14.839  18.565  0.00  0.00    +0.000 NA
ATOM     15  N   UNL     1       0.338  15.823  18.754  0.00  0.00    +0.000 NA
ATOM     16  C   UNL     1       1.383  15.336  19.465  0.00  0.00    +0.000 A 
ATOM     17  C   UNL     1       2.521  16.017  19.921  0.00  0.00    +0.000 A 
ATOM     18  C   UNL     1       3.461  15.326  20.683  0.00  0.00    +0.000 A 
ATOM     19  C   UNL     1       3.261  13.981  20.989  0.00  0.00    +0.000 A 
ATOM     20  C   UNL     1       2.127  13.281  20.535  0.00  0.00    +0.000 A 
ATOM     21  C   UNL     1       1.195  13.982  19.745  0.00  0.00    +0.000 A 
ENDBRANCH   2  13
BRANCH   1  22
ATOM     22  N   UNL     1       0.731  10.907  18.195  0.00  0.00    +0.000 N 
ATOM     23  H   UNL     1       1.436  11.602  18.473  0.00  0.00    +0.000 HD
BRANCH  22  27
ATOM     24  C   UNL     1       2.024   7.148  19.756  0.00  0.00    +0.000 A 
ATOM     25  C   UNL     1       2.324   7.495  18.434  0.00  0.00    +0.000 A 
ATOM     26  C   UNL     1       1.957   8.749  17.927  0.00  0.00    +0.000 A 
ATOM     27  C   UNL     1       1.237   9.662  18.711  0.00  0.00    +0.000 A 
ATOM     28  C   UNL     1       1.062   9.355  20.073  0.00  0.00    +0.000 A 
ATOM     29  C   UNL     1       1.447   8.108  20.595  0.00  0.00    +0.000 A 
BRANCH  24  31
ATOM     30  O   UNL     1       1.526   5.006  20.677  0.00  0.00    +0.000 OA
ATOM     31  C   UNL     1       2.354   5.768  20.209  0.00  0.00    +0.000 C 
BRANCH  31  32
ATOM     32  O   UNL     1       3.666   5.460  20.125  0.00  0.00    +0.000 OA
ATOM     33  H   UNL     1       3.878   4.689  19.568  0.00  0.00    +0.000 HD
ENDBRANCH  31  32
ENDBRANCH  24  31
ENDBRANCH  22  27
ENDBRANCH   1  22
TORSDOF 5
ENDMDL
MODEL 9
REMARK VINA RESULT:      -7.8      2.674      6.897
REMARK  Name = 
REMARK  5 active torsions:
REMARK  status: ('A' for Active; 'I' for Inactive)
REMARK    1  A    between atoms: C_2  and  O_3
REMARK    2  A    between atoms: C_2  and  C_4
REMARK    3  A    between atoms: C_7  and  N_8
REMARK    4  A    between atoms: N_8  and  C_9
REMARK    5  A    between atoms: C_10  and  N_11
REMARK                            x       y       z     vdW  Elec       q    Type
REMARK                         _______ _______ _______ _____ _____    ______ ____
ROOT
ATOM      1  C   UNL     1       4.191   5.632  18.811  0.00  0.00    +0.000 C 
ATOM      2  C   UNL     1       3.089   6.250  19.300  0.00  0.00    +0.000 C 
ATOM      3  C   UNL     1       2.427   5.459  20.359  0.00  0.00    +0.000 C 
ATOM      4  O   UNL     1       2.155   5.928  21.463  0.00  0.00    +0.000 OA
ATOM      5  C   UNL     1       2.064   4.091  19.998  0.00  0.00    +0.000 A 
ATOM      6  C   UNL     1       1.033   3.429  20.660  0.00  0.00    +0.000 A 
ATOM      7  C   UNL     1       0.353   2.429  19.979  0.00  0.00    +0.000 A 
ATOM      8  C   UNL     1       0.720   2.113  18.664  0.00  0.00    +0.000 A 
ATOM      9  C   UNL     1       1.883   2.658  18.097  0.00  0.00    +0.000 A 
ATOM     10  C   UNL     1       2.598   3.614  18.815  0.00  0.00    +0.000 A 
ATOM     11  C   UNL     1       3.913   4.182  18.411  0.00  0.00    +0.000 C 
ATOM     12  O   UNL     1       4.687   3.506  17.750  0.00  0.00    +0.000 OA
ENDROOT
BRANCH   2  13
ATOM     13  N   UNL     1       2.650   7.504  18.849  0.00  0.00    +0.000 N 
ATOM     14  N   UNL     1       2.839   7.918  17.549  0.00  0.00    +0.000 NA
ATOM     15  N   UNL     1       2.187   9.038  17.323  0.00  0.00    +0.000 NA
ATOM     16  C   UNL     1       1.539   9.377  18.463  0.00  0.00    +0.000 A 
ATOM     17  C   UNL     1       0.703  10.478  18.697  0.00  0.00    +0.000 A 
ATOM     18  C   UNL     1       0.096  10.612  19.944  0.00  0.00    +0.000 A 
ATOM     19  C   UNL     1       0.316   9.657  20.935  0.00  0.00    +0.000 A 
ATOM     20  C   UNL     1       1.157   8.549  20.720  0.00  0.00    +0.000 A 
ATOM     21  C   UNL     1       1.785   8.436  19.464  0.00  0.00    +0.000 A 
ENDBRANCH   2  13
BRANCH   1  22
ATOM     22  N   UNL     1       5.331   6.239  18.257  0.00  0.00    +0.000 N 
ATOM     23  H   UNL     1       6.137   6.055  18.870  0.00  0.00    +0.000 HD
BRANCH  22  27
ATOM     24  C   UNL     1       6.665   4.900  14.427  0.00  0.00    +0.000 A 
ATOM     25  C   UNL     1       5.487   5.648  14.533  0.00  0.00    +0.000 A 
ATOM     26  C   UNL     1       5.069   6.143  15.776  0.00  0.00    +0.000 A 
ATOM     27  C   UNL     1       5.789   5.859  16.946  0.00  0.00    +0.000 A 
ATOM     28  C   UNL     1       7.037   5.223  16.805  0.00  0.00    +0.000 A 
ATOM     29  C   UNL     1       7.474   4.743  15.558  0.00  0.00    +0.000 A 
BRANCH  24  31
ATOM     30  O   UNL     1       7.694   4.902  12.276  0.00  0.00    +0.000 OA
ATOM     31  C   UNL     1       7.008   4.320  13.099  0.00  0.00    +0.000 C 
BRANCH  31  32
ATOM     32  O   UNL     1       6.431   3.124  12.855  0.00  0.00    +0.000 OA
ATOM     33  H   UNL     1       6.543   2.456  13.556  0.00  0.00    +0.000 HD
ENDBRANCH  31  32
ENDBRANCH  24  31
ENDBRANCH  22  27
ENDBRANCH   1  22
TORSDOF 5
ENDMDL
