MODEL 1
REMARK VINA RESULT:      -7.5      0.000      0.000
REMARK  Name = 
REMARK  5 active torsions:
REMARK  status: ('A' for Active; 'I' for Inactive)
REMARK    1  A    between atoms: C_1  and  C_2
REMARK    2  A    between atoms: C_2  and  C_3
REMARK    3  A    between atoms: C_3  and  N_4
REMARK    4  A    between atoms: CA_9  and  C_10
REMARK    5  A    between atoms: C_10  and  OXT_12
REMARK                            x       y       z     vdW  Elec       q    Type
REMARK                         _______ _______ _______ _____ _____    ______ ____
ROOT
ATOM      1  N   UNL     1       3.512   4.958  19.628  0.00  0.00    +0.000 N 
ATOM      2  C   UNL     1       4.433   4.155  18.925  0.00  0.00    +0.000 A 
ATOM      3  O   UNL     1       4.790   3.052  19.340  0.00  0.00    +0.000 OA
ATOM      4  C   UNL     1       4.919   4.714  17.686  0.00  0.00    +0.000 A 
ATOM      5  N   UNL     1       5.782   4.138  16.866  0.00  0.00    +0.000 NA
ATOM      6  CA  UNL     1       5.938   5.032  15.824  0.00  0.00    +0.000 A 
ATOM      7  C   UNL     1       5.161   6.154  16.030  0.00  0.00    +0.000 A 
ATOM      8  N   UNL     1       4.514   5.939  17.221  0.00  0.00    +0.000 N 
ATOM      9  C   UNL     1       3.589   6.737  17.915  0.00  0.00    +0.000 A 
ATOM     10  C   UNL     1       3.196   7.988  17.415  0.00  0.00    +0.000 A 
ATOM     11  C   UNL     1       2.269   8.748  18.124  0.00  0.00    +0.000 A 
ATOM     12  C   UNL     1       1.730   8.258  19.309  0.00  0.00    +0.000 A 
ATOM     13  C   UNL     1       2.122   7.009  19.802  0.00  0.00    +0.000 A 
ATOM     14  C   UNL     1       3.071   6.228  19.123  0.00  0.00    +0.000 A 
ENDROOT
BRANCH   6  15
ATOM     15  C   UNL     1       6.822   4.735  14.705  0.00  0.00    +0.000 C 
ATOM     16  O   UNL     1       7.765   5.431  14.361  0.00  0.00    +0.000 OA
BRANCH  15  17
ATOM     17  OXT UNL     1       6.473   3.582  14.077  0.00  0.00    +0.000 OA
ATOM     18  HXT UNL     1       7.198   2.931  14.228  0.00  0.00    +0.000 HD
ENDBRANCH  15  17
ENDBRANCH   6  15
BRANCH   1  19
ATOM     19  C   UNL     1       2.972   4.403  20.869  0.00  0.00    +0.000 C 
BRANCH  19  21
ATOM     20  C   UNL     1       1.442   2.597  21.724  0.00  0.00    +0.000 C 
ATOM     21  C   UNL     1       1.687   3.612  20.621  0.00  0.00    +0.000 C 
ENDBRANCH  19  21
ENDBRANCH   1  19
TORSDOF 4
ENDMDL
MODEL 2
REMARK VINA RESULT:      -7.1      1.124      1.196
REMARK  Name = 
REMARK  5 active torsions:
REMARK  status: ('A' for Active; 'I' for Inactive)
REMARK    1  A    between atoms: C_1  and  C_2
REMARK    2  A    between atoms: C_2  and  C_3
REMARK    3  A    between atoms: C_3  and  N_4
REMARK    4  A    between atoms: CA_9  and  C_10
REMARK    5  A    between atoms: C_10  and  OXT_12
REMARK                            x       y       z     vdW  Elec       q    Type
REMARK                         _______ _______ _______ _____ _____    ______ ____
ROOT
ATOM      1  N   UNL     1       2.964   3.792  18.568  0.00  0.00    +0.000 N 
ATOM      2  C   UNL     1       3.816   3.114  17.673  0.00  0.00    +0.000 A 
ATOM      3  O   UNL     1       3.902   1.886  17.654  0.00  0.00    +0.000 OA
ATOM      4  C   UNL     1       4.572   3.960  16.781  0.00  0.00    +0.000 A 
ATOM      5  N   UNL     1       5.427   3.543  15.863  0.00  0.00    +0.000 NA
ATOM      6  CA  UNL     1       5.895   4.694  15.258  0.00  0.00    +0.000 A 
ATOM      7  C   UNL     1       5.313   5.808  15.828  0.00  0.00    +0.000 A 
ATOM      8  N   UNL     1       4.470   5.327  16.798  0.00  0.00    +0.000 N 
ATOM      9  C   UNL     1       3.614   6.006  17.682  0.00  0.00    +0.000 A 
ATOM     10  C   UNL     1       3.533   7.406  17.678  0.00  0.00    +0.000 A 
ATOM     11  C   UNL     1       2.666   8.045  18.561  0.00  0.00    +0.000 A 
ATOM     12  C   UNL     1       1.879   7.293  19.427  0.00  0.00    +0.000 A 
ATOM     13  C   UNL     1       1.960   5.896  19.426  0.00  0.00    +0.000 A 
ATOM     14  C   UNL     1       2.840   5.223  18.564  0.00  0.00    +0.000 A 
ENDROOT
BRANCH   6  15
ATOM     15  C   UNL     1       6.865   4.633  14.174  0.00  0.00    +0.000 C 
ATOM     16  O   UNL     1       7.788   5.418  14.022  0.00  0.00    +0.000 OA
BRANCH  15  17
ATOM     17  OXT UNL     1       6.621   3.590  13.336  0.00  0.00    +0.000 OA
ATOM     18  HXT UNL     1       7.454   3.067  13.265  0.00  0.00    +0.000 HD
ENDBRANCH  15  17
ENDBRANCH   6  15
BRANCH   1  19
ATOM     19  C   UNL     1       2.155   2.962  19.460  0.00  0.00    +0.000 C 
BRANCH  19  21
ATOM     20  C   UNL     1       1.788   2.759  21.942  0.00  0.00    +0.000 C 
ATOM     21  C   UNL     1       2.819   2.790  20.827  0.00  0.00    +0.000 C 
ENDBRANCH  19  21
ENDBRANCH   1  19
TORSDOF 4
ENDMDL
MODEL 3
REMARK VINA RESULT:      -7.0      3.295      5.898
REMARK  Name = 
REMARK  5 active torsions:
REMARK  status: ('A' for Active; 'I' for Inactive)
REMARK    1  A    between atoms: C_1  and  C_2
REMARK    2  A    between atoms: C_2  and  C_3
REMARK    3  A    between atoms: C_3  and  N_4
REMARK    4  A    between atoms: CA_9  and  C_10
REMARK    5  A    between atoms: C_10  and  OXT_12
REMARK                            x       y       z     vdW  Elec       q    Type
REMARK                         _______ _______ _______ _____ _____    ______ ____
ROOT
ATOM      1  N   UNL     1       6.772   5.488  17.743  0.00  0.00    +0.000 N 
ATOM      2  C   UNL     1       5.985   5.140  18.859  0.00  0.00    +0.000 A 
ATOM      3  O   UNL     1       6.207   5.592  19.982  0.00  0.00    +0.000 OA
ATOM      4  C   UNL     1       4.901   4.227  18.589  0.00  0.00    +0.000 A 
ATOM      5  N   UNL     1       4.038   3.769  19.480  0.00  0.00    +0.000 NA
ATOM      6  CA  UNL     1       3.190   2.943  18.767  0.00  0.00    +0.000 A 
ATOM      7  C   UNL     1       3.557   2.907  17.437  0.00  0.00    +0.000 A 
ATOM      8  N   UNL     1       4.650   3.731  17.335  0.00  0.00    +0.000 N 
ATOM      9  C   UNL     1       5.427   4.083  16.218  0.00  0.00    +0.000 A 
ATOM     10  C   UNL     1       5.147   3.557  14.949  0.00  0.00    +0.000 A 
ATOM     11  C   UNL     1       5.932   3.936  13.862  0.00  0.00    +0.000 A 
ATOM     12  C   UNL     1       6.974   4.841  14.040  0.00  0.00    +0.000 A 
ATOM     13  C   UNL     1       7.247   5.365  15.308  0.00  0.00    +0.000 A 
ATOM     14  C   UNL     1       6.489   4.987  16.427  0.00  0.00    +0.000 A 
ENDROOT
BRANCH   6  15
ATOM     15  C   UNL     1       2.087   2.253  19.422  0.00  0.00    +0.000 C 
ATOM     16  O   UNL     1       1.823   2.336  20.611  0.00  0.00    +0.000 OA
BRANCH  15  17
ATOM     17  OXT UNL     1       1.377   1.493  18.547  0.00  0.00    +0.000 OA
ATOM     18  HXT UNL     1       1.031   2.094  17.845  0.00  0.00    +0.000 HD
ENDBRANCH  15  17
ENDBRANCH   6  15
BRANCH   1  19
ATOM     19  C   UNL     1       7.857   6.441  17.976  0.00  0.00    +0.000 C 
BRANCH  19  21
ATOM     20  C   UNL     1       8.349   8.903  18.153  0.00  0.00    +0.000 C 
ATOM     21  C   UNL     1       7.491   7.843  17.485  0.00  0.00    +0.000 C 
ENDBRANCH  19  21
ENDBRANCH   1  19
TORSDOF 4
ENDMDL
MODEL 4
REMARK VINA RESULT:      -6.9      3.274      5.786
REMARK  Name = 
REMARK  5 active torsions:
REMARK  status: ('A' for Active; 'I' for Inactive)
REMARK    1  A    between atoms: C_1  and  C_2
REMARK    2  A    between atoms: C_2  and  C_3
REMARK    3  A    between atoms: C_3  and  N_4
REMARK    4  A    between atoms: CA_9  and  C_10
REMARK    5  A    between atoms: C_10  and  OXT_12
REMARK                            x       y       z     vdW  Elec       q    Type
REMARK                         _______ _______ _______ _____ _____    ______ ____
ROOT
ATOM      1  N   UNL     1       6.590   4.720  17.907  0.00  0.00    +0.000 N 
ATOM      2  C   UNL     1       5.661   4.485  18.940  0.00  0.00    +0.000 A 
ATOM      3  O   UNL     1       5.940   4.666  20.125  0.00  0.00    +0.000 OA
ATOM      4  C   UNL     1       4.362   4.026  18.509  0.00  0.00    +0.000 A 
ATOM      5  N   UNL     1       3.341   3.746  19.301  0.00  0.00    +0.000 NA
ATOM      6  CA  UNL     1       2.323   3.358  18.451  0.00  0.00    +0.000 A 
ATOM      7  C   UNL     1       2.747   3.404  17.138  0.00  0.00    +0.000 A 
ATOM      8  N   UNL     1       4.050   3.833  17.188  0.00  0.00    +0.000 N 
ATOM      9  C   UNL     1       4.971   4.075  16.155  0.00  0.00    +0.000 A 
ATOM     10  C   UNL     1       4.623   3.865  14.813  0.00  0.00    +0.000 A 
ATOM     11  C   UNL     1       5.558   4.126  13.813  0.00  0.00    +0.000 A 
ATOM     12  C   UNL     1       6.820   4.605  14.151  0.00  0.00    +0.000 A 
ATOM     13  C   UNL     1       7.162   4.816  15.492  0.00  0.00    +0.000 A 
ATOM     14  C   UNL     1       6.250   4.542  16.523  0.00  0.00    +0.000 A 
ENDROOT
BRANCH   6  15
ATOM     15  C   UNL     1       1.016   2.975  18.968  0.00  0.00    +0.000 C 
ATOM     16  O   UNL     1       0.275   2.156  18.447  0.00  0.00    +0.000 OA
BRANCH  15  17
ATOM     17  OXT UNL     1       0.709   3.646  20.110  0.00  0.00    +0.000 OA
ATOM     18  HXT UNL     1      -0.216   3.406  20.354  0.00  0.00    +0.000 HD
ENDBRANCH  15  17
ENDBRANCH   6  15
BRANCH   1  19
ATOM     19  C   UNL     1       7.904   5.222  18.308  0.00  0.00    +0.000 C 
BRANCH  19  21
ATOM     20  C   UNL     1       7.719   7.620  17.566  0.00  0.00    +0.000 C 
ATOM     21  C   UNL     1       7.838   6.683  18.756  0.00  0.00    +0.000 C 
ENDBRANCH  19  21
ENDBRANCH   1  19
TORSDOF 4
ENDMDL
MODEL 5
REMARK VINA RESULT:      -6.8      2.979      5.665
REMARK  Name = 
REMARK  5 active torsions:
REMARK  status: ('A' for Active; 'I' for Inactive)
REMARK    1  A    between atoms: C_1  and  C_2
REMARK    2  A    between atoms: C_2  and  C_3
REMARK    3  A    between atoms: C_3  and  N_4
REMARK    4  A    between atoms: CA_9  and  C_10
REMARK    5  A    between atoms: C_10  and  OXT_12
REMARK                            x       y       z     vdW  Elec       q    Type
REMARK                         _______ _______ _______ _____ _____    ______ ____
ROOT
ATOM      1  N   UNL     1       5.063   5.168  17.492  0.00  0.00    +0.000 N 
ATOM      2  C   UNL     1       4.772   6.452  16.988  0.00  0.00    +0.000 A 
ATOM      3  O   UNL     1       5.407   6.949  16.058  0.00  0.00    +0.000 OA
ATOM      4  C   UNL     1       3.675   7.133  17.632  0.00  0.00    +0.000 A 
ATOM      5  N   UNL     1       3.228   8.338  17.323  0.00  0.00    +0.000 NA
ATOM      6  CA  UNL     1       2.177   8.565  18.191  0.00  0.00    +0.000 A 
ATOM      7  C   UNL     1       2.002   7.483  19.029  0.00  0.00    +0.000 A 
ATOM      8  N   UNL     1       2.963   6.575  18.662  0.00  0.00    +0.000 N 
ATOM      9  C   UNL     1       3.244   5.291  19.161  0.00  0.00    +0.000 A 
ATOM     10  C   UNL     1       2.500   4.748  20.218  0.00  0.00    +0.000 A 
ATOM     11  C   UNL     1       2.800   3.469  20.681  0.00  0.00    +0.000 A 
ATOM     12  C   UNL     1       3.822   2.737  20.085  0.00  0.00    +0.000 A 
ATOM     13  C   UNL     1       4.560   3.282  19.028  0.00  0.00    +0.000 A 
ATOM     14  C   UNL     1       4.297   4.576  18.553  0.00  0.00    +0.000 A 
ENDROOT
BRANCH   6  15
ATOM     15  C   UNL     1       1.418   9.808  18.145  0.00  0.00    +0.000 C 
ATOM     16  O   UNL     1       0.321   9.971  18.656  0.00  0.00    +0.000 OA
BRANCH  15  17
ATOM     17  OXT UNL     1       2.077  10.777  17.457  0.00  0.00    +0.000 OA
ATOM     18  HXT UNL     1       2.769  10.334  16.911  0.00  0.00    +0.000 HD
ENDBRANCH  15  17
ENDBRANCH   6  15
BRANCH   1  19
ATOM     19  C   UNL     1       6.146   4.435  16.836  0.00  0.00    +0.000 C 
BRANCH  19  21
ATOM     20  C   UNL     1       6.411   4.066  14.360  0.00  0.00    +0.000 C 
ATOM     21  C   UNL     1       5.646   3.668  15.611  0.00  0.00    +0.000 C 
ENDBRANCH  19  21
ENDBRANCH   1  19
TORSDOF 4
ENDMDL
MODEL 6
REMARK VINA RESULT:      -6.8      1.921      3.681
REMARK  Name = 
REMARK  5 active torsions:
REMARK  status: ('A' for Active; 'I' for Inactive)
REMARK    1  A    between atoms: C_1  and  C_2
REMARK    2  A    between atoms: C_2  and  C_3
REMARK    3  A    between atoms: C_3  and  N_4
REMARK    4  A    between atoms: CA_9  and  C_10
REMARK    5  A    between atoms: C_10  and  OXT_12
REMARK                            x       y       z     vdW  Elec       q    Type
REMARK                         _______ _______ _______ _____ _____    ______ ____
ROOT
ATOM      1  N   UNL     1       2.297   6.602  19.191  0.00  0.00    +0.000 N 
ATOM      2  C   UNL     1       3.301   7.049  18.308  0.00  0.00    +0.000 A 
ATOM      3  O   UNL     1       3.325   8.200  17.873  0.00  0.00    +0.000 OA
ATOM      4  C   UNL     1       4.299   6.065  17.960  0.00  0.00    +0.000 A 
ATOM      5  N   UNL     1       5.329   6.263  17.155  0.00  0.00    +0.000 NA
ATOM      6  CA  UNL     1       6.002   5.057  17.129  0.00  0.00    +0.000 A 
ATOM      7  C   UNL     1       5.361   4.130  17.927  0.00  0.00    +0.000 A 
ATOM      8  N   UNL     1       4.276   4.786  18.453  0.00  0.00    +0.000 N 
ATOM      9  C   UNL     1       3.282   4.340  19.340  0.00  0.00    +0.000 A 
ATOM     10  C   UNL     1       3.284   3.024  19.825  0.00  0.00    +0.000 A 
ATOM     11  C   UNL     1       2.288   2.619  20.712  0.00  0.00    +0.000 A 
ATOM     12  C   UNL     1       1.313   3.523  21.120  0.00  0.00    +0.000 A 
ATOM     13  C   UNL     1       1.317   4.836  20.636  0.00  0.00    +0.000 A 
ATOM     14  C   UNL     1       2.293   5.269  19.725  0.00  0.00    +0.000 A 
ENDROOT
BRANCH   6  15
ATOM     15  C   UNL     1       7.215   4.889  16.341  0.00  0.00    +0.000 C 
ATOM     16  O   UNL     1       7.394   5.366  15.231  0.00  0.00    +0.000 OA
BRANCH  15  17
ATOM     17  OXT UNL     1       8.137   4.129  16.989  0.00  0.00    +0.000 OA
ATOM     18  HXT UNL     1       8.676   3.668  16.303  0.00  0.00    +0.000 HD
ENDBRANCH  15  17
ENDBRANCH   6  15
BRANCH   1  19
ATOM     19  C   UNL     1       1.292   7.585  19.593  0.00  0.00    +0.000 C 
BRANCH  19  21
ATOM     20  C   UNL     1       0.368   8.740  21.629  0.00  0.00    +0.000 C 
ATOM     21  C   UNL     1       1.618   8.201  20.955  0.00  0.00    +0.000 C 
ENDBRANCH  19  21
ENDBRANCH   1  19
TORSDOF 4
ENDMDL
MODEL 7
REMARK VINA RESULT:      -6.7      1.793      3.538
REMARK  Name = 
REMARK  5 active torsions:
REMARK  status: ('A' for Active; 'I' for Inactive)
REMARK    1  A    between atoms: C_1  and  C_2
REMARK    2  A    between atoms: C_2  and  C_3
REMARK    3  A    between atoms: C_3  and  N_4
REMARK    4  A    between atoms: CA_9  and  C_10
REMARK    5  A    between atoms: C_10  and  OXT_12
REMARK                            x       y       z     vdW  Elec       q    Type
REMARK                         _______ _______ _______ _____ _____    ______ ____
ROOT
ATOM      1  N   UNL     1       2.283   6.414  19.005  0.00  0.00    +0.000 N 
ATOM      2  C   UNL     1       3.231   6.874  18.070  0.00  0.00    +0.000 A 
ATOM      3  O   UNL     1       3.367   8.069  17.810  0.00  0.00    +0.000 OA
ATOM      4  C   UNL     1       4.032   5.847  17.448  0.00  0.00    +0.000 A 
ATOM      5  N   UNL     1       4.980   6.048  16.548  0.00  0.00    +0.000 NA
ATOM      6  CA  UNL     1       5.468   4.790  16.253  0.00  0.00    +0.000 A 
ATOM      7  C   UNL     1       4.798   3.829  16.985  0.00  0.00    +0.000 A 
ATOM      8  N   UNL     1       3.885   4.517  17.745  0.00  0.00    +0.000 N 
ATOM      9  C   UNL     1       2.947   4.055  18.684  0.00  0.00    +0.000 A 
ATOM     10  C   UNL     1       2.818   2.687  18.964  0.00  0.00    +0.000 A 
ATOM     11  C   UNL     1       1.885   2.266  19.909  0.00  0.00    +0.000 A 
ATOM     12  C   UNL     1       1.101   3.203  20.575  0.00  0.00    +0.000 A 
ATOM     13  C   UNL     1       1.235   4.567  20.294  0.00  0.00    +0.000 A 
ATOM     14  C   UNL     1       2.151   5.022  19.333  0.00  0.00    +0.000 A 
ENDROOT
BRANCH   6  15
ATOM     15  C   UNL     1       6.546   4.607  15.291  0.00  0.00    +0.000 C 
ATOM     16  O   UNL     1       7.510   5.349  15.179  0.00  0.00    +0.000 OA
BRANCH  15  17
ATOM     17  OXT UNL     1       6.353   3.505  14.520  0.00  0.00    +0.000 OA
ATOM     18  HXT UNL     1       6.602   2.718  15.060  0.00  0.00    +0.000 HD
ENDBRANCH  15  17
ENDBRANCH   6  15
BRANCH   1  19
ATOM     19  C   UNL     1       1.480   7.433  19.681  0.00  0.00    +0.000 C 
BRANCH  19  21
ATOM     20  C   UNL     1       1.221   8.834  21.756  0.00  0.00    +0.000 C 
ATOM     21  C   UNL     1       1.971   7.683  21.108  0.00  0.00    +0.000 C 
ENDBRANCH  19  21
ENDBRANCH   1  19
TORSDOF 4
ENDMDL
MODEL 8
REMARK VINA RESULT:      -6.7      0.987      1.182
REMARK  Name = 
REMARK  5 active torsions:
REMARK  status: ('A' for Active; 'I' for Inactive)
REMARK    1  A    between atoms: C_1  and  C_2
REMARK    2  A    between atoms: C_2  and  C_3
REMARK    3  A    between atoms: C_3  and  N_4
REMARK    4  A    between atoms: CA_9  and  C_10
REMARK    5  A    between atoms: C_10  and  OXT_12
REMARK                            x       y       z     vdW  Elec       q    Type
REMARK                         _______ _______ _______ _____ _____    ______ ____
ROOT
ATOM      1  N   UNL     1       3.077   4.536  20.242  0.00  0.00    +0.000 N 
ATOM      2  C   UNL     1       4.064   3.858  19.498  0.00  0.00    +0.000 A 
ATOM      3  O   UNL     1       4.433   2.720  19.785  0.00  0.00    +0.000 OA
ATOM      4  C   UNL     1       4.600   4.590  18.375  0.00  0.00    +0.000 A 
ATOM      5  N   UNL     1       5.528   4.151  17.541  0.00  0.00    +0.000 NA
ATOM      6  CA  UNL     1       5.713   5.179  16.637  0.00  0.00    +0.000 A 
ATOM      7  C   UNL     1       4.888   6.243  16.941  0.00  0.00    +0.000 A 
ATOM      8  N   UNL     1       4.182   5.855  18.051  0.00  0.00    +0.000 N 
ATOM      9  C   UNL     1       3.192   6.530  18.786  0.00  0.00    +0.000 A 
ATOM     10  C   UNL     1       2.787   7.825  18.432  0.00  0.00    +0.000 A 
ATOM     11  C   UNL     1       1.795   8.460  19.176  0.00  0.00    +0.000 A 
ATOM     12  C   UNL     1       1.206   7.803  20.252  0.00  0.00    +0.000 A 
ATOM     13  C   UNL     1       1.612   6.509  20.599  0.00  0.00    +0.000 A 
ATOM     14  C   UNL     1       2.623   5.851  19.883  0.00  0.00    +0.000 A 
ENDROOT
BRANCH   6  15
ATOM     15  C   UNL     1       6.669   5.057  15.545  0.00  0.00    +0.000 C 
ATOM     16  O   UNL     1       6.445   5.372  14.386  0.00  0.00    +0.000 OA
BRANCH  15  17
ATOM     17  OXT UNL     1       7.855   4.543  15.967  0.00  0.00    +0.000 OA
ATOM     18  HXT UNL     1       7.684   3.624  16.282  0.00  0.00    +0.000 HD
ENDBRANCH  15  17
ENDBRANCH   6  15
BRANCH   1  19
ATOM     19  C   UNL     1       2.486   3.808  21.365  0.00  0.00    +0.000 C 
BRANCH  19  21
ATOM     20  C   UNL     1       0.725   3.111  19.707  0.00  0.00    +0.000 C 
ATOM     21  C   UNL     1       1.578   2.674  20.885  0.00  0.00    +0.000 C 
ENDBRANCH  19  21
ENDBRANCH   1  19
TORSDOF 4
ENDMDL
MODEL 9
REMARK VINA RESULT:      -6.7      3.084      5.721
REMARK  Name = 
REMARK  5 active torsions:
REMARK  status: ('A' for Active; 'I' for Inactive)
REMARK    1  A    between atoms: C_1  and  C_2
REMARK    2  A    between atoms: C_2  and  C_3
REMARK    3  A    between atoms: C_3  and  N_4
REMARK    4  A    between atoms: CA_9  and  C_10
REMARK    5  A    between atoms: C_10  and  OXT_12
REMARK                            x       y       z     vdW  Elec       q    Type
REMARK                         _______ _______ _______ _____ _____    ______ ____
ROOT
ATOM      1  N   UNL     1       5.238   5.050  17.126  0.00  0.00    +0.000 N 
ATOM      2  C   UNL     1       5.161   6.457  17.111  0.00  0.00    +0.000 A 
ATOM      3  O   UNL     1       6.113   7.161  16.773  0.00  0.00    +0.000 OA
ATOM      4  C   UNL     1       3.889   7.009  17.511  0.00  0.00    +0.000 A 
ATOM      5  N   UNL     1       3.591   8.296  17.569  0.00  0.00    +0.000 NA
ATOM      6  CA  UNL     1       2.276   8.342  17.991  0.00  0.00    +0.000 A 
ATOM      7  C   UNL     1       1.789   7.066  18.190  0.00  0.00    +0.000 A 
ATOM      8  N   UNL     1       2.827   6.224  17.879  0.00  0.00    +0.000 N 
ATOM      9  C   UNL     1       2.897   4.820  17.886  0.00  0.00    +0.000 A 
ATOM     10  C   UNL     1       1.795   4.044  18.270  0.00  0.00    +0.000 A 
ATOM     11  C   UNL     1       1.897   2.654  18.255  0.00  0.00    +0.000 A 
ATOM     12  C   UNL     1       3.081   2.050  17.847  0.00  0.00    +0.000 A 
ATOM     13  C   UNL     1       4.178   2.829  17.461  0.00  0.00    +0.000 A 
ATOM     14  C   UNL     1       4.114   4.231  17.486  0.00  0.00    +0.000 A 
ENDROOT
BRANCH   6  15
ATOM     15  C   UNL     1       1.587   9.613  18.167  0.00  0.00    +0.000 C 
ATOM     16  O   UNL     1       0.632   9.789  18.909  0.00  0.00    +0.000 OA
BRANCH  15  17
ATOM     17  OXT UNL     1       2.131  10.594  17.399  0.00  0.00    +0.000 OA
ATOM     18  HXT UNL     1       1.504  11.356  17.404  0.00  0.00    +0.000 HD
ENDBRANCH  15  17
ENDBRANCH   6  15
BRANCH   1  19
ATOM     19  C   UNL     1       6.502   4.457  16.690  0.00  0.00    +0.000 C 
BRANCH  19  21
ATOM     20  C   UNL     1       5.874   3.933  14.310  0.00  0.00    +0.000 C 
ATOM     21  C   UNL     1       6.782   4.747  15.214  0.00  0.00    +0.000 C 
ENDBRANCH  19  21
ENDBRANCH   1  19
TORSDOF 4
ENDMDL
