MODEL 1
REMARK VINA RESULT:      -9.4      0.000      0.000
REMARK  Name = 
REMARK  5 active torsions:
REMARK  status: ('A' for Active; 'I' for Inactive)
REMARK    1  A    between atoms: C_2  and  C_12
REMARK    2  A    between atoms: N_3  and  C_4
REMARK    3  A    between atoms: C_17  and  O_18
REMARK    4  A    between atoms: O_18  and  C_19
REMARK    5  A    between atoms: C_22  and  C_23
REMARK                            x       y       z     vdW  Elec       q    Type
REMARK                         _______ _______ _______ _____ _____    ______ ____
ROOT
ATOM      1  C   UNL     1       2.358   7.550  19.256  0.00  0.00    +0.000 A 
ATOM      2  C   UNL     1       2.342   8.166  18.014  0.00  0.00    +0.000 A 
ATOM      3  C   UNL     1       1.582   9.325  17.865  0.00  0.00    +0.000 A 
ATOM      4  C   UNL     1       0.846   9.815  18.954  0.00  0.00    +0.000 A 
ATOM      5  C   UNL     1       0.026  10.959  18.854  0.00  0.00    +0.000 A 
ATOM      6  C   UNL     1      -0.713  11.387  19.951  0.00  0.00    +0.000 A 
ATOM      7  C   UNL     1      -0.664  10.655  21.138  0.00  0.00    +0.000 A 
ATOM      8  C   UNL     1       0.180   9.553  21.250  0.00  0.00    +0.000 A 
ATOM      9  C   UNL     1       0.933   9.109  20.179  0.00  0.00    +0.000 A 
ATOM     10  N   UNL     1       1.681   8.009  20.342  0.00  0.00    +0.000 NA
ENDROOT
BRANCH   1  12
ATOM     11  O   UNL     1       2.740   5.445  20.292  0.00  0.00    +0.000 OA
ATOM     12  C   UNL     1       3.101   6.263  19.452  0.00  0.00    +0.000 C 
ATOM     13  N   UNL     1       4.207   6.100  18.632  0.00  0.00    +0.000 N 
ATOM     14  H   UNL     1       4.424   6.893  18.038  0.00  0.00    +0.000 HD
BRANCH  13  15
ATOM     15  C   UNL     1       5.113   4.966  18.768  0.00  0.00    +0.000 C 
ATOM     16  C   UNL     1       6.568   5.422  18.929  0.00  0.00    +0.000 C 
ATOM     17  C   UNL     1       7.171   5.966  17.634  0.00  0.00    +0.000 C 
ATOM     18  C   UNL     1       6.971   5.024  16.459  0.00  0.00    +0.000 C 
ATOM     19  F   UNL     1       7.802   3.957  16.605  0.00  0.00    +0.000 F 
ATOM     20  F   UNL     1       7.354   5.650  15.316  0.00  0.00    +0.000 F 
ATOM     21  C   UNL     1       5.549   4.518  16.295  0.00  0.00    +0.000 C 
ATOM     22  C   UNL     1       4.969   3.984  17.603  0.00  0.00    +0.000 C 
ENDBRANCH  13  15
ENDBRANCH   1  12
BRANCH   6  23
ATOM     23  O   UNL     1      -1.521  12.493  19.779  0.00  0.00    +0.000 OA
BRANCH  23  24
ATOM     24  C   UNL     1      -2.858  12.278  19.468  0.00  0.00    +0.000 A 
ATOM     25  C   UNL     1      -3.134  11.626  18.277  0.00  0.00    +0.000 A 
ATOM     26  C   UNL     1      -4.469  11.367  17.962  0.00  0.00    +0.000 A 
ATOM     27  C   UNL     1      -5.480  11.768  18.842  0.00  0.00    +0.000 A 
ATOM     28  C   UNL     1      -5.099  12.433  19.998  0.00  0.00    +0.000 A 
ATOM     29  N   UNL     1      -3.819  12.711  20.317  0.00  0.00    +0.000 NA
BRANCH  27  30
ATOM     30  C   UNL     1      -6.936  11.514  18.599  0.00  0.00    +0.000 C 
ATOM     31  F   UNL     1      -7.735  11.901  19.630  0.00  0.00    +0.000 F 
ATOM     32  F   UNL     1      -7.399  12.170  17.499  0.00  0.00    +0.000 F 
ATOM     33  F   UNL     1      -7.205  10.196  18.390  0.00  0.00    +0.000 F 
ENDBRANCH  27  30
ENDBRANCH  23  24
ENDBRANCH   6  23
TORSDOF 5
ENDMDL
MODEL 2
REMARK VINA RESULT:      -9.3      0.718      1.184
REMARK  Name = 
REMARK  5 active torsions:
REMARK  status: ('A' for Active; 'I' for Inactive)
REMARK    1  A    between atoms: C_2  and  C_12
REMARK    2  A    between atoms: N_3  and  C_4
REMARK    3  A    between atoms: C_17  and  O_18
REMARK    4  A    between atoms: O_18  and  C_19
REMARK    5  A    between atoms: C_22  and  C_23
REMARK                            x       y       z     vdW  Elec       q    Type
REMARK                         _______ _______ _______ _____ _____    ______ ____
ROOT
ATOM      1  C   UNL     1       2.200   7.588  19.328  0.00  0.00    +0.000 A 
ATOM      2  C   UNL     1       2.143   8.162  18.067  0.00  0.00    +0.000 A 
ATOM      3  C   UNL     1       1.395   9.327  17.909  0.00  0.00    +0.000 A 
ATOM      4  C   UNL     1       0.710   9.865  19.007  0.00  0.00    +0.000 A 
ATOM      5  C   UNL     1      -0.097  11.017  18.901  0.00  0.00    +0.000 A 
ATOM      6  C   UNL     1      -0.785  11.493  20.011  0.00  0.00    +0.000 A 
ATOM      7  C   UNL     1      -0.700  10.801  21.219  0.00  0.00    +0.000 A 
ATOM      8  C   UNL     1       0.132   9.690  21.336  0.00  0.00    +0.000 A 
ATOM      9  C   UNL     1       0.836   9.199  20.252  0.00  0.00    +0.000 A 
ATOM     10  N   UNL     1       1.573   8.093  20.423  0.00  0.00    +0.000 NA
ENDROOT
BRANCH   1  12
ATOM     11  O   UNL     1       2.529   5.465  20.345  0.00  0.00    +0.000 OA
ATOM     12  C   UNL     1       2.931   6.295  19.538  0.00  0.00    +0.000 C 
ATOM     13  N   UNL     1       4.075   6.145  18.770  0.00  0.00    +0.000 N 
ATOM     14  H   UNL     1       4.323   6.947  18.201  0.00  0.00    +0.000 HD
BRANCH  13  15
ATOM     15  C   UNL     1       4.973   5.007  18.931  0.00  0.00    +0.000 C 
ATOM     16  C   UNL     1       6.415   5.458  19.193  0.00  0.00    +0.000 C 
ATOM     17  C   UNL     1       7.096   6.035  17.951  0.00  0.00    +0.000 C 
ATOM     18  C   UNL     1       6.968   5.124  16.742  0.00  0.00    +0.000 C 
ATOM     19  F   UNL     1       7.790   4.053  16.909  0.00  0.00    +0.000 F 
ATOM     20  F   UNL     1       7.418   5.780  15.641  0.00  0.00    +0.000 F 
ATOM     21  C   UNL     1       5.559   4.624  16.479  0.00  0.00    +0.000 C 
ATOM     22  C   UNL     1       4.902   4.056  17.735  0.00  0.00    +0.000 C 
ENDBRANCH  13  15
ENDBRANCH   1  12
BRANCH   6  23
ATOM     23  O   UNL     1      -1.584  12.605  19.834  0.00  0.00    +0.000 OA
BRANCH  23  24
ATOM     24  C   UNL     1      -2.960  12.421  19.825  0.00  0.00    +0.000 A 
ATOM     25  C   UNL     1      -3.664  12.839  20.944  0.00  0.00    +0.000 A 
ATOM     26  C   UNL     1      -5.051  12.696  20.941  0.00  0.00    +0.000 A 
ATOM     27  C   UNL     1      -5.690  12.141  19.826  0.00  0.00    +0.000 A 
ATOM     28  C   UNL     1      -4.894  11.733  18.766  0.00  0.00    +0.000 A 
ATOM     29  N   UNL     1      -3.550  11.844  18.752  0.00  0.00    +0.000 NA
BRANCH  27  30
ATOM     30  C   UNL     1      -7.174  11.970  19.725  0.00  0.00    +0.000 C 
ATOM     31  F   UNL     1      -7.600  10.718  20.045  0.00  0.00    +0.000 F 
ATOM     32  F   UNL     1      -7.851  12.818  20.548  0.00  0.00    +0.000 F 
ATOM     33  F   UNL     1      -7.641  12.216  18.470  0.00  0.00    +0.000 F 
ENDBRANCH  27  30
ENDBRANCH  23  24
ENDBRANCH   6  23
TORSDOF 5
ENDMDL
MODEL 3
REMARK VINA RESULT:      -9.1      1.563      2.040
REMARK  Name = 
REMARK  5 active torsions:
REMARK  status: ('A' for Active; 'I' for Inactive)
REMARK    1  A    between atoms: C_2  and  C_12
REMARK    2  A    between atoms: N_3  and  C_4
REMARK    3  A    between atoms: C_17  and  O_18
REMARK    4  A    between atoms: O_18  and  C_19
REMARK    5  A    between atoms: C_22  and  C_23
REMARK                            x       y       z     vdW  Elec       q    Type
REMARK                         _______ _______ _______ _____ _____    ______ ____
ROOT
ATOM      1  C   UNL     1       2.188   7.779  18.786  0.00  0.00    +0.000 A 
ATOM      2  C   UNL     1       2.139   8.771  17.818  0.00  0.00    +0.000 A 
ATOM      3  C   UNL     1       1.548   9.988  18.154  0.00  0.00    +0.000 A 
ATOM      4  C   UNL     1       1.006  10.164  19.435  0.00  0.00    +0.000 A 
ATOM      5  C   UNL     1       0.359  11.357  19.821  0.00  0.00    +0.000 A 
ATOM      6  C   UNL     1      -0.195  11.473  21.090  0.00  0.00    +0.000 A 
ATOM      7  C   UNL     1      -0.137  10.387  21.965  0.00  0.00    +0.000 A 
ATOM      8  C   UNL     1       0.542   9.226  21.601  0.00  0.00    +0.000 A 
ATOM      9  C   UNL     1       1.110   9.086  20.348  0.00  0.00    +0.000 A 
ATOM     10  N   UNL     1       1.698   7.921  20.046  0.00  0.00    +0.000 NA
ENDROOT
BRANCH   1  12
ATOM     11  O   UNL     1       2.173   5.402  18.806  0.00  0.00    +0.000 OA
ATOM     12  C   UNL     1       2.747   6.428  18.455  0.00  0.00    +0.000 C 
ATOM     13  N   UNL     1       3.943   6.450  17.756  0.00  0.00    +0.000 N 
ATOM     14  H   UNL     1       4.336   7.372  17.600  0.00  0.00    +0.000 HD
BRANCH  13  15
ATOM     15  C   UNL     1       4.689   5.233  17.456  0.00  0.00    +0.000 C 
ATOM     16  C   UNL     1       5.245   4.583  18.729  0.00  0.00    +0.000 C 
ATOM     17  C   UNL     1       6.419   5.355  19.331  0.00  0.00    +0.000 C 
ATOM     18  C   UNL     1       7.495   5.670  18.306  0.00  0.00    +0.000 C 
ATOM     19  F   UNL     1       8.170   4.526  18.013  0.00  0.00    +0.000 F 
ATOM     20  F   UNL     1       8.403   6.516  18.858  0.00  0.00    +0.000 F 
ATOM     21  C   UNL     1       6.974   6.275  17.015  0.00  0.00    +0.000 C 
ATOM     22  C   UNL     1       5.801   5.487  16.436  0.00  0.00    +0.000 C 
ENDBRANCH  13  15
ENDBRANCH   1  12
BRANCH   6  23
ATOM     23  O   UNL     1      -0.843  12.653  21.395  0.00  0.00    +0.000 OA
BRANCH  23  24
ATOM     24  C   UNL     1      -2.231  12.664  21.338  0.00  0.00    +0.000 A 
ATOM     25  C   UNL     1      -2.814  12.622  20.082  0.00  0.00    +0.000 A 
ATOM     26  C   UNL     1      -4.207  12.596  20.003  0.00  0.00    +0.000 A 
ATOM     27  C   UNL     1      -4.970  12.614  21.176  0.00  0.00    +0.000 A 
ATOM     28  C   UNL     1      -4.289  12.679  22.384  0.00  0.00    +0.000 A 
ATOM     29  N   UNL     1      -2.946  12.723  22.486  0.00  0.00    +0.000 NA
BRANCH  27  30
ATOM     30  C   UNL     1      -6.466  12.566  21.190  0.00  0.00    +0.000 C 
ATOM     31  F   UNL     1      -6.970  11.303  21.144  0.00  0.00    +0.000 F 
ATOM     32  F   UNL     1      -6.992  13.139  22.309  0.00  0.00    +0.000 F 
ATOM     33  F   UNL     1      -7.017  13.229  20.137  0.00  0.00    +0.000 F 
ENDBRANCH  27  30
ENDBRANCH  23  24
ENDBRANCH   6  23
TORSDOF 5
ENDMDL
MODEL 4
REMARK VINA RESULT:      -9.0      1.667      2.232
REMARK  Name = 
REMARK  5 active torsions:
REMARK  status: ('A' for Active; 'I' for Inactive)
REMARK    1  A    between atoms: C_2  and  C_12
REMARK    2  A    between atoms: N_3  and  C_4
REMARK    3  A    between atoms: C_17  and  O_18
REMARK    4  A    between atoms: O_18  and  C_19
REMARK    5  A    between atoms: C_22  and  C_23
REMARK                            x       y       z     vdW  Elec       q    Type
REMARK                         _______ _______ _______ _____ _____    ______ ____
ROOT
ATOM      1  C   UNL     1       2.178   7.818  18.796  0.00  0.00    +0.000 A 
ATOM      2  C   UNL     1       2.105   8.851  17.874  0.00  0.00    +0.000 A 
ATOM      3  C   UNL     1       1.520  10.050  18.276  0.00  0.00    +0.000 A 
ATOM      4  C   UNL     1       1.007  10.169  19.575  0.00  0.00    +0.000 A 
ATOM      5  C   UNL     1       0.366  11.342  20.027  0.00  0.00    +0.000 A 
ATOM      6  C   UNL     1      -0.158  11.401  21.313  0.00  0.00    +0.000 A 
ATOM      7  C   UNL     1      -0.078  10.279  22.138  0.00  0.00    +0.000 A 
ATOM      8  C   UNL     1       0.594   9.137  21.708  0.00  0.00    +0.000 A 
ATOM      9  C   UNL     1       1.133   9.053  20.438  0.00  0.00    +0.000 A 
ATOM     10  N   UNL     1       1.717   7.903  20.072  0.00  0.00    +0.000 NA
ENDROOT
BRANCH   1  12
ATOM     11  O   UNL     1       2.130   5.446  18.649  0.00  0.00    +0.000 OA
ATOM     12  C   UNL     1       2.732   6.484  18.395  0.00  0.00    +0.000 C 
ATOM     13  N   UNL     1       3.956   6.535  17.747  0.00  0.00    +0.000 N 
ATOM     14  H   UNL     1       4.367   7.459  17.672  0.00  0.00    +0.000 HD
BRANCH  13  15
ATOM     15  C   UNL     1       4.697   5.330  17.393  0.00  0.00    +0.000 C 
ATOM     16  C   UNL     1       5.231   4.609  18.636  0.00  0.00    +0.000 C 
ATOM     17  C   UNL     1       6.403   5.340  19.293  0.00  0.00    +0.000 C 
ATOM     18  C   UNL     1       7.495   5.699  18.300  0.00  0.00    +0.000 C 
ATOM     19  F   UNL     1       8.166   4.567  17.955  0.00  0.00    +0.000 F 
ATOM     20  F   UNL     1       8.401   6.508  18.907  0.00  0.00    +0.000 F 
ATOM     21  C   UNL     1       6.995   6.376  17.036  0.00  0.00    +0.000 C 
ATOM     22  C   UNL     1       5.824   5.628  16.402  0.00  0.00    +0.000 C 
ENDBRANCH  13  15
ENDBRANCH   1  12
BRANCH   6  23
ATOM     23  O   UNL     1      -0.801  12.565  21.684  0.00  0.00    +0.000 OA
BRANCH  23  24
ATOM     24  C   UNL     1      -2.188  12.595  21.599  0.00  0.00    +0.000 A 
ATOM     25  C   UNL     1      -2.897  12.550  22.789  0.00  0.00    +0.000 A 
ATOM     26  C   UNL     1      -4.289  12.616  22.729  0.00  0.00    +0.000 A 
ATOM     27  C   UNL     1      -4.927  12.722  21.488  0.00  0.00    +0.000 A 
ATOM     28  C   UNL     1      -4.127  12.738  20.355  0.00  0.00    +0.000 A 
ATOM     29  N   UNL     1      -2.782  12.658  20.384  0.00  0.00    +0.000 NA
BRANCH  27  30
ATOM     30  C   UNL     1      -6.412  12.821  21.328  0.00  0.00    +0.000 C 
ATOM     31  F   UNL     1      -6.991  13.720  22.170  0.00  0.00    +0.000 F 
ATOM     32  F   UNL     1      -6.773  13.200  20.070  0.00  0.00    +0.000 F 
ATOM     33  F   UNL     1      -7.039  11.635  21.556  0.00  0.00    +0.000 F 
ENDBRANCH  27  30
ENDBRANCH  23  24
ENDBRANCH   6  23
TORSDOF 5
ENDMDL
MODEL 5
REMARK VINA RESULT:      -9.0      0.813      1.319
REMARK  Name = 
REMARK  5 active torsions:
REMARK  status: ('A' for Active; 'I' for Inactive)
REMARK    1  A    between atoms: C_2  and  C_12
REMARK    2  A    between atoms: N_3  and  C_4
REMARK    3  A    between atoms: C_17  and  O_18
REMARK    4  A    between atoms: O_18  and  C_19
REMARK    5  A    between atoms: C_22  and  C_23
REMARK                            x       y       z     vdW  Elec       q    Type
REMARK                         _______ _______ _______ _____ _____    ______ ____
ROOT
ATOM      1  C   UNL     1       2.340   7.642  19.147  0.00  0.00    +0.000 A 
ATOM      2  C   UNL     1       2.238   8.300  17.931  0.00  0.00    +0.000 A 
ATOM      3  C   UNL     1       1.451   9.449  17.871  0.00  0.00    +0.000 A 
ATOM      4  C   UNL     1       0.777   9.888  19.019  0.00  0.00    +0.000 A 
ATOM      5  C   UNL     1      -0.066  11.019  19.010  0.00  0.00    +0.000 A 
ATOM      6  C   UNL     1      -0.742  11.396  20.165  0.00  0.00    +0.000 A 
ATOM      7  C   UNL     1      -0.608  10.625  21.320  0.00  0.00    +0.000 A 
ATOM      8  C   UNL     1       0.258   9.534  21.341  0.00  0.00    +0.000 A 
ATOM      9  C   UNL     1       0.951   9.142  20.210  0.00  0.00    +0.000 A 
ATOM     10  N   UNL     1       1.724   8.050  20.288  0.00  0.00    +0.000 NA
ENDROOT
BRANCH   1  12
ATOM     11  O   UNL     1       2.823   5.512  20.087  0.00  0.00    +0.000 OA
ATOM     12  C   UNL     1       3.113   6.361  19.251  0.00  0.00    +0.000 C 
ATOM     13  N   UNL     1       4.164   6.243  18.354  0.00  0.00    +0.000 N 
ATOM     14  H   UNL     1       4.329   7.058  17.772  0.00  0.00    +0.000 HD
BRANCH  13  15
ATOM     15  C   UNL     1       5.094   5.121  18.392  0.00  0.00    +0.000 C 
ATOM     16  C   UNL     1       6.431   5.474  17.729  0.00  0.00    +0.000 C 
ATOM     17  C   UNL     1       6.338   5.564  16.206  0.00  0.00    +0.000 C 
ATOM     18  C   UNL     1       5.674   4.345  15.590  0.00  0.00    +0.000 C 
ATOM     19  F   UNL     1       6.539   3.296  15.651  0.00  0.00    +0.000 F 
ATOM     20  F   UNL     1       5.451   4.577  14.271  0.00  0.00    +0.000 F 
ATOM     21  C   UNL     1       4.368   3.941  16.251  0.00  0.00    +0.000 C 
ATOM     22  C   UNL     1       4.488   3.861  17.771  0.00  0.00    +0.000 C 
ENDBRANCH  13  15
ENDBRANCH   1  12
BRANCH   6  23
ATOM     23  O   UNL     1      -1.577  12.492  20.083  0.00  0.00    +0.000 OA
BRANCH  23  24
ATOM     24  C   UNL     1      -2.892  12.278  19.690  0.00  0.00    +0.000 A 
ATOM     25  C   UNL     1      -3.888  12.808  20.495  0.00  0.00    +0.000 A 
ATOM     26  C   UNL     1      -5.215  12.637  20.099  0.00  0.00    +0.000 A 
ATOM     27  C   UNL     1      -5.504  11.943  18.919  0.00  0.00    +0.000 A 
ATOM     28  C   UNL     1      -4.436  11.432  18.196  0.00  0.00    +0.000 A 
ATOM     29  N   UNL     1      -3.147  11.569  18.565  0.00  0.00    +0.000 NA
BRANCH  27  30
ATOM     30  C   UNL     1      -6.894  11.729  18.405  0.00  0.00    +0.000 C 
ATOM     31  F   UNL     1      -7.215  10.418  18.234  0.00  0.00    +0.000 F 
ATOM     32  F   UNL     1      -7.839  12.240  19.242  0.00  0.00    +0.000 F 
ATOM     33  F   UNL     1      -7.099  12.327  17.200  0.00  0.00    +0.000 F 
ENDBRANCH  27  30
ENDBRANCH  23  24
ENDBRANCH   6  23
TORSDOF 5
ENDMDL
MODEL 6
REMARK VINA RESULT:      -8.9      3.147      4.215
REMARK  Name = 
REMARK  5 active torsions:
REMARK  status: ('A' for Active; 'I' for Inactive)
REMARK    1  A    between atoms: C_2  and  C_12
REMARK    2  A    between atoms: N_3  and  C_4
REMARK    3  A    between atoms: C_17  and  O_18
REMARK    4  A    between atoms: O_18  and  C_19
REMARK    5  A    between atoms: C_22  and  C_23
REMARK                            x       y       z     vdW  Elec       q    Type
REMARK                         _______ _______ _______ _____ _____    ______ ____
ROOT
ATOM      1  C   UNL     1       1.408   8.405  20.185  0.00  0.00    +0.000 A 
ATOM      2  C   UNL     1       0.971   7.971  21.428  0.00  0.00    +0.000 A 
ATOM      3  C   UNL     1       0.201   8.843  22.194  0.00  0.00    +0.000 A 
ATOM      4  C   UNL     1      -0.087  10.125  21.705  0.00  0.00    +0.000 A 
ATOM      5  C   UNL     1      -0.825  11.067  22.452  0.00  0.00    +0.000 A 
ATOM      6  C   UNL     1      -1.056  12.339  21.940  0.00  0.00    +0.000 A 
ATOM      7  C   UNL     1      -0.519  12.686  20.700  0.00  0.00    +0.000 A 
ATOM      8  C   UNL     1       0.172  11.742  19.943  0.00  0.00    +0.000 A 
ATOM      9  C   UNL     1       0.408  10.467  20.422  0.00  0.00    +0.000 A 
ATOM     10  N   UNL     1       1.128   9.628  19.665  0.00  0.00    +0.000 NA
ENDROOT
BRANCH   1  12
ATOM     11  O   UNL     1       2.757   7.932  18.286  0.00  0.00    +0.000 OA
ATOM     12  C   UNL     1       2.299   7.534  19.351  0.00  0.00    +0.000 C 
ATOM     13  N   UNL     1       2.532   6.271  19.874  0.00  0.00    +0.000 N 
ATOM     14  H   UNL     1       2.027   6.057  20.728  0.00  0.00    +0.000 HD
BRANCH  13  15
ATOM     15  C   UNL     1       3.276   5.253  19.142  0.00  0.00    +0.000 C 
ATOM     16  C   UNL     1       2.657   4.983  17.765  0.00  0.00    +0.000 C 
ATOM     17  C   UNL     1       1.341   4.207  17.843  0.00  0.00    +0.000 C 
ATOM     18  C   UNL     1       1.453   2.958  18.699  0.00  0.00    +0.000 C 
ATOM     19  F   UNL     1       2.168   2.021  18.020  0.00  0.00    +0.000 F 
ATOM     20  F   UNL     1       0.214   2.431  18.882  0.00  0.00    +0.000 F 
ATOM     21  C   UNL     1       2.101   3.182  20.054  0.00  0.00    +0.000 C 
ATOM     22  C   UNL     1       3.411   3.960  19.948  0.00  0.00    +0.000 C 
ENDBRANCH  13  15
ENDBRANCH   1  12
BRANCH   6  23
ATOM     23  O   UNL     1      -1.757  13.225  22.732  0.00  0.00    +0.000 OA
BRANCH  23  24
ATOM     24  C   UNL     1      -3.130  13.049  22.844  0.00  0.00    +0.000 A 
ATOM     25  C   UNL     1      -3.646  12.877  24.119  0.00  0.00    +0.000 A 
ATOM     26  C   UNL     1      -5.027  12.735  24.257  0.00  0.00    +0.000 A 
ATOM     27  C   UNL     1      -5.846  12.767  23.122  0.00  0.00    +0.000 A 
ATOM     28  C   UNL     1      -5.229  12.923  21.890  0.00  0.00    +0.000 A 
ATOM     29  N   UNL     1      -3.896  13.044  21.728  0.00  0.00    +0.000 NA
BRANCH  27  30
ATOM     30  C   UNL     1      -7.337  12.646  23.176  0.00  0.00    +0.000 C 
ATOM     31  F   UNL     1      -7.768  11.503  23.775  0.00  0.00    +0.000 F 
ATOM     32  F   UNL     1      -7.916  13.670  23.863  0.00  0.00    +0.000 F 
ATOM     33  F   UNL     1      -7.904  12.658  21.939  0.00  0.00    +0.000 F 
ENDBRANCH  27  30
ENDBRANCH  23  24
ENDBRANCH   6  23
TORSDOF 5
ENDMDL
MODEL 7
REMARK VINA RESULT:      -8.8      2.045      2.644
REMARK  Name = 
REMARK  5 active torsions:
REMARK  status: ('A' for Active; 'I' for Inactive)
REMARK    1  A    between atoms: C_2  and  C_12
REMARK    2  A    between atoms: N_3  and  C_4
REMARK    3  A    between atoms: C_17  and  O_18
REMARK    4  A    between atoms: O_18  and  C_19
REMARK    5  A    between atoms: C_22  and  C_23
REMARK                            x       y       z     vdW  Elec       q    Type
REMARK                         _______ _______ _______ _____ _____    ______ ____
ROOT
ATOM      1  C   UNL     1       2.125   7.649  19.300  0.00  0.00    +0.000 A 
ATOM      2  C   UNL     1       2.134   8.411  18.141  0.00  0.00    +0.000 A 
ATOM      3  C   UNL     1       1.483   9.643  18.160  0.00  0.00    +0.000 A 
ATOM      4  C   UNL     1       0.827  10.062  19.326  0.00  0.00    +0.000 A 
ATOM      5  C   UNL     1       0.116  11.278  19.395  0.00  0.00    +0.000 A 
ATOM      6  C   UNL     1      -0.549  11.635  20.563  0.00  0.00    +0.000 A 
ATOM      7  C   UNL     1      -0.537  10.763  21.652  0.00  0.00    +0.000 A 
ATOM      8  C   UNL     1       0.202   9.583  21.600  0.00  0.00    +0.000 A 
ATOM      9  C   UNL     1       0.880   9.207  20.455  0.00  0.00    +0.000 A 
ATOM     10  N   UNL     1       1.525   8.032  20.457  0.00  0.00    +0.000 NA
ENDROOT
BRANCH   1  12
ATOM     11  O   UNL     1       2.593   5.527  20.263  0.00  0.00    +0.000 OA
ATOM     12  C   UNL     1       2.748   6.285  19.312  0.00  0.00    +0.000 C 
ATOM     13  N   UNL     1       3.505   5.983  18.191  0.00  0.00    +0.000 N 
ATOM     14  H   UNL     1       3.603   6.737  17.519  0.00  0.00    +0.000 HD
BRANCH  13  15
ATOM     15  C   UNL     1       4.279   4.751  18.087  0.00  0.00    +0.000 C 
ATOM     16  C   UNL     1       5.511   4.780  18.999  0.00  0.00    +0.000 C 
ATOM     17  C   UNL     1       6.611   5.713  18.488  0.00  0.00    +0.000 C 
ATOM     18  C   UNL     1       6.956   5.462  17.031  0.00  0.00    +0.000 C 
ATOM     19  F   UNL     1       7.656   4.299  16.938  0.00  0.00    +0.000 F 
ATOM     20  F   UNL     1       7.788   6.442  16.595  0.00  0.00    +0.000 F 
ATOM     21  C   UNL     1       5.754   5.384  16.106  0.00  0.00    +0.000 C 
ATOM     22  C   UNL     1       4.671   4.449  16.639  0.00  0.00    +0.000 C 
ENDBRANCH  13  15
ENDBRANCH   1  12
BRANCH   6  23
ATOM     23  O   UNL     1      -1.253  12.822  20.555  0.00  0.00    +0.000 OA
BRANCH  23  24
ATOM     24  C   UNL     1      -2.416  12.891  21.312  0.00  0.00    +0.000 A 
ATOM     25  C   UNL     1      -3.615  12.668  20.653  0.00  0.00    +0.000 A 
ATOM     26  C   UNL     1      -4.792  12.696  21.401  0.00  0.00    +0.000 A 
ATOM     27  C   UNL     1      -4.736  12.948  22.776  0.00  0.00    +0.000 A 
ATOM     28  C   UNL     1      -3.488  13.181  23.336  0.00  0.00    +0.000 A 
ATOM     29  N   UNL     1      -2.338  13.176  22.633  0.00  0.00    +0.000 NA
BRANCH  27  30
ATOM     30  C   UNL     1      -5.943  12.976  23.662  0.00  0.00    +0.000 C 
ATOM     31  F   UNL     1      -7.055  12.446  23.082  0.00  0.00    +0.000 F 
ATOM     32  F   UNL     1      -5.755  12.278  24.816  0.00  0.00    +0.000 F 
ATOM     33  F   UNL     1      -6.282  14.239  24.039  0.00  0.00    +0.000 F 
ENDBRANCH  27  30
ENDBRANCH  23  24
ENDBRANCH   6  23
TORSDOF 5
ENDMDL
MODEL 8
REMARK VINA RESULT:      -8.8      3.135      4.006
REMARK  Name = 
REMARK  5 active torsions:
REMARK  status: ('A' for Active; 'I' for Inactive)
REMARK    1  A    between atoms: C_2  and  C_12
REMARK    2  A    between atoms: N_3  and  C_4
REMARK    3  A    between atoms: C_17  and  O_18
REMARK    4  A    between atoms: O_18  and  C_19
REMARK    5  A    between atoms: C_22  and  C_23
REMARK                            x       y       z     vdW  Elec       q    Type
REMARK                         _______ _______ _______ _____ _____    ______ ____
ROOT
ATOM      1  C   UNL     1       1.980   8.558  18.982  0.00  0.00    +0.000 A 
ATOM      2  C   UNL     1       1.853   9.703  18.210  0.00  0.00    +0.000 A 
ATOM      3  C   UNL     1       1.218  10.808  18.775  0.00  0.00    +0.000 A 
ATOM      4  C   UNL     1       0.712  10.725  20.079  0.00  0.00    +0.000 A 
ATOM      5  C   UNL     1       0.024  11.795  20.690  0.00  0.00    +0.000 A 
ATOM      6  C   UNL     1      -0.491  11.654  21.973  0.00  0.00    +0.000 A 
ATOM      7  C   UNL     1      -0.353  10.434  22.636  0.00  0.00    +0.000 A 
ATOM      8  C   UNL     1       0.365   9.393  22.052  0.00  0.00    +0.000 A 
ATOM      9  C   UNL     1       0.896   9.508  20.781  0.00  0.00    +0.000 A 
ATOM     10  N   UNL     1       1.528   8.447  20.259  0.00  0.00    +0.000 NA
ENDROOT
BRANCH   1  12
ATOM     11  O   UNL     1       3.333   7.375  17.427  0.00  0.00    +0.000 OA
ATOM     12  C   UNL     1       2.589   7.318  18.400  0.00  0.00    +0.000 C 
ATOM     13  N   UNL     1       2.226   6.140  19.034  0.00  0.00    +0.000 N 
ATOM     14  H   UNL     1       1.544   6.242  19.778  0.00  0.00    +0.000 HD
BRANCH  13  15
ATOM     15  C   UNL     1       2.627   4.832  18.530  0.00  0.00    +0.000 C 
ATOM     16  C   UNL     1       1.412   3.965  18.179  0.00  0.00    +0.000 C 
ATOM     17  C   UNL     1       0.669   3.449  19.412  0.00  0.00    +0.000 C 
ATOM     18  C   UNL     1       1.598   2.791  20.417  0.00  0.00    +0.000 C 
ATOM     19  F   UNL     1       1.987   1.582  19.929  0.00  0.00    +0.000 F 
ATOM     20  F   UNL     1       0.909   2.536  21.559  0.00  0.00    +0.000 F 
ATOM     21  C   UNL     1       2.835   3.604  20.755  0.00  0.00    +0.000 C 
ATOM     22  C   UNL     1       3.556   4.109  19.507  0.00  0.00    +0.000 C 
ENDBRANCH  13  15
ENDBRANCH   1  12
BRANCH   6  23
ATOM     23  O   UNL     1      -1.182  12.725  22.502  0.00  0.00    +0.000 OA
BRANCH  23  24
ATOM     24  C   UNL     1      -2.570  12.688  22.457  0.00  0.00    +0.000 A 
ATOM     25  C   UNL     1      -3.243  12.660  23.668  0.00  0.00    +0.000 A 
ATOM     26  C   UNL     1      -4.638  12.659  23.646  0.00  0.00    +0.000 A 
ATOM     27  C   UNL     1      -5.314  12.684  22.421  0.00  0.00    +0.000 A 
ATOM     28  C   UNL     1      -4.547  12.689  21.264  0.00  0.00    +0.000 A 
ATOM     29  N   UNL     1      -3.199  12.672  21.258  0.00  0.00    +0.000 NA
BRANCH  27  30
ATOM     30  C   UNL     1      -6.806  12.708  22.300  0.00  0.00    +0.000 C 
ATOM     31  F   UNL     1      -7.449  12.390  23.456  0.00  0.00    +0.000 F 
ATOM     32  F   UNL     1      -7.276  13.932  21.934  0.00  0.00    +0.000 F 
ATOM     33  F   UNL     1      -7.265  11.835  21.363  0.00  0.00    +0.000 F 
ENDBRANCH  27  30
ENDBRANCH  23  24
ENDBRANCH   6  23
TORSDOF 5
ENDMDL
MODEL 9
REMARK VINA RESULT:      -8.7      3.067      4.116
REMARK  Name = 
REMARK  5 active torsions:
REMARK  status: ('A' for Active; 'I' for Inactive)
REMARK    1  A    between atoms: C_2  and  C_12
REMARK    2  A    between atoms: N_3  and  C_4
REMARK    3  A    between atoms: C_17  and  O_18
REMARK    4  A    between atoms: O_18  and  C_19
REMARK    5  A    between atoms: C_22  and  C_23
REMARK                            x       y       z     vdW  Elec       q    Type
REMARK                         _______ _______ _______ _____ _____    ______ ____
ROOT
ATOM      1  C   UNL     1       1.467   8.498  19.717  0.00  0.00    +0.000 A 
ATOM      2  C   UNL     1       1.505   8.131  21.054  0.00  0.00    +0.000 A 
ATOM      3  C   UNL     1       0.832   8.933  21.975  0.00  0.00    +0.000 A 
ATOM      4  C   UNL     1       0.165  10.084  21.533  0.00  0.00    +0.000 A 
ATOM      5  C   UNL     1      -0.498  10.957  22.421  0.00  0.00    +0.000 A 
ATOM      6  C   UNL     1      -1.116  12.106  21.940  0.00  0.00    +0.000 A 
ATOM      7  C   UNL     1      -1.043  12.405  20.580  0.00  0.00    +0.000 A 
ATOM      8  C   UNL     1      -0.427  11.521  19.697  0.00  0.00    +0.000 A 
ATOM      9  C   UNL     1       0.188  10.366  20.145  0.00  0.00    +0.000 A 
ATOM     10  N   UNL     1       0.809   9.590  19.247  0.00  0.00    +0.000 NA
ENDROOT
BRANCH   1  12
ATOM     11  O   UNL     1       2.812   8.271  17.771  0.00  0.00    +0.000 OA
ATOM     12  C   UNL     1       2.233   7.712  18.696  0.00  0.00    +0.000 C 
ATOM     13  N   UNL     1       2.207   6.338  18.882  0.00  0.00    +0.000 N 
ATOM     14  H   UNL     1       1.626   6.016  19.648  0.00  0.00    +0.000 HD
BRANCH  13  15
ATOM     15  C   UNL     1       2.796   5.414  17.920  0.00  0.00    +0.000 C 
ATOM     16  C   UNL     1       1.784   4.358  17.458  0.00  0.00    +0.000 C 
ATOM     17  C   UNL     1       1.480   3.313  18.532  0.00  0.00    +0.000 C 
ATOM     18  C   UNL     1       2.739   2.708  19.127  0.00  0.00    +0.000 C 
ATOM     19  F   UNL     1       3.296   1.866  18.216  0.00  0.00    +0.000 F 
ATOM     20  F   UNL     1       2.402   1.941  20.197  0.00  0.00    +0.000 F 
ATOM     21  C   UNL     1       3.782   3.725  19.556  0.00  0.00    +0.000 C 
ATOM     22  C   UNL     1       4.065   4.758  18.468  0.00  0.00    +0.000 C 
ENDBRANCH  13  15
ENDBRANCH   1  12
BRANCH   6  23
ATOM     23  O   UNL     1      -1.719  12.936  22.863  0.00  0.00    +0.000 OA
BRANCH  23  24
ATOM     24  C   UNL     1      -3.096  12.840  23.020  0.00  0.00    +0.000 A 
ATOM     25  C   UNL     1      -3.575  12.627  24.303  0.00  0.00    +0.000 A 
ATOM     26  C   UNL     1      -4.957  12.564  24.489  0.00  0.00    +0.000 A 
ATOM     27  C   UNL     1      -5.812  12.712  23.391  0.00  0.00    +0.000 A 
ATOM     28  C   UNL     1      -5.232  12.899  22.145  0.00  0.00    +0.000 A 
ATOM     29  N   UNL     1      -3.901  12.946  21.937  0.00  0.00    +0.000 NA
BRANCH  27  30
ATOM     30  C   UNL     1      -7.306  12.681  23.497  0.00  0.00    +0.000 C 
ATOM     31  F   UNL     1      -7.789  13.381  24.559  0.00  0.00    +0.000 F 
ATOM     32  F   UNL     1      -7.914  13.203  22.396  0.00  0.00    +0.000 F 
ATOM     33  F   UNL     1      -7.791  11.417  23.628  0.00  0.00    +0.000 F 
ENDBRANCH  27  30
ENDBRANCH  23  24
ENDBRANCH   6  23
TORSDOF 5
ENDMDL
