MODEL 1
REMARK VINA RESULT:      -8.0      0.000      0.000
REMARK  Name = 
REMARK  8 active torsions:
REMARK  status: ('A' for Active; 'I' for Inactive)
REMARK    1  A    between atoms: CD1_1  and  CG1_2
REMARK    2  A    between atoms: CG1_2  and  CB_3
REMARK    3  A    between atoms: CB_3  and  CG2_4
REMARK    4  A    between atoms: CB_3  and  CA_5
REMARK    5  A    between atoms: CA_5  and  N_6
REMARK    6  A    between atoms: CA_5  and  C_24
REMARK    7  A    between atoms: C_7  and  C_9
REMARK    8  A    between atoms: C_24  and  OXT_26
REMARK                            x       y       z     vdW  Elec       q    Type
REMARK                         _______ _______ _______ _____ _____    ______ ____
ROOT
ATOM      1  C   UNK A   0       2.360   6.365  19.466  0.00  0.00    +0.000 A 
ATOM      2  C   UNK A   0       1.679   5.723  20.523  0.00  0.00    +0.000 A 
ATOM      3  C   UNK A   0       1.740   4.340  20.682  0.00  0.00    +0.000 A 
ATOM      4  C   UNK A   0       2.473   3.577  19.784  0.00  0.00    +0.000 A 
ATOM      5  C   UNK A   0       3.155   4.201  18.732  0.00  0.00    +0.000 A 
ATOM      6  C   UNK A   0       3.934   3.359  17.792  0.00  0.00    +0.000 A 
ATOM      7  O   UNK A   0       3.938   2.138  17.909  0.00  0.00    +0.000 OA
ATOM      8  C   UNK A   0       4.706   4.018  16.718  0.00  0.00    +0.000 A 
ATOM      9  C   UNK A   0       5.494   3.246  15.855  0.00  0.00    +0.000 A 
ATOM     10  C   UNK A   0       6.251   3.874  14.871  0.00  0.00    +0.000 A 
ATOM     11  C   UNK A   0       6.219   5.264  14.756  0.00  0.00    +0.000 A 
ATOM     12  C   UNK A   0       5.415   6.031  15.612  0.00  0.00    +0.000 A 
ATOM     13  C   UNK A   0       4.632   5.414  16.594  0.00  0.00    +0.000 A 
ATOM     14  N   UNK A   0       3.886   6.171  17.515  0.00  0.00    +0.000 N 
ATOM     15  C   UNK A   0       3.104   5.596  18.542  0.00  0.00    +0.000 A 
ATOM     16  H   UNK A   0       3.601   7.111  17.227  0.00  0.00    +0.000 HD
ENDROOT
BRANCH   1  18
ATOM     17  N   ILE A   1       1.308   8.467  20.163  0.00  0.00    +0.000 N 
ATOM     18  C   UNK A   0       2.178   7.839  19.282  0.00  0.00    +0.000 C 
ATOM     19  O   UNK A   0       2.721   8.421  18.352  0.00  0.00    +0.000 OA
ATOM     20  H   ILE A   1       1.133   8.025  21.059  0.00  0.00    +0.000 HD
BRANCH  17  21
ATOM     21  CA  ILE A   1       0.912   9.885  20.012  0.00  0.00    +0.000 C 
BRANCH  21  22
ATOM     22  CB  ILE A   1      -0.264  10.284  20.950  0.00  0.00    +0.000 C 
ATOM     23  CG2 ILE A   1      -0.013  11.668  21.560  0.00  0.00    +0.000 C 
BRANCH  22  25
ATOM     24  CD1 ILE A   1      -0.018   9.565  23.416  0.00  0.00    +0.000 C 
ATOM     25  CG1 ILE A   1      -0.561   9.218  22.034  0.00  0.00    +0.000 C 
ENDBRANCH  22  25
ENDBRANCH  21  22
BRANCH  21  26
ATOM     26  C   ILE A   1       0.525  10.194  18.550  0.00  0.00    +0.000 C 
ATOM     27  O   ILE A   1      -0.490   9.791  18.003  0.00  0.00    +0.000 OA
BRANCH  26  28
ATOM     28  OXT ILE A   1       1.470  10.905  17.881  0.00  0.00    +0.000 OA
ATOM     29  HXT ILE A   1       1.175  11.034  16.959  0.00  0.00    +0.000 HD
ENDBRANCH  26  28
ENDBRANCH  21  26
ENDBRANCH  17  21
ENDBRANCH   1  18
TORSDOF 6
ENDMDL
MODEL 2
REMARK VINA RESULT:      -7.9      0.746      1.079
REMARK  Name = 
REMARK  8 active torsions:
REMARK  status: ('A' for Active; 'I' for Inactive)
REMARK    1  A    between atoms: CD1_1  and  CG1_2
REMARK    2  A    between atoms: CG1_2  and  CB_3
REMARK    3  A    between atoms: CB_3  and  CG2_4
REMARK    4  A    between atoms: CB_3  and  CA_5
REMARK    5  A    between atoms: CA_5  and  N_6
REMARK    6  A    between atoms: CA_5  and  C_24
REMARK    7  A    between atoms: C_7  and  C_9
REMARK    8  A    between atoms: C_24  and  OXT_26
REMARK                            x       y       z     vdW  Elec       q    Type
REMARK                         _______ _______ _______ _____ _____    ______ ____
ROOT
ATOM      1  C   UNK A   0       2.150   6.250  19.728  0.00  0.00    +0.000 A 
ATOM      2  C   UNK A   0       1.417   5.532  20.698  0.00  0.00    +0.000 A 
ATOM      3  C   UNK A   0       1.435   4.139  20.726  0.00  0.00    +0.000 A 
ATOM      4  C   UNK A   0       2.178   3.442  19.784  0.00  0.00    +0.000 A 
ATOM      5  C   UNK A   0       2.912   4.142  18.818  0.00  0.00    +0.000 A 
ATOM      6  C   UNK A   0       3.700   3.370  17.827  0.00  0.00    +0.000 A 
ATOM      7  O   UNK A   0       3.668   2.144  17.827  0.00  0.00    +0.000 OA
ATOM      8  C   UNK A   0       4.526   4.104  16.845  0.00  0.00    +0.000 A 
ATOM      9  C   UNK A   0       5.322   3.393  15.938  0.00  0.00    +0.000 A 
ATOM     10  C   UNK A   0       6.129   4.088  15.042  0.00  0.00    +0.000 A 
ATOM     11  C   UNK A   0       6.138   5.484  15.060  0.00  0.00    +0.000 A 
ATOM     12  C   UNK A   0       5.326   6.190  15.959  0.00  0.00    +0.000 A 
ATOM     13  C   UNK A   0       4.493   5.507  16.852  0.00  0.00    +0.000 A 
ATOM     14  N   UNK A   0       3.736   6.196  17.817  0.00  0.00    +0.000 N 
ATOM     15  C   UNK A   0       2.904   5.550  18.760  0.00  0.00    +0.000 A 
ATOM     16  H   UNK A   0       3.487   7.166  17.611  0.00  0.00    +0.000 HD
ENDROOT
BRANCH   1  18
ATOM     17  N   ILE A   1       1.384   8.336  20.764  0.00  0.00    +0.000 N 
ATOM     18  C   UNK A   0       2.014   7.739  19.680  0.00  0.00    +0.000 C 
ATOM     19  O   UNK A   0       2.380   8.365  18.694  0.00  0.00    +0.000 OA
ATOM     20  H   ILE A   1       1.377   7.837  21.647  0.00  0.00    +0.000 HD
BRANCH  17  21
ATOM     21  CA  ILE A   1       1.042   9.775  20.789  0.00  0.00    +0.000 C 
BRANCH  21  22
ATOM     22  CB  ILE A   1       0.361  10.209  22.121  0.00  0.00    +0.000 C 
ATOM     23  CG2 ILE A   1      -0.503   9.068  22.672  0.00  0.00    +0.000 C 
BRANCH  22  25
ATOM     24  CD1 ILE A   1      -1.606  11.652  22.961  0.00  0.00    +0.000 C 
ATOM     25  CG1 ILE A   1      -0.437  11.529  21.989  0.00  0.00    +0.000 C 
ENDBRANCH  22  25
ENDBRANCH  21  22
BRANCH  21  26
ATOM     26  C   ILE A   1       0.125  10.143  19.604  0.00  0.00    +0.000 C 
ATOM     27  O   ILE A   1      -1.003   9.703  19.439  0.00  0.00    +0.000 OA
BRANCH  26  28
ATOM     28  OXT ILE A   1       0.719  10.957  18.694  0.00  0.00    +0.000 OA
ATOM     29  HXT ILE A   1       1.459  11.427  19.124  0.00  0.00    +0.000 HD
ENDBRANCH  26  28
ENDBRANCH  21  26
ENDBRANCH  17  21
ENDBRANCH   1  18
TORSDOF 6
ENDMDL
MODEL 3
REMARK VINA RESULT:      -7.8      2.578      7.822
REMARK  Name = 
REMARK  8 active torsions:
REMARK  status: ('A' for Active; 'I' for Inactive)
REMARK    1  A    between atoms: CD1_1  and  CG1_2
REMARK    2  A    between atoms: CG1_2  and  CB_3
REMARK    3  A    between atoms: CB_3  and  CG2_4
REMARK    4  A    between atoms: CB_3  and  CA_5
REMARK    5  A    between atoms: CA_5  and  N_6
REMARK    6  A    between atoms: CA_5  and  C_24
REMARK    7  A    between atoms: C_7  and  C_9
REMARK    8  A    between atoms: C_24  and  OXT_26
REMARK                            x       y       z     vdW  Elec       q    Type
REMARK                         _______ _______ _______ _____ _____    ______ ____
ROOT
ATOM      1  C   UNK A   0       4.238   5.174  17.359  0.00  0.00    +0.000 A 
ATOM      2  C   UNK A   0       4.422   3.862  17.846  0.00  0.00    +0.000 A 
ATOM      3  C   UNK A   0       3.840   3.453  19.045  0.00  0.00    +0.000 A 
ATOM      4  C   UNK A   0       3.076   4.349  19.778  0.00  0.00    +0.000 A 
ATOM      5  C   UNK A   0       2.884   5.654  19.305  0.00  0.00    +0.000 A 
ATOM      6  C   UNK A   0       2.058   6.587  20.108  0.00  0.00    +0.000 A 
ATOM      7  O   UNK A   0       1.594   6.234  21.188  0.00  0.00    +0.000 OA
ATOM      8  C   UNK A   0       1.800   7.944  19.583  0.00  0.00    +0.000 A 
ATOM      9  C   UNK A   0       0.975   8.821  20.299  0.00  0.00    +0.000 A 
ATOM     10  C   UNK A   0       0.703  10.084  19.780  0.00  0.00    +0.000 A 
ATOM     11  C   UNK A   0       1.252  10.460  18.554  0.00  0.00    +0.000 A 
ATOM     12  C   UNK A   0       2.091   9.584  17.850  0.00  0.00    +0.000 A 
ATOM     13  C   UNK A   0       2.392   8.319  18.366  0.00  0.00    +0.000 A 
ATOM     14  N   UNK A   0       3.162   7.396  17.636  0.00  0.00    +0.000 N 
ATOM     15  C   UNK A   0       3.467   6.096  18.102  0.00  0.00    +0.000 A 
ATOM     16  H   UNK A   0       3.814   7.774  16.945  0.00  0.00    +0.000 HD
ENDROOT
BRANCH   1  18
ATOM     17  N   ILE A   1       5.232   4.590  15.195  0.00  0.00    +0.000 N 
ATOM     18  C   UNK A   0       4.968   5.590  16.120  0.00  0.00    +0.000 C 
ATOM     19  O   UNK A   0       5.364   6.741  15.989  0.00  0.00    +0.000 OA
ATOM     20  H   ILE A   1       4.645   3.763  15.205  0.00  0.00    +0.000 HD
BRANCH  17  21
ATOM     21  CA  ILE A   1       6.074   4.817  13.999  0.00  0.00    +0.000 C 
BRANCH  21  22
ATOM     22  CB  ILE A   1       6.048   3.615  13.009  0.00  0.00    +0.000 C 
ATOM     23  CG2 ILE A   1       6.949   3.901  11.802  0.00  0.00    +0.000 C 
BRANCH  22  25
ATOM     24  CD1 ILE A   1       4.390   3.219  11.072  0.00  0.00    +0.000 C 
ATOM     25  CG1 ILE A   1       4.614   3.216  12.580  0.00  0.00    +0.000 C 
ENDBRANCH  22  25
ENDBRANCH  21  22
BRANCH  21  26
ATOM     26  C   ILE A   1       7.533   5.114  14.403  0.00  0.00    +0.000 C 
ATOM     27  O   ILE A   1       8.342   5.694  13.695  0.00  0.00    +0.000 OA
BRANCH  26  28
ATOM     28  OXT ILE A   1       7.875   4.594  15.610  0.00  0.00    +0.000 OA
ATOM     29  HXT ILE A   1       8.843   4.466  15.638  0.00  0.00    +0.000 HD
ENDBRANCH  26  28
ENDBRANCH  21  26
ENDBRANCH  17  21
ENDBRANCH   1  18
TORSDOF 6
ENDMDL
MODEL 4
REMARK VINA RESULT:      -7.7      1.823      8.057
REMARK  Name = 
REMARK  8 active torsions:
REMARK  status: ('A' for Active; 'I' for Inactive)
REMARK    1  A    between atoms: CD1_1  and  CG1_2
REMARK    2  A    between atoms: CG1_2  and  CB_3
REMARK    3  A    between atoms: CB_3  and  CG2_4
REMARK    4  A    between atoms: CB_3  and  CA_5
REMARK    5  A    between atoms: CA_5  and  N_6
REMARK    6  A    between atoms: CA_5  and  C_24
REMARK    7  A    between atoms: C_7  and  C_9
REMARK    8  A    between atoms: C_24  and  OXT_26
REMARK                            x       y       z     vdW  Elec       q    Type
REMARK                         _______ _______ _______ _____ _____    ______ ____
ROOT
ATOM      1  C   UNK A   0       2.149   7.430  19.285  0.00  0.00    +0.000 A 
ATOM      2  C   UNK A   0       2.824   7.566  18.052  0.00  0.00    +0.000 A 
ATOM      3  C   UNK A   0       2.781   8.761  17.338  0.00  0.00    +0.000 A 
ATOM      4  C   UNK A   0       2.057   9.834  17.836  0.00  0.00    +0.000 A 
ATOM      5  C   UNK A   0       1.384   9.714  19.059  0.00  0.00    +0.000 A 
ATOM      6  C   UNK A   0       0.622  10.880  19.569  0.00  0.00    +0.000 A 
ATOM      7  O   UNK A   0       0.546  11.910  18.907  0.00  0.00    +0.000 OA
ATOM      8  C   UNK A   0      -0.038  10.779  20.887  0.00  0.00    +0.000 A 
ATOM      9  C   UNK A   0      -0.713  11.888  21.412  0.00  0.00    +0.000 A 
ATOM     10  C   UNK A   0      -1.299  11.801  22.672  0.00  0.00    +0.000 A 
ATOM     11  C   UNK A   0      -1.204  10.613  23.397  0.00  0.00    +0.000 A 
ATOM     12  C   UNK A   0      -0.541   9.501  22.859  0.00  0.00    +0.000 A 
ATOM     13  C   UNK A   0       0.036   9.564  21.586  0.00  0.00    +0.000 A 
ATOM     14  N   UNK A   0       0.777   8.488  21.065  0.00  0.00    +0.000 N 
ATOM     15  C   UNK A   0       1.403   8.515  19.798  0.00  0.00    +0.000 A 
ATOM     16  H   UNK A   0       0.561   7.554  21.423  0.00  0.00    +0.000 HD
ENDROOT
BRANCH   1  18
ATOM     17  N   ILE A   1       2.739   5.050  19.264  0.00  0.00    +0.000 N 
ATOM     18  C   UNK A   0       2.144   6.095  19.959  0.00  0.00    +0.000 C 
ATOM     19  O   UNK A   0       1.576   5.943  21.033  0.00  0.00    +0.000 OA
ATOM     20  H   ILE A   1       3.430   5.279  18.558  0.00  0.00    +0.000 HD
BRANCH  17  21
ATOM     21  CA  ILE A   1       2.678   3.648  19.733  0.00  0.00    +0.000 C 
BRANCH  21  22
ATOM     22  CB  ILE A   1       3.834   2.774  19.165  0.00  0.00    +0.000 C 
ATOM     23  CG2 ILE A   1       4.550   2.035  20.302  0.00  0.00    +0.000 C 
BRANCH  22  25
ATOM     24  CD1 ILE A   1       4.413   3.671  16.816  0.00  0.00    +0.000 C 
ATOM     25  CG1 ILE A   1       4.821   3.576  18.283  0.00  0.00    +0.000 C 
ENDBRANCH  22  25
ENDBRANCH  21  22
BRANCH  21  26
ATOM     26  C   ILE A   1       1.324   3.005  19.365  0.00  0.00    +0.000 C 
ATOM     27  O   ILE A   1       1.067   2.506  18.280  0.00  0.00    +0.000 OA
BRANCH  26  28
ATOM     28  OXT ILE A   1       0.392   3.110  20.347  0.00  0.00    +0.000 OA
ATOM     29  HXT ILE A   1      -0.459   2.766  20.016  0.00  0.00    +0.000 HD
ENDBRANCH  26  28
ENDBRANCH  21  26
ENDBRANCH  17  21
ENDBRANCH   1  18
TORSDOF 6
ENDMDL
MODEL 5
REMARK VINA RESULT:      -7.6      2.026      7.974
REMARK  Name = 
REMARK  8 active torsions:
REMARK  status: ('A' for Active; 'I' for Inactive)
REMARK    1  A    between atoms: CD1_1  and  CG1_2
REMARK    2  A    between atoms: CG1_2  and  CB_3
REMARK    3  A    between atoms: CB_3  and  CG2_4
REMARK    4  A    between atoms: CB_3  and  CA_5
REMARK    5  A    between atoms: CA_5  and  N_6
REMARK    6  A    between atoms: CA_5  and  C_24
REMARK    7  A    between atoms: C_7  and  C_9
REMARK    8  A    between atoms: C_24  and  OXT_26
REMARK                            x       y       z     vdW  Elec       q    Type
REMARK                         _______ _______ _______ _____ _____    ______ ____
ROOT
ATOM      1  C   UNK A   0       2.336   7.005  19.441  0.00  0.00    +0.000 A 
ATOM      2  C   UNK A   0       2.971   7.036  18.180  0.00  0.00    +0.000 A 
ATOM      3  C   UNK A   0       2.857   8.147  17.346  0.00  0.00    +0.000 A 
ATOM      4  C   UNK A   0       2.101   9.237  17.752  0.00  0.00    +0.000 A 
ATOM      5  C   UNK A   0       1.468   9.220  19.002  0.00  0.00    +0.000 A 
ATOM      6  C   UNK A   0       0.672  10.402  19.411  0.00  0.00    +0.000 A 
ATOM      7  O   UNK A   0       0.533  11.352  18.647  0.00  0.00    +0.000 OA
ATOM      8  C   UNK A   0       0.053  10.415  20.753  0.00  0.00    +0.000 A 
ATOM      9  C   UNK A   0      -0.655  11.546  21.181  0.00  0.00    +0.000 A 
ATOM     10  C   UNK A   0      -1.201  11.570  22.461  0.00  0.00    +0.000 A 
ATOM     11  C   UNK A   0      -1.035  10.470  23.303  0.00  0.00    +0.000 A 
ATOM     12  C   UNK A   0      -0.340   9.334  22.863  0.00  0.00    +0.000 A 
ATOM     13  C   UNK A   0       0.198   9.285  21.572  0.00  0.00    +0.000 A 
ATOM     14  N   UNK A   0       0.970   8.190  21.144  0.00  0.00    +0.000 N 
ATOM     15  C   UNK A   0       1.559   8.108  19.861  0.00  0.00    +0.000 A 
ATOM     16  H   UNK A   0       0.803   7.292  21.604  0.00  0.00    +0.000 HD
ENDROOT
BRANCH   1  18
ATOM     17  N   ILE A   1       2.817   4.605  19.580  0.00  0.00    +0.000 N 
ATOM     18  C   UNK A   0       2.407   5.749  20.251  0.00  0.00    +0.000 C 
ATOM     19  O   UNK A   0       2.048   5.744  21.422  0.00  0.00    +0.000 OA
ATOM     20  H   ILE A   1       3.370   4.717  18.738  0.00  0.00    +0.000 HD
BRANCH  17  21
ATOM     21  CA  ILE A   1       2.791   3.265  20.208  0.00  0.00    +0.000 C 
BRANCH  21  22
ATOM     22  CB  ILE A   1       3.041   2.117  19.186  0.00  0.00    +0.000 C 
ATOM     23  CG2 ILE A   1       4.415   1.481  19.427  0.00  0.00    +0.000 C 
BRANCH  22  25
ATOM     24  CD1 ILE A   1       4.093   3.230  17.109  0.00  0.00    +0.000 C 
ATOM     25  CG1 ILE A   1       2.860   2.568  17.716  0.00  0.00    +0.000 C 
ENDBRANCH  22  25
ENDBRANCH  21  22
BRANCH  21  26
ATOM     26  C   ILE A   1       1.448   3.022  20.929  0.00  0.00    +0.000 C 
ATOM     27  O   ILE A   1       1.341   2.564  22.056  0.00  0.00    +0.000 OA
BRANCH  26  28
ATOM     28  OXT ILE A   1       0.364   3.293  20.157  0.00  0.00    +0.000 OA
ATOM     29  HXT ILE A   1       0.053   2.464  19.745  0.00  0.00    +0.000 HD
ENDBRANCH  26  28
ENDBRANCH  21  26
ENDBRANCH  17  21
ENDBRANCH   1  18
TORSDOF 6
ENDMDL
MODEL 6
REMARK VINA RESULT:      -7.5      1.381      2.050
REMARK  Name = 
REMARK  8 active torsions:
REMARK  status: ('A' for Active; 'I' for Inactive)
REMARK    1  A    between atoms: CD1_1  and  CG1_2
REMARK    2  A    between atoms: CG1_2  and  CB_3
REMARK    3  A    between atoms: CB_3  and  CG2_4
REMARK    4  A    between atoms: CB_3  and  CA_5
REMARK    5  A    between atoms: CA_5  and  N_6
REMARK    6  A    between atoms: CA_5  and  C_24
REMARK    7  A    between atoms: C_7  and  C_9
REMARK    8  A    between atoms: C_24  and  OXT_26
REMARK                            x       y       z     vdW  Elec       q    Type
REMARK                         _______ _______ _______ _____ _____    ______ ____
ROOT
ATOM      1  C   UNK A   0       2.269   7.314  19.139  0.00  0.00    +0.000 A 
ATOM      2  C   UNK A   0       1.614   6.925  20.327  0.00  0.00    +0.000 A 
ATOM      3  C   UNK A   0       1.743   5.631  20.828  0.00  0.00    +0.000 A 
ATOM      4  C   UNK A   0       2.519   4.705  20.146  0.00  0.00    +0.000 A 
ATOM      5  C   UNK A   0       3.176   5.078  18.967  0.00  0.00    +0.000 A 
ATOM      6  C   UNK A   0       4.003   4.068  18.263  0.00  0.00    +0.000 A 
ATOM      7  O   UNK A   0       4.067   2.917  18.683  0.00  0.00    +0.000 OA
ATOM      8  C   UNK A   0       4.749   4.474  17.054  0.00  0.00    +0.000 A 
ATOM      9  C   UNK A   0       5.580   3.551  16.408  0.00  0.00    +0.000 A 
ATOM     10  C   UNK A   0       6.312   3.949  15.293  0.00  0.00    +0.000 A 
ATOM     11  C   UNK A   0       6.211   5.263  14.834  0.00  0.00    +0.000 A 
ATOM     12  C   UNK A   0       5.364   6.178  15.474  0.00  0.00    +0.000 A 
ATOM     13  C   UNK A   0       4.605   5.789  16.584  0.00  0.00    +0.000 A 
ATOM     14  N   UNK A   0       3.816   6.714  17.290  0.00  0.00    +0.000 N 
ATOM     15  C   UNK A   0       3.057   6.376  18.433  0.00  0.00    +0.000 A 
ATOM     16  H   UNK A   0       3.487   7.536  16.777  0.00  0.00    +0.000 HD
ENDROOT
BRANCH   1  18
ATOM     17  N   ILE A   1       1.422   9.593  19.458  0.00  0.00    +0.000 N 
ATOM     18  C   UNK A   0       2.014   8.684  18.593  0.00  0.00    +0.000 C 
ATOM     19  O   UNK A   0       2.257   8.940  17.420  0.00  0.00    +0.000 OA
ATOM     20  H   ILE A   1       1.519   9.436  20.455  0.00  0.00    +0.000 HD
BRANCH  17  21
ATOM     21  CA  ILE A   1       0.972  10.932  19.018  0.00  0.00    +0.000 C 
BRANCH  21  22
ATOM     22  CB  ILE A   1       1.212  12.031  20.094  0.00  0.00    +0.000 C 
ATOM     23  CG2 ILE A   1      -0.051  12.232  20.940  0.00  0.00    +0.000 C 
BRANCH  22  25
ATOM     24  CD1 ILE A   1       2.456  13.208  18.164  0.00  0.00    +0.000 C 
ATOM     25  CG1 ILE A   1       1.726  13.363  19.494  0.00  0.00    +0.000 C 
ENDBRANCH  22  25
ENDBRANCH  21  22
BRANCH  21  26
ATOM     26  C   ILE A   1      -0.522  10.911  18.634  0.00  0.00    +0.000 C 
ATOM     27  O   ILE A   1      -1.328  10.086  19.036  0.00  0.00    +0.000 OA
BRANCH  26  28
ATOM     28  OXT ILE A   1      -0.860  11.864  17.727  0.00  0.00    +0.000 OA
ATOM     29  HXT ILE A   1      -0.247  12.619  17.817  0.00  0.00    +0.000 HD
ENDBRANCH  26  28
ENDBRANCH  21  26
ENDBRANCH  17  21
ENDBRANCH   1  18
TORSDOF 6
ENDMDL
MODEL 7
REMARK VINA RESULT:      -7.5      1.341      1.693
REMARK  Name = 
REMARK  8 active torsions:
REMARK  status: ('A' for Active; 'I' for Inactive)
REMARK    1  A    between atoms: CD1_1  and  CG1_2
REMARK    2  A    between atoms: CG1_2  and  CB_3
REMARK    3  A    between atoms: CB_3  and  CG2_4
REMARK    4  A    between atoms: CB_3  and  CA_5
REMARK    5  A    between atoms: CA_5  and  N_6
REMARK    6  A    between atoms: CA_5  and  C_24
REMARK    7  A    between atoms: C_7  and  C_9
REMARK    8  A    between atoms: C_24  and  OXT_26
REMARK                            x       y       z     vdW  Elec       q    Type
REMARK                         _______ _______ _______ _____ _____    ______ ____
ROOT
ATOM      1  C   UNK A   0       2.143   7.590  19.210  0.00  0.00    +0.000 A 
ATOM      2  C   UNK A   0       1.501   7.251  20.421  0.00  0.00    +0.000 A 
ATOM      3  C   UNK A   0       1.657   5.987  20.986  0.00  0.00    +0.000 A 
ATOM      4  C   UNK A   0       2.447   5.042  20.349  0.00  0.00    +0.000 A 
ATOM      5  C   UNK A   0       3.092   5.366  19.148  0.00  0.00    +0.000 A 
ATOM      6  C   UNK A   0       3.934   4.336  18.493  0.00  0.00    +0.000 A 
ATOM      7  O   UNK A   0       4.022   3.210  18.971  0.00  0.00    +0.000 OA
ATOM      8  C   UNK A   0       4.666   4.693  17.260  0.00  0.00    +0.000 A 
ATOM      9  C   UNK A   0       5.512   3.754  16.658  0.00  0.00    +0.000 A 
ATOM     10  C   UNK A   0       6.231   4.107  15.519  0.00  0.00    +0.000 A 
ATOM     11  C   UNK A   0       6.103   5.393  14.994  0.00  0.00    +0.000 A 
ATOM     12  C   UNK A   0       5.242   6.325  15.591  0.00  0.00    +0.000 A 
ATOM     13  C   UNK A   0       4.496   5.980  16.724  0.00  0.00    +0.000 A 
ATOM     14  N   UNK A   0       3.693   6.925  17.386  0.00  0.00    +0.000 N 
ATOM     15  C   UNK A   0       2.945   6.632  18.549  0.00  0.00    +0.000 A 
ATOM     16  H   UNK A   0       3.346   7.713  16.833  0.00  0.00    +0.000 HD
ENDROOT
BRANCH   1  18
ATOM     17  N   ILE A   1       1.099   9.804  19.353  0.00  0.00    +0.000 N 
ATOM     18  C   UNK A   0       1.860   8.925  18.595  0.00  0.00    +0.000 C 
ATOM     19  O   UNK A   0       2.230   9.175  17.455  0.00  0.00    +0.000 OA
ATOM     20  H   ILE A   1       1.081   9.676  20.359  0.00  0.00    +0.000 HD
BRANCH  17  21
ATOM     21  CA  ILE A   1       0.612  11.096  18.820  0.00  0.00    +0.000 C 
BRANCH  21  22
ATOM     22  CB  ILE A   1       0.679  12.243  19.870  0.00  0.00    +0.000 C 
ATOM     23  CG2 ILE A   1       2.009  12.996  19.752  0.00  0.00    +0.000 C 
BRANCH  22  25
ATOM     24  CD1 ILE A   1      -0.589  12.605  22.089  0.00  0.00    +0.000 C 
ATOM     25  CG1 ILE A   1       0.415  11.755  21.316  0.00  0.00    +0.000 C 
ENDBRANCH  22  25
ENDBRANCH  21  22
BRANCH  21  26
ATOM     26  C   ILE A   1      -0.835  10.965  18.299  0.00  0.00    +0.000 C 
ATOM     27  O   ILE A   1      -1.552   9.994  18.487  0.00  0.00    +0.000 OA
BRANCH  26  28
ATOM     28  OXT ILE A   1      -1.227  12.012  17.528  0.00  0.00    +0.000 OA
ATOM     29  HXT ILE A   1      -0.922  11.864  16.613  0.00  0.00    +0.000 HD
ENDBRANCH  26  28
ENDBRANCH  21  26
ENDBRANCH  17  21
ENDBRANCH   1  18
TORSDOF 6
ENDMDL
MODEL 8
REMARK VINA RESULT:      -7.5      1.928      2.655
REMARK  Name = 
REMARK  8 active torsions:
REMARK  status: ('A' for Active; 'I' for Inactive)
REMARK    1  A    between atoms: CD1_1  and  CG1_2
REMARK    2  A    between atoms: CG1_2  and  CB_3
REMARK    3  A    between atoms: CB_3  and  CG2_4
REMARK    4  A    between atoms: CB_3  and  CA_5
REMARK    5  A    between atoms: CA_5  and  N_6
REMARK    6  A    between atoms: CA_5  and  C_24
REMARK    7  A    between atoms: C_7  and  C_9
REMARK    8  A    between atoms: C_24  and  OXT_26
REMARK                            x       y       z     vdW  Elec       q    Type
REMARK                         _______ _______ _______ _____ _____    ______ ____
ROOT
ATOM      1  C   UNK A   0       1.909   8.335  19.239  0.00  0.00    +0.000 A 
ATOM      2  C   UNK A   0       1.182   8.162  20.437  0.00  0.00    +0.000 A 
ATOM      3  C   UNK A   0       1.204   6.948  21.121  0.00  0.00    +0.000 A 
ATOM      4  C   UNK A   0       1.941   5.888  20.615  0.00  0.00    +0.000 A 
ATOM      5  C   UNK A   0       2.668   6.046  19.428  0.00  0.00    +0.000 A 
ATOM      6  C   UNK A   0       3.451   4.896  18.915  0.00  0.00    +0.000 A 
ATOM      7  O   UNK A   0       3.421   3.816  19.496  0.00  0.00    +0.000 OA
ATOM      8  C   UNK A   0       4.270   5.077  17.698  0.00  0.00    +0.000 A 
ATOM      9  C   UNK A   0       5.061   4.021  17.230  0.00  0.00    +0.000 A 
ATOM     10  C   UNK A   0       5.861   4.209  16.106  0.00  0.00    +0.000 A 
ATOM     11  C   UNK A   0       5.867   5.446  15.462  0.00  0.00    +0.000 A 
ATOM     12  C   UNK A   0       5.060   6.495  15.925  0.00  0.00    +0.000 A 
ATOM     13  C   UNK A   0       4.234   6.317  17.041  0.00  0.00    +0.000 A 
ATOM     14  N   UNK A   0       3.482   7.381  17.570  0.00  0.00    +0.000 N 
ATOM     15  C   UNK A   0       2.658   7.259  18.712  0.00  0.00    +0.000 A 
ATOM     16  H   UNK A   0       3.230   8.139  16.931  0.00  0.00    +0.000 HD
ENDROOT
BRANCH   1  18
ATOM     17  N   ILE A   1       1.116  10.654  19.158  0.00  0.00    +0.000 N 
ATOM     18  C   UNK A   0       1.769   9.625  18.493  0.00  0.00    +0.000 C 
ATOM     19  O   UNK A   0       2.153   9.717  17.334  0.00  0.00    +0.000 OA
ATOM     20  H   ILE A   1       1.094  10.629  20.171  0.00  0.00    +0.000 HD
BRANCH  17  21
ATOM     21  CA  ILE A   1       0.770  11.932  18.497  0.00  0.00    +0.000 C 
BRANCH  21  22
ATOM     22  CB  ILE A   1       1.538  13.146  19.096  0.00  0.00    +0.000 C 
ATOM     23  CG2 ILE A   1       2.832  13.397  18.313  0.00  0.00    +0.000 C 
BRANCH  22  25
ATOM     24  CD1 ILE A   1       1.742  14.323  21.384  0.00  0.00    +0.000 C 
ATOM     25  CG1 ILE A   1       1.798  13.006  20.616  0.00  0.00    +0.000 C 
ENDBRANCH  22  25
ENDBRANCH  21  22
BRANCH  21  26
ATOM     26  C   ILE A   1      -0.748  12.198  18.577  0.00  0.00    +0.000 C 
ATOM     27  O   ILE A   1      -1.441  11.960  19.554  0.00  0.00    +0.000 OA
BRANCH  26  28
ATOM     28  OXT ILE A   1      -1.277  12.659  17.414  0.00  0.00    +0.000 OA
ATOM     29  HXT ILE A   1      -1.354  13.631  17.463  0.00  0.00    +0.000 HD
ENDBRANCH  26  28
ENDBRANCH  21  26
ENDBRANCH  17  21
ENDBRANCH   1  18
TORSDOF 6
ENDMDL
MODEL 9
REMARK VINA RESULT:      -7.4      2.628      7.811
REMARK  Name = 
REMARK  8 active torsions:
REMARK  status: ('A' for Active; 'I' for Inactive)
REMARK    1  A    between atoms: CD1_1  and  CG1_2
REMARK    2  A    between atoms: CG1_2  and  CB_3
REMARK    3  A    between atoms: CB_3  and  CG2_4
REMARK    4  A    between atoms: CB_3  and  CA_5
REMARK    5  A    between atoms: CA_5  and  N_6
REMARK    6  A    between atoms: CA_5  and  C_24
REMARK    7  A    between atoms: C_7  and  C_9
REMARK    8  A    between atoms: C_24  and  OXT_26
REMARK                            x       y       z     vdW  Elec       q    Type
REMARK                         _______ _______ _______ _____ _____    ______ ____
ROOT
ATOM      1  C   UNK A   0       4.107   4.363  17.402  0.00  0.00    +0.000 A 
ATOM      2  C   UNK A   0       4.286   2.975  17.589  0.00  0.00    +0.000 A 
ATOM      3  C   UNK A   0       3.736   2.322  18.690  0.00  0.00    +0.000 A 
ATOM      4  C   UNK A   0       3.008   3.045  19.624  0.00  0.00    +0.000 A 
ATOM      5  C   UNK A   0       2.821   4.422  19.450  0.00  0.00    +0.000 A 
ATOM      6  C   UNK A   0       2.035   5.166  20.462  0.00  0.00    +0.000 A 
ATOM      7  O   UNK A   0       1.600   4.593  21.456  0.00  0.00    +0.000 OA
ATOM      8  C   UNK A   0       1.781   6.607  20.250  0.00  0.00    +0.000 A 
ATOM      9  C   UNK A   0       0.992   7.315  21.165  0.00  0.00    +0.000 A 
ATOM     10  C   UNK A   0       0.723   8.662  20.940  0.00  0.00    +0.000 A 
ATOM     11  C   UNK A   0       1.239   9.290  19.806  0.00  0.00    +0.000 A 
ATOM     12  C   UNK A   0       2.043   8.579  18.903  0.00  0.00    +0.000 A 
ATOM     13  C   UNK A   0       2.340   7.230  19.124  0.00  0.00    +0.000 A 
ATOM     14  N   UNK A   0       3.073   6.480  18.187  0.00  0.00    +0.000 N 
ATOM     15  C   UNK A   0       3.373   5.109  18.351  0.00  0.00    +0.000 A 
ATOM     16  H   UNK A   0       3.709   6.994  17.572  0.00  0.00    +0.000 HD
ENDROOT
BRANCH   1  18
ATOM     17  N   ILE A   1       5.243   4.201  15.235  0.00  0.00    +0.000 N 
ATOM     18  C   UNK A   0       4.804   5.030  16.258  0.00  0.00    +0.000 C 
ATOM     19  O   UNK A   0       5.027   6.234  16.283  0.00  0.00    +0.000 OA
ATOM     20  H   ILE A   1       4.786   3.303  15.118  0.00  0.00    +0.000 HD
BRANCH  17  21
ATOM     21  CA  ILE A   1       6.077   4.694  14.116  0.00  0.00    +0.000 C 
BRANCH  21  22
ATOM     22  CB  ILE A   1       6.185   3.669  12.949  0.00  0.00    +0.000 C 
ATOM     23  CG2 ILE A   1       7.185   4.163  11.898  0.00  0.00    +0.000 C 
BRANCH  22  25
ATOM     24  CD1 ILE A   1       4.887   2.334  11.162  0.00  0.00    +0.000 C 
ATOM     25  CG1 ILE A   1       4.812   3.320  12.324  0.00  0.00    +0.000 C 
ENDBRANCH  22  25
ENDBRANCH  21  22
BRANCH  21  26
ATOM     26  C   ILE A   1       7.494   5.058  14.607  0.00  0.00    +0.000 C 
ATOM     27  O   ILE A   1       8.303   5.710  13.964  0.00  0.00    +0.000 OA
BRANCH  26  28
ATOM     28  OXT ILE A   1       7.805   4.513  15.812  0.00  0.00    +0.000 OA
ATOM     29  HXT ILE A   1       8.373   5.135  16.304  0.00  0.00    +0.000 HD
ENDBRANCH  26  28
ENDBRANCH  21  26
ENDBRANCH  17  21
ENDBRANCH   1  18
TORSDOF 6
ENDMDL
