MODEL 1
REMARK VINA RESULT:      -8.0      0.000      0.000
REMARK  Name = 
REMARK  9 active torsions:
REMARK  status: ('A' for Active; 'I' for Inactive)
REMARK    1  A    between atoms: C_1  and  C_2
REMARK    2  A    between atoms: N_4  and  C_5
REMARK    3  A    between atoms: C_11  and  O_12
REMARK    4  A    between atoms: O_12  and  C_13
REMARK    5  A    between atoms: C_19  and  C_20
REMARK    6  A    between atoms: C_20  and  N_21
REMARK    7  A    between atoms: N_21  and  C_22
REMARK    8  A    between atoms: C_22  and  C_23
REMARK    9  A    between atoms: C_26  and  C_28
REMARK                            x       y       z     vdW  Elec       q    Type
REMARK                         _______ _______ _______ _____ _____    ______ ____
ROOT
ATOM      1  C   UNL     1       3.178   2.591  17.801  0.00  0.00    +0.000 C 
ATOM      2  C   UNL     1       3.917   3.640  17.063  0.00  0.00    +0.000 A 
ATOM      3  N   UNL     1       4.442   3.335  15.878  0.00  0.00    +0.000 NA
ATOM      4  N   UNL     1       5.148   4.430  15.496  0.00  0.00    +0.000 N 
ATOM      5  C   UNL     1       5.025   5.454  16.442  0.00  0.00    +0.000 A 
ATOM      6  C   UNL     1       4.245   4.961  17.485  0.00  0.00    +0.000 A 
ENDROOT
BRANCH   4   7
ATOM      7  C   UNL     1       5.897   4.368  14.270  0.00  0.00    +0.000 A 
ATOM      8  C   UNL     1       7.077   5.130  14.154  0.00  0.00    +0.000 A 
ATOM      9  C   UNL     1       7.848   5.094  12.987  0.00  0.00    +0.000 A 
ATOM     10  C   UNL     1       7.452   4.301  11.916  0.00  0.00    +0.000 A 
ATOM     11  C   UNL     1       6.282   3.554  12.009  0.00  0.00    +0.000 A 
ATOM     12  C   UNL     1       5.505   3.585  13.177  0.00  0.00    +0.000 A 
ENDBRANCH   4   7
BRANCH   5  13
ATOM     13  O   UNL     1       5.699   6.598  16.305  0.00  0.00    +0.000 OA
BRANCH  13  14
ATOM     14  C   UNL     1       6.686   6.979  17.181  0.00  0.00    +0.000 A 
ATOM     15  C   UNL     1       7.026   8.330  17.154  0.00  0.00    +0.000 A 
ATOM     16  C   UNL     1       8.027   8.813  18.000  0.00  0.00    +0.000 A 
ATOM     17  C   UNL     1       8.680   7.937  18.875  0.00  0.00    +0.000 A 
ATOM     18  C   UNL     1       8.305   6.598  18.926  0.00  0.00    +0.000 A 
ATOM     19  C   UNL     1       7.286   6.118  18.098  0.00  0.00    +0.000 A 
ENDBRANCH  13  14
ENDBRANCH   5  13
BRANCH   6  20
ATOM     20  C   UNL     1       3.982   5.521  18.857  0.00  0.00    +0.000 C 
BRANCH  20  21
ATOM     21  N   UNL     1       2.741   6.298  19.104  0.00  0.00    +0.000 N 
ATOM     22  C   UNL     1       2.667   7.642  18.668  0.00  0.00    +0.000 C 
ATOM     23  O   UNL     1       3.657   8.128  18.118  0.00  0.00    +0.000 OA
BRANCH  22  24
ATOM     24  C   UNL     1       1.447   8.558  18.831  0.00  0.00    +0.000 A 
ATOM     25  C   UNL     1       0.766   9.143  17.748  0.00  0.00    +0.000 A 
ATOM     26  C   UNL     1      -0.305  10.035  17.883  0.00  0.00    +0.000 A 
ATOM     27  C   UNL     1      -0.759  10.376  19.139  0.00  0.00    +0.000 A 
ATOM     28  C   UNL     1      -0.120   9.832  20.247  0.00  0.00    +0.000 A 
ATOM     29  C   UNL     1       0.973   8.945  20.107  0.00  0.00    +0.000 A 
ATOM     30 CL   UNL     1       1.625   8.403  21.620  0.00  0.00    +0.000 Cl
ENDBRANCH  22  24
BRANCH  21  31
ATOM     31  C   UNL     1       1.619   5.478  19.551  0.00  0.00    +0.000 C 
BRANCH  31  32
ATOM     32  C   UNL     1       1.973   4.137  20.176  0.00  0.00    +0.000 C 
ATOM     33  C   UNL     1       2.215   3.820  21.652  0.00  0.00    +0.000 C 
ATOM     34  C   UNL     1       0.994   3.291  20.962  0.00  0.00    +0.000 C 
ENDBRANCH  31  32
ENDBRANCH  21  31
ENDBRANCH  20  21
ENDBRANCH   6  20
TORSDOF 8
ENDMDL
MODEL 2
REMARK VINA RESULT:      -7.9      5.648     12.395
REMARK  Name = 
REMARK  9 active torsions:
REMARK  status: ('A' for Active; 'I' for Inactive)
REMARK    1  A    between atoms: C_1  and  C_2
REMARK    2  A    between atoms: N_4  and  C_5
REMARK    3  A    between atoms: C_11  and  O_12
REMARK    4  A    between atoms: O_12  and  C_13
REMARK    5  A    between atoms: C_19  and  C_20
REMARK    6  A    between atoms: C_20  and  N_21
REMARK    7  A    between atoms: N_21  and  C_22
REMARK    8  A    between atoms: C_22  and  C_23
REMARK    9  A    between atoms: C_26  and  C_28
REMARK                            x       y       z     vdW  Elec       q    Type
REMARK                         _______ _______ _______ _____ _____    ______ ____
ROOT
ATOM      1  C   UNL     1      -0.838  11.571  22.925  0.00  0.00    +0.000 C 
ATOM      2  C   UNL     1      -1.968  12.386  22.424  0.00  0.00    +0.000 A 
ATOM      3  N   UNL     1      -3.071  12.470  23.166  0.00  0.00    +0.000 NA
ATOM      4  N   UNL     1      -3.964  13.169  22.419  0.00  0.00    +0.000 N 
ATOM      5  C   UNL     1      -3.392  13.566  21.204  0.00  0.00    +0.000 A 
ATOM      6  C   UNL     1      -2.097  13.052  21.171  0.00  0.00    +0.000 A 
ENDROOT
BRANCH   4   7
ATOM      7  C   UNL     1      -5.291  13.357  22.938  0.00  0.00    +0.000 A 
ATOM      8  C   UNL     1      -6.229  12.314  22.804  0.00  0.00    +0.000 A 
ATOM      9  C   UNL     1      -7.530  12.442  23.304  0.00  0.00    +0.000 A 
ATOM     10  C   UNL     1      -7.916  13.616  23.941  0.00  0.00    +0.000 A 
ATOM     11  C   UNL     1      -7.007  14.662  24.069  0.00  0.00    +0.000 A 
ATOM     12  C   UNL     1      -5.701  14.537  23.571  0.00  0.00    +0.000 A 
ENDBRANCH   4   7
BRANCH   5  13
ATOM     13  O   UNL     1      -4.115  14.202  20.282  0.00  0.00    +0.000 OA
BRANCH  13  14
ATOM     14  C   UNL     1      -5.196  13.620  19.664  0.00  0.00    +0.000 A 
ATOM     15  C   UNL     1      -6.349  14.400  19.607  0.00  0.00    +0.000 A 
ATOM     16  C   UNL     1      -7.504  13.892  19.008  0.00  0.00    +0.000 A 
ATOM     17  C   UNL     1      -7.495  12.602  18.465  0.00  0.00    +0.000 A 
ATOM     18  C   UNL     1      -6.328  11.845  18.489  0.00  0.00    +0.000 A 
ATOM     19  C   UNL     1      -5.163  12.362  19.065  0.00  0.00    +0.000 A 
ENDBRANCH  13  14
ENDBRANCH   5  13
BRANCH   6  20
ATOM     20  C   UNL     1      -1.113  12.959  20.036  0.00  0.00    +0.000 C 
BRANCH  20  21
ATOM     21  N   UNL     1      -0.656  11.625  19.572  0.00  0.00    +0.000 N 
ATOM     22  C   UNL     1       0.705  11.270  19.719  0.00  0.00    +0.000 C 
ATOM     23  O   UNL     1       1.472  12.102  20.208  0.00  0.00    +0.000 OA
BRANCH  22  24
ATOM     24  C   UNL     1       1.317   9.923  19.310  0.00  0.00    +0.000 A 
ATOM     25  C   UNL     1       1.715   9.618  17.996  0.00  0.00    +0.000 A 
ATOM     26  C   UNL     1       2.211   8.371  17.594  0.00  0.00    +0.000 A 
ATOM     27  C   UNL     1       2.347   7.358  18.518  0.00  0.00    +0.000 A 
ATOM     28  C   UNL     1       1.966   7.601  19.833  0.00  0.00    +0.000 A 
ATOM     29  C   UNL     1       1.448   8.856  20.230  0.00  0.00    +0.000 A 
ATOM     30 CL   UNL     1       1.024   8.930  21.911  0.00  0.00    +0.000 Cl
ENDBRANCH  22  24
BRANCH  21  31
ATOM     31  C   UNL     1      -1.750  10.714  19.246  0.00  0.00    +0.000 C 
BRANCH  31  32
ATOM     32  C   UNL     1      -2.214  10.713  17.797  0.00  0.00    +0.000 C 
ATOM     33  C   UNL     1      -1.803   9.756  16.678  0.00  0.00    +0.000 C 
ATOM     34  C   UNL     1      -3.196   9.710  17.231  0.00  0.00    +0.000 C 
ENDBRANCH  31  32
ENDBRANCH  21  31
ENDBRANCH  20  21
ENDBRANCH   6  20
TORSDOF 8
ENDMDL
MODEL 3
REMARK VINA RESULT:      -7.9      2.614      5.427
REMARK  Name = 
REMARK  9 active torsions:
REMARK  status: ('A' for Active; 'I' for Inactive)
REMARK    1  A    between atoms: C_1  and  C_2
REMARK    2  A    between atoms: N_4  and  C_5
REMARK    3  A    between atoms: C_11  and  O_12
REMARK    4  A    between atoms: O_12  and  C_13
REMARK    5  A    between atoms: C_19  and  C_20
REMARK    6  A    between atoms: C_20  and  N_21
REMARK    7  A    between atoms: N_21  and  C_22
REMARK    8  A    between atoms: C_22  and  C_23
REMARK    9  A    between atoms: C_26  and  C_28
REMARK                            x       y       z     vdW  Elec       q    Type
REMARK                         _______ _______ _______ _____ _____    ______ ____
ROOT
ATOM      1  C   UNL     1       1.077   8.046  21.616  0.00  0.00    +0.000 C 
ATOM      2  C   UNL     1       1.585   7.415  20.377  0.00  0.00    +0.000 A 
ATOM      3  N   UNL     1       1.783   6.098  20.368  0.00  0.00    +0.000 NA
ATOM      4  N   UNL     1       2.352   5.820  19.167  0.00  0.00    +0.000 N 
ATOM      5  C   UNL     1       2.471   6.981  18.394  0.00  0.00    +0.000 A 
ATOM      6  C   UNL     1       1.997   8.041  19.165  0.00  0.00    +0.000 A 
ENDROOT
BRANCH   4   7
ATOM      7  C   UNL     1       2.753   4.467  18.897  0.00  0.00    +0.000 A 
ATOM      8  C   UNL     1       3.884   3.946  19.559  0.00  0.00    +0.000 A 
ATOM      9  C   UNL     1       4.307   2.631  19.341  0.00  0.00    +0.000 A 
ATOM     10  C   UNL     1       3.614   1.815  18.453  0.00  0.00    +0.000 A 
ATOM     11  C   UNL     1       2.505   2.318  17.780  0.00  0.00    +0.000 A 
ATOM     12  C   UNL     1       2.074   3.636  17.997  0.00  0.00    +0.000 A 
ENDBRANCH   4   7
BRANCH   5  13
ATOM     13  O   UNL     1       3.071   6.953  17.203  0.00  0.00    +0.000 OA
BRANCH  13  14
ATOM     14  C   UNL     1       4.366   6.521  17.043  0.00  0.00    +0.000 A 
ATOM     15  C   UNL     1       5.329   7.228  17.759  0.00  0.00    +0.000 A 
ATOM     16  C   UNL     1       6.675   6.873  17.654  0.00  0.00    +0.000 A 
ATOM     17  C   UNL     1       7.049   5.803  16.832  0.00  0.00    +0.000 A 
ATOM     18  C   UNL     1       6.077   5.075  16.153  0.00  0.00    +0.000 A 
ATOM     19  C   UNL     1       4.726   5.414  16.277  0.00  0.00    +0.000 A 
ENDBRANCH  13  14
ENDBRANCH   5  13
BRANCH   6  20
ATOM     20  C   UNL     1       2.097   9.527  18.949  0.00  0.00    +0.000 C 
BRANCH  20  21
ATOM     21  N   UNL     1       0.899  10.378  19.154  0.00  0.00    +0.000 N 
ATOM     22  C   UNL     1       0.854  11.255  20.263  0.00  0.00    +0.000 C 
ATOM     23  O   UNL     1       1.813  11.259  21.038  0.00  0.00    +0.000 OA
BRANCH  22  24
ATOM     24  C   UNL     1      -0.302  12.209  20.592  0.00  0.00    +0.000 A 
ATOM     25  C   UNL     1      -1.329  11.899  21.501  0.00  0.00    +0.000 A 
ATOM     26  C   UNL     1      -2.427  12.730  21.760  0.00  0.00    +0.000 A 
ATOM     27  C   UNL     1      -2.537  13.942  21.113  0.00  0.00    +0.000 A 
ATOM     28  C   UNL     1      -1.552  14.299  20.198  0.00  0.00    +0.000 A 
ATOM     29  C   UNL     1      -0.454  13.449  19.927  0.00  0.00    +0.000 A 
ATOM     30 CL   UNL     1       0.641  14.087  18.743  0.00  0.00    +0.000 Cl
ENDBRANCH  22  24
BRANCH  21  31
ATOM     31  C   UNL     1      -0.008  10.395  18.010  0.00  0.00    +0.000 C 
BRANCH  31  32
ATOM     32  C   UNL     1      -1.469  10.089  18.306  0.00  0.00    +0.000 C 
ATOM     33  C   UNL     1      -2.680  11.002  18.115  0.00  0.00    +0.000 C 
ATOM     34  C   UNL     1      -2.500   9.801  17.236  0.00  0.00    +0.000 C 
ENDBRANCH  31  32
ENDBRANCH  21  31
ENDBRANCH  20  21
ENDBRANCH   6  20
TORSDOF 8
ENDMDL
MODEL 4
REMARK VINA RESULT:      -7.9      2.603      5.530
REMARK  Name = 
REMARK  9 active torsions:
REMARK  status: ('A' for Active; 'I' for Inactive)
REMARK    1  A    between atoms: C_1  and  C_2
REMARK    2  A    between atoms: N_4  and  C_5
REMARK    3  A    between atoms: C_11  and  O_12
REMARK    4  A    between atoms: O_12  and  C_13
REMARK    5  A    between atoms: C_19  and  C_20
REMARK    6  A    between atoms: C_20  and  N_21
REMARK    7  A    between atoms: N_21  and  C_22
REMARK    8  A    between atoms: C_22  and  C_23
REMARK    9  A    between atoms: C_26  and  C_28
REMARK                            x       y       z     vdW  Elec       q    Type
REMARK                         _______ _______ _______ _____ _____    ______ ____
ROOT
ATOM      1  C   UNL     1       1.024   8.251  21.581  0.00  0.00    +0.000 C 
ATOM      2  C   UNL     1       1.586   7.652  20.351  0.00  0.00    +0.000 A 
ATOM      3  N   UNL     1       1.818   6.341  20.328  0.00  0.00    +0.000 NA
ATOM      4  N   UNL     1       2.431   6.096  19.142  0.00  0.00    +0.000 N 
ATOM      5  C   UNL     1       2.545   7.271  18.391  0.00  0.00    +0.000 A 
ATOM      6  C   UNL     1       2.021   8.307  19.162  0.00  0.00    +0.000 A 
ENDROOT
BRANCH   4   7
ATOM      7  C   UNL     1       2.876   4.757  18.865  0.00  0.00    +0.000 A 
ATOM      8  C   UNL     1       2.142   3.971  17.954  0.00  0.00    +0.000 A 
ATOM      9  C   UNL     1       2.540   2.667  17.641  0.00  0.00    +0.000 A 
ATOM     10  C   UNL     1       3.674   2.124  18.236  0.00  0.00    +0.000 A 
ATOM     11  C   UNL     1       4.402   2.882  19.148  0.00  0.00    +0.000 A 
ATOM     12  C   UNL     1       4.008   4.191  19.465  0.00  0.00    +0.000 A 
ENDBRANCH   4   7
BRANCH   5  13
ATOM     13  O   UNL     1       3.184   7.277  17.219  0.00  0.00    +0.000 OA
BRANCH  13  14
ATOM     14  C   UNL     1       4.472   6.816  17.082  0.00  0.00    +0.000 A 
ATOM     15  C   UNL     1       4.668   5.870  16.079  0.00  0.00    +0.000 A 
ATOM     16  C   UNL     1       5.940   5.333  15.868  0.00  0.00    +0.000 A 
ATOM     17  C   UNL     1       7.012   5.753  16.664  0.00  0.00    +0.000 A 
ATOM     18  C   UNL     1       6.816   6.730  17.635  0.00  0.00    +0.000 A 
ATOM     19  C   UNL     1       5.549   7.287  17.831  0.00  0.00    +0.000 A 
ENDBRANCH  13  14
ENDBRANCH   5  13
BRANCH   6  20
ATOM     20  C   UNL     1       2.090   9.798  18.971  0.00  0.00    +0.000 C 
BRANCH  20  21
ATOM     21  N   UNL     1       0.868  10.617  19.164  0.00  0.00    +0.000 N 
ATOM     22  C   UNL     1       0.771  11.460  20.296  0.00  0.00    +0.000 C 
ATOM     23  O   UNL     1       1.706  11.461  21.100  0.00  0.00    +0.000 OA
BRANCH  22  24
ATOM     24  C   UNL     1      -0.415  12.380  20.617  0.00  0.00    +0.000 A 
ATOM     25  C   UNL     1      -1.522  11.979  21.385  0.00  0.00    +0.000 A 
ATOM     26  C   UNL     1      -2.643  12.783  21.628  0.00  0.00    +0.000 A 
ATOM     27  C   UNL     1      -2.696  14.060  21.112  0.00  0.00    +0.000 A 
ATOM     28  C   UNL     1      -1.630  14.509  20.339  0.00  0.00    +0.000 A 
ATOM     29  C   UNL     1      -0.508  13.687  20.081  0.00  0.00    +0.000 A 
ATOM     30 CL   UNL     1       0.692  14.444  19.084  0.00  0.00    +0.000 Cl
ENDBRANCH  22  24
BRANCH  21  31
ATOM     31  C   UNL     1      -0.004  10.650  17.994  0.00  0.00    +0.000 C 
BRANCH  31  32
ATOM     32  C   UNL     1      -1.404  10.083  18.183  0.00  0.00    +0.000 C 
ATOM     33  C   UNL     1      -2.738  10.824  18.100  0.00  0.00    +0.000 C 
ATOM     34  C   UNL     1      -2.367   9.827  17.044  0.00  0.00    +0.000 C 
ENDBRANCH  31  32
ENDBRANCH  21  31
ENDBRANCH  20  21
ENDBRANCH   6  20
TORSDOF 8
ENDMDL
MODEL 5
REMARK VINA RESULT:      -7.9      2.454      5.298
REMARK  Name = 
REMARK  9 active torsions:
REMARK  status: ('A' for Active; 'I' for Inactive)
REMARK    1  A    between atoms: C_1  and  C_2
REMARK    2  A    between atoms: N_4  and  C_5
REMARK    3  A    between atoms: C_11  and  O_12
REMARK    4  A    between atoms: O_12  and  C_13
REMARK    5  A    between atoms: C_19  and  C_20
REMARK    6  A    between atoms: C_20  and  N_21
REMARK    7  A    between atoms: N_21  and  C_22
REMARK    8  A    between atoms: C_22  and  C_23
REMARK    9  A    between atoms: C_26  and  C_28
REMARK                            x       y       z     vdW  Elec       q    Type
REMARK                         _______ _______ _______ _____ _____    ______ ____
ROOT
ATOM      1  C   UNL     1       1.014   7.980  21.641  0.00  0.00    +0.000 C 
ATOM      2  C   UNL     1       1.548   7.392  20.392  0.00  0.00    +0.000 A 
ATOM      3  N   UNL     1       1.744   6.077  20.339  0.00  0.00    +0.000 NA
ATOM      4  N   UNL     1       2.339   5.841  19.143  0.00  0.00    +0.000 N 
ATOM      5  C   UNL     1       2.479   7.029  18.415  0.00  0.00    +0.000 A 
ATOM      6  C   UNL     1       1.990   8.061  19.214  0.00  0.00    +0.000 A 
ENDROOT
BRANCH   4   7
ATOM      7  C   UNL     1       2.744   4.497  18.832  0.00  0.00    +0.000 A 
ATOM      8  C   UNL     1       3.862   3.951  19.495  0.00  0.00    +0.000 A 
ATOM      9  C   UNL     1       4.288   2.643  19.238  0.00  0.00    +0.000 A 
ATOM     10  C   UNL     1       3.608   1.861  18.311  0.00  0.00    +0.000 A 
ATOM     11  C   UNL     1       2.511   2.389  17.637  0.00  0.00    +0.000 A 
ATOM     12  C   UNL     1       2.079   3.699  17.892  0.00  0.00    +0.000 A 
ENDBRANCH   4   7
BRANCH   5  13
ATOM     13  O   UNL     1       3.107   7.042  17.238  0.00  0.00    +0.000 OA
BRANCH  13  14
ATOM     14  C   UNL     1       4.395   6.588  17.087  0.00  0.00    +0.000 A 
ATOM     15  C   UNL     1       5.354   7.227  17.869  0.00  0.00    +0.000 A 
ATOM     16  C   UNL     1       6.694   6.844  17.779  0.00  0.00    +0.000 A 
ATOM     17  C   UNL     1       7.065   5.815  16.906  0.00  0.00    +0.000 A 
ATOM     18  C   UNL     1       6.096   5.153  16.159  0.00  0.00    +0.000 A 
ATOM     19  C   UNL     1       4.750   5.518  16.267  0.00  0.00    +0.000 A 
ENDBRANCH  13  14
ENDBRANCH   5  13
BRANCH   6  20
ATOM     20  C   UNL     1       2.099   9.554  19.054  0.00  0.00    +0.000 C 
BRANCH  20  21
ATOM     21  N   UNL     1       0.900  10.401  19.270  0.00  0.00    +0.000 N 
ATOM     22  C   UNL     1       0.862  11.278  20.379  0.00  0.00    +0.000 C 
ATOM     23  O   UNL     1       1.827  11.285  21.146  0.00  0.00    +0.000 OA
BRANCH  22  24
ATOM     24  C   UNL     1      -0.294  12.229  20.717  0.00  0.00    +0.000 A 
ATOM     25  C   UNL     1      -0.567  13.406  19.997  0.00  0.00    +0.000 A 
ATOM     26  C   UNL     1      -1.576  14.318  20.335  0.00  0.00    +0.000 A 
ATOM     27  C   UNL     1      -2.383  14.074  21.425  0.00  0.00    +0.000 A 
ATOM     28  C   UNL     1      -2.156  12.927  22.177  0.00  0.00    +0.000 A 
ATOM     29  C   UNL     1      -1.125  12.018  21.843  0.00  0.00    +0.000 A 
ATOM     30 CL   UNL     1      -1.014  10.667  22.926  0.00  0.00    +0.000 Cl
ENDBRANCH  22  24
BRANCH  21  31
ATOM     31  C   UNL     1      -0.016  10.416  18.133  0.00  0.00    +0.000 C 
BRANCH  31  32
ATOM     32  C   UNL     1      -1.467  10.068  18.435  0.00  0.00    +0.000 C 
ATOM     33  C   UNL     1      -2.698  10.961  18.292  0.00  0.00    +0.000 C 
ATOM     34  C   UNL     1      -2.505   9.798  17.366  0.00  0.00    +0.000 C 
ENDBRANCH  31  32
ENDBRANCH  21  31
ENDBRANCH  20  21
ENDBRANCH   6  20
TORSDOF 8
ENDMDL
MODEL 6
REMARK VINA RESULT:      -7.8      4.373     10.382
REMARK  Name = 
REMARK  9 active torsions:
REMARK  status: ('A' for Active; 'I' for Inactive)
REMARK    1  A    between atoms: C_1  and  C_2
REMARK    2  A    between atoms: N_4  and  C_5
REMARK    3  A    between atoms: C_11  and  O_12
REMARK    4  A    between atoms: O_12  and  C_13
REMARK    5  A    between atoms: C_19  and  C_20
REMARK    6  A    between atoms: C_20  and  N_21
REMARK    7  A    between atoms: N_21  and  C_22
REMARK    8  A    between atoms: C_22  and  C_23
REMARK    9  A    between atoms: C_26  and  C_28
REMARK                            x       y       z     vdW  Elec       q    Type
REMARK                         _______ _______ _______ _____ _____    ______ ____
ROOT
ATOM      1  C   UNL     1       1.780  13.646  20.388  0.00  0.00    +0.000 C 
ATOM      2  C   UNL     1       0.437  13.065  20.172  0.00  0.00    +0.000 A 
ATOM      3  N   UNL     1      -0.599  13.598  20.816  0.00  0.00    +0.000 NA
ATOM      4  N   UNL     1      -1.662  12.805  20.524  0.00  0.00    +0.000 N 
ATOM      5  C   UNL     1      -1.290  11.782  19.645  0.00  0.00    +0.000 A 
ATOM      6  C   UNL     1       0.078  11.914  19.413  0.00  0.00    +0.000 A 
ENDROOT
BRANCH   4   7
ATOM      7  C   UNL     1      -2.924  13.095  21.148  0.00  0.00    +0.000 A 
ATOM      8  C   UNL     1      -3.192  12.561  22.425  0.00  0.00    +0.000 A 
ATOM      9  C   UNL     1      -4.400  12.824  23.080  0.00  0.00    +0.000 A 
ATOM     10  C   UNL     1      -5.362  13.621  22.469  0.00  0.00    +0.000 A 
ATOM     11  C   UNL     1      -5.120  14.144  21.203  0.00  0.00    +0.000 A 
ATOM     12  C   UNL     1      -3.910  13.885  20.543  0.00  0.00    +0.000 A 
ENDBRANCH   4   7
BRANCH   5  13
ATOM     13  O   UNL     1      -2.162  10.840  19.282  0.00  0.00    +0.000 OA
BRANCH  13  14
ATOM     14  C   UNL     1      -2.725  10.802  18.028  0.00  0.00    +0.000 A 
ATOM     15  C   UNL     1      -2.100   9.958  17.114  0.00  0.00    +0.000 A 
ATOM     16  C   UNL     1      -2.591   9.858  15.810  0.00  0.00    +0.000 A 
ATOM     17  C   UNL     1      -3.712  10.606  15.431  0.00  0.00    +0.000 A 
ATOM     18  C   UNL     1      -4.356  11.414  16.362  0.00  0.00    +0.000 A 
ATOM     19  C   UNL     1      -3.881  11.495  17.675  0.00  0.00    +0.000 A 
ENDBRANCH  13  14
ENDBRANCH   5  13
BRANCH   6  20
ATOM     20  C   UNL     1       1.050  10.974  18.752  0.00  0.00    +0.000 C 
BRANCH  20  21
ATOM     21  N   UNL     1       1.361   9.673  19.394  0.00  0.00    +0.000 N 
ATOM     22  C   UNL     1       1.849   8.608  18.601  0.00  0.00    +0.000 C 
ATOM     23  O   UNL     1       1.974   8.798  17.389  0.00  0.00    +0.000 OA
BRANCH  22  24
ATOM     24  C   UNL     1       2.234   7.218  19.125  0.00  0.00    +0.000 A 
ATOM     25  C   UNL     1       1.567   6.576  20.183  0.00  0.00    +0.000 A 
ATOM     26  C   UNL     1       1.950   5.338  20.718  0.00  0.00    +0.000 A 
ATOM     27  C   UNL     1       3.033   4.670  20.191  0.00  0.00    +0.000 A 
ATOM     28  C   UNL     1       3.734   5.260  19.145  0.00  0.00    +0.000 A 
ATOM     29  C   UNL     1       3.355   6.518  18.620  0.00  0.00    +0.000 A 
ATOM     30 CL   UNL     1       4.378   7.069  17.332  0.00  0.00    +0.000 Cl
ENDBRANCH  22  24
BRANCH  21  31
ATOM     31  C   UNL     1       1.369   9.729  20.853  0.00  0.00    +0.000 C 
BRANCH  31  32
ATOM     32  C   UNL     1       0.034   9.491  21.542  0.00  0.00    +0.000 C 
ATOM     33  C   UNL     1      -0.238   8.698  22.820  0.00  0.00    +0.000 C 
ATOM     34  C   UNL     1      -0.390  10.190  22.817  0.00  0.00    +0.000 C 
ENDBRANCH  31  32
ENDBRANCH  21  31
ENDBRANCH  20  21
ENDBRANCH   6  20
TORSDOF 8
ENDMDL
MODEL 7
REMARK VINA RESULT:      -7.8      2.451      5.450
REMARK  Name = 
REMARK  9 active torsions:
REMARK  status: ('A' for Active; 'I' for Inactive)
REMARK    1  A    between atoms: C_1  and  C_2
REMARK    2  A    between atoms: N_4  and  C_5
REMARK    3  A    between atoms: C_11  and  O_12
REMARK    4  A    between atoms: O_12  and  C_13
REMARK    5  A    between atoms: C_19  and  C_20
REMARK    6  A    between atoms: C_20  and  N_21
REMARK    7  A    between atoms: N_21  and  C_22
REMARK    8  A    between atoms: C_22  and  C_23
REMARK    9  A    between atoms: C_26  and  C_28
REMARK                            x       y       z     vdW  Elec       q    Type
REMARK                         _______ _______ _______ _____ _____    ______ ____
ROOT
ATOM      1  C   UNL     1       1.218   8.448  21.343  0.00  0.00    +0.000 C 
ATOM      2  C   UNL     1       1.711   7.680  20.178  0.00  0.00    +0.000 A 
ATOM      3  N   UNL     1       1.900   6.369  20.312  0.00  0.00    +0.000 NA
ATOM      4  N   UNL     1       2.457   5.956  19.145  0.00  0.00    +0.000 N 
ATOM      5  C   UNL     1       2.578   7.024  18.247  0.00  0.00    +0.000 A 
ATOM      6  C   UNL     1       2.118   8.165  18.901  0.00  0.00    +0.000 A 
ENDROOT
BRANCH   4   7
ATOM      7  C   UNL     1       2.847   4.578  19.022  0.00  0.00    +0.000 A 
ATOM      8  C   UNL     1       4.012   4.138  19.682  0.00  0.00    +0.000 A 
ATOM      9  C   UNL     1       4.426   2.804  19.606  0.00  0.00    +0.000 A 
ATOM     10  C   UNL     1       3.688   1.888  18.863  0.00  0.00    +0.000 A 
ATOM     11  C   UNL     1       2.544   2.309  18.193  0.00  0.00    +0.000 A 
ATOM     12  C   UNL     1       2.123   3.645  18.269  0.00  0.00    +0.000 A 
ENDBRANCH   4   7
BRANCH   5  13
ATOM     13  O   UNL     1       3.168   6.860  17.063  0.00  0.00    +0.000 OA
BRANCH  13  14
ATOM     14  C   UNL     1       4.488   6.493  16.943  0.00  0.00    +0.000 A 
ATOM     15  C   UNL     1       4.728   5.345  16.193  0.00  0.00    +0.000 A 
ATOM     16  C   UNL     1       6.035   4.885  16.022  0.00  0.00    +0.000 A 
ATOM     17  C   UNL     1       7.099   5.585  16.604  0.00  0.00    +0.000 A 
ATOM     18  C   UNL     1       6.855   6.755  17.317  0.00  0.00    +0.000 A 
ATOM     19  C   UNL     1       5.549   7.230  17.467  0.00  0.00    +0.000 A 
ENDBRANCH  13  14
ENDBRANCH   5  13
BRANCH   6  20
ATOM     20  C   UNL     1       2.227   9.618  18.522  0.00  0.00    +0.000 C 
BRANCH  20  21
ATOM     21  N   UNL     1       1.141  10.556  18.900  0.00  0.00    +0.000 N 
ATOM     22  C   UNL     1       1.446  11.921  19.108  0.00  0.00    +0.000 C 
ATOM     23  O   UNL     1       2.621  12.277  18.991  0.00  0.00    +0.000 OA
BRANCH  22  24
ATOM     24  C   UNL     1       0.429  13.009  19.479  0.00  0.00    +0.000 A 
ATOM     25  C   UNL     1       0.195  14.152  18.694  0.00  0.00    +0.000 A 
ATOM     26  C   UNL     1      -0.680  15.186  19.053  0.00  0.00    +0.000 A 
ATOM     27  C   UNL     1      -1.384  15.109  20.235  0.00  0.00    +0.000 A 
ATOM     28  C   UNL     1      -1.189  14.003  21.054  0.00  0.00    +0.000 A 
ATOM     29  C   UNL     1      -0.291  12.969  20.697  0.00  0.00    +0.000 A 
ATOM     30 CL   UNL     1      -0.194  11.698  21.872  0.00  0.00    +0.000 Cl
ENDBRANCH  22  24
BRANCH  21  31
ATOM     31  C   UNL     1      -0.197   9.988  18.757  0.00  0.00    +0.000 C 
BRANCH  31  32
ATOM     32  C   UNL     1      -1.037  10.530  17.609  0.00  0.00    +0.000 C 
ATOM     33  C   UNL     1      -2.319   9.941  17.022  0.00  0.00    +0.000 C 
ATOM     34  C   UNL     1      -2.369  11.223  17.798  0.00  0.00    +0.000 C 
ENDBRANCH  31  32
ENDBRANCH  21  31
ENDBRANCH  20  21
ENDBRANCH   6  20
TORSDOF 8
ENDMDL
MODEL 8
REMARK VINA RESULT:      -7.7      5.602     10.095
REMARK  Name = 
REMARK  9 active torsions:
REMARK  status: ('A' for Active; 'I' for Inactive)
REMARK    1  A    between atoms: C_1  and  C_2
REMARK    2  A    between atoms: N_4  and  C_5
REMARK    3  A    between atoms: C_11  and  O_12
REMARK    4  A    between atoms: O_12  and  C_13
REMARK    5  A    between atoms: C_19  and  C_20
REMARK    6  A    between atoms: C_20  and  N_21
REMARK    7  A    between atoms: N_21  and  C_22
REMARK    8  A    between atoms: C_22  and  C_23
REMARK    9  A    between atoms: C_26  and  C_28
REMARK                            x       y       z     vdW  Elec       q    Type
REMARK                         _______ _______ _______ _____ _____    ______ ____
ROOT
ATOM      1  C   UNL     1       1.302  14.486  20.132  0.00  0.00    +0.000 C 
ATOM      2  C   UNL     1       0.695  13.146  19.971  0.00  0.00    +0.000 A 
ATOM      3  N   UNL     1       1.499  12.096  19.817  0.00  0.00    +0.000 NA
ATOM      4  N   UNL     1       0.682  11.038  19.578  0.00  0.00    +0.000 N 
ATOM      5  C   UNL     1      -0.661  11.428  19.627  0.00  0.00    +0.000 A 
ATOM      6  C   UNL     1      -0.684  12.802  19.862  0.00  0.00    +0.000 A 
ENDROOT
BRANCH   4   7
ATOM      7  C   UNL     1       1.280   9.762  19.294  0.00  0.00    +0.000 A 
ATOM      8  C   UNL     1       1.799   9.524  18.006  0.00  0.00    +0.000 A 
ATOM      9  C   UNL     1       2.403   8.304  17.683  0.00  0.00    +0.000 A 
ATOM     10  C   UNL     1       2.492   7.299  18.640  0.00  0.00    +0.000 A 
ATOM     11  C   UNL     1       1.971   7.512  19.912  0.00  0.00    +0.000 A 
ATOM     12  C   UNL     1       1.367   8.734  20.241  0.00  0.00    +0.000 A 
ENDBRANCH   4   7
BRANCH   5  13
ATOM     13  O   UNL     1      -1.637  10.562  19.348  0.00  0.00    +0.000 OA
BRANCH  13  14
ATOM     14  C   UNL     1      -2.292  10.558  18.139  0.00  0.00    +0.000 A 
ATOM     15  C   UNL     1      -3.492  11.263  18.103  0.00  0.00    +0.000 A 
ATOM     16  C   UNL     1      -4.238  11.309  16.923  0.00  0.00    +0.000 A 
ATOM     17  C   UNL     1      -3.771  10.648  15.780  0.00  0.00    +0.000 A 
ATOM     18  C   UNL     1      -2.550   9.980  15.813  0.00  0.00    +0.000 A 
ATOM     19  C   UNL     1      -1.790   9.956  16.987  0.00  0.00    +0.000 A 
ENDBRANCH  13  14
ENDBRANCH   5  13
BRANCH   6  20
ATOM     20  C   UNL     1      -1.818  13.788  19.780  0.00  0.00    +0.000 C 
BRANCH  20  21
ATOM     21  N   UNL     1      -2.589  14.119  21.004  0.00  0.00    +0.000 N 
ATOM     22  C   UNL     1      -2.519  15.430  21.532  0.00  0.00    +0.000 C 
ATOM     23  O   UNL     1      -1.792  16.246  20.963  0.00  0.00    +0.000 OA
BRANCH  22  24
ATOM     24  C   UNL     1      -3.275  15.925  22.773  0.00  0.00    +0.000 A 
ATOM     25  C   UNL     1      -4.475  16.655  22.710  0.00  0.00    +0.000 A 
ATOM     26  C   UNL     1      -5.139  17.173  23.830  0.00  0.00    +0.000 A 
ATOM     27  C   UNL     1      -4.625  16.962  25.090  0.00  0.00    +0.000 A 
ATOM     28  C   UNL     1      -3.437  16.250  25.213  0.00  0.00    +0.000 A 
ATOM     29  C   UNL     1      -2.759  15.745  24.079  0.00  0.00    +0.000 A 
ATOM     30 CL   UNL     1      -1.292  14.903  24.465  0.00  0.00    +0.000 Cl
ENDBRANCH  22  24
BRANCH  21  31
ATOM     31  C   UNL     1      -3.557  13.093  21.380  0.00  0.00    +0.000 C 
BRANCH  31  32
ATOM     32  C   UNL     1      -4.948  13.229  20.778  0.00  0.00    +0.000 C 
ATOM     33  C   UNL     1      -6.082  12.204  20.788  0.00  0.00    +0.000 C 
ATOM     34  C   UNL     1      -6.199  13.460  21.598  0.00  0.00    +0.000 C 
ENDBRANCH  31  32
ENDBRANCH  21  31
ENDBRANCH  20  21
ENDBRANCH   6  20
TORSDOF 8
ENDMDL
MODEL 9
REMARK VINA RESULT:      -7.6      2.628      5.772
REMARK  Name = 
REMARK  9 active torsions:
REMARK  status: ('A' for Active; 'I' for Inactive)
REMARK    1  A    between atoms: C_1  and  C_2
REMARK    2  A    between atoms: N_4  and  C_5
REMARK    3  A    between atoms: C_11  and  O_12
REMARK    4  A    between atoms: O_12  and  C_13
REMARK    5  A    between atoms: C_19  and  C_20
REMARK    6  A    between atoms: C_20  and  N_21
REMARK    7  A    between atoms: N_21  and  C_22
REMARK    8  A    between atoms: C_22  and  C_23
REMARK    9  A    between atoms: C_26  and  C_28
REMARK                            x       y       z     vdW  Elec       q    Type
REMARK                         _______ _______ _______ _____ _____    ______ ____
ROOT
ATOM      1  C   UNL     1       1.259   8.533  21.151  0.00  0.00    +0.000 C 
ATOM      2  C   UNL     1       1.782   7.722  20.029  0.00  0.00    +0.000 A 
ATOM      3  N   UNL     1       1.998   6.423  20.228  0.00  0.00    +0.000 NA
ATOM      4  N   UNL     1       2.576   5.968  19.087  0.00  0.00    +0.000 N 
ATOM      5  C   UNL     1       2.683   6.994  18.141  0.00  0.00    +0.000 A 
ATOM      6  C   UNL     1       2.191   8.155  18.735  0.00  0.00    +0.000 A 
ENDROOT
BRANCH   4   7
ATOM      7  C   UNL     1       2.998   4.595  19.034  0.00  0.00    +0.000 A 
ATOM      8  C   UNL     1       2.218   3.670  18.311  0.00  0.00    +0.000 A 
ATOM      9  C   UNL     1       2.592   2.325  18.218  0.00  0.00    +0.000 A 
ATOM     10  C   UNL     1       3.748   1.880  18.851  0.00  0.00    +0.000 A 
ATOM     11  C   UNL     1       4.521   2.777  19.582  0.00  0.00    +0.000 A 
ATOM     12  C   UNL     1       4.151   4.127  19.676  0.00  0.00    +0.000 A 
ENDBRANCH   4   7
BRANCH   5  13
ATOM     13  O   UNL     1       3.290   6.788  16.971  0.00  0.00    +0.000 OA
BRANCH  13  14
ATOM     14  C   UNL     1       4.597   6.372  16.884  0.00  0.00    +0.000 A 
ATOM     15  C   UNL     1       4.811   5.208  16.149  0.00  0.00    +0.000 A 
ATOM     16  C   UNL     1       6.104   4.699  16.012  0.00  0.00    +0.000 A 
ATOM     17  C   UNL     1       7.180   5.365  16.610  0.00  0.00    +0.000 A 
ATOM     18  C   UNL     1       6.964   6.550  17.307  0.00  0.00    +0.000 A 
ATOM     19  C   UNL     1       5.673   7.075  17.423  0.00  0.00    +0.000 A 
ENDBRANCH  13  14
ENDBRANCH   5  13
BRANCH   6  20
ATOM     20  C   UNL     1       2.272   9.590  18.287  0.00  0.00    +0.000 C 
BRANCH  20  21
ATOM     21  N   UNL     1       1.109  10.488  18.496  0.00  0.00    +0.000 N 
ATOM     22  C   UNL     1      -0.182  10.047  18.119  0.00  0.00    +0.000 C 
ATOM     23  O   UNL     1      -0.286   8.932  17.603  0.00  0.00    +0.000 OA
BRANCH  22  24
ATOM     24  C   UNL     1      -1.477  10.850  18.294  0.00  0.00    +0.000 A 
ATOM     25  C   UNL     1      -1.779  11.594  19.449  0.00  0.00    +0.000 A 
ATOM     26  C   UNL     1      -2.986  12.276  19.651  0.00  0.00    +0.000 A 
ATOM     27  C   UNL     1      -3.959  12.253  18.675  0.00  0.00    +0.000 A 
ATOM     28  C   UNL     1      -3.717  11.529  17.512  0.00  0.00    +0.000 A 
ATOM     29  C   UNL     1      -2.504  10.827  17.320  0.00  0.00    +0.000 A 
ATOM     30 CL   UNL     1      -2.424   9.982  15.807  0.00  0.00    +0.000 Cl
ENDBRANCH  22  24
BRANCH  21  31
ATOM     31  C   UNL     1       1.409  11.650  19.326  0.00  0.00    +0.000 C 
BRANCH  31  32
ATOM     32  C   UNL     1       1.630  12.963  18.589  0.00  0.00    +0.000 C 
ATOM     33  C   UNL     1       1.494  14.384  19.135  0.00  0.00    +0.000 C 
ATOM     34  C   UNL     1       2.847  13.842  18.785  0.00  0.00    +0.000 C 
ENDBRANCH  31  32
ENDBRANCH  21  31
ENDBRANCH  20  21
ENDBRANCH   6  20
TORSDOF 8
ENDMDL
