MODEL 1
REMARK VINA RESULT:      -6.9      0.000      0.000
REMARK  Name = 
REMARK  11 active torsions:
REMARK  status: ('A' for Active; 'I' for Inactive)
REMARK    1  A    between atoms: C_1  and  C_2
REMARK    2  A    between atoms: C_2  and  N_3
REMARK    3  A    between atoms: N_3  and  C_4
REMARK    4  A    between atoms: N_3  and  C_6
REMARK    5  A    between atoms: C_4  and  C_5
REMARK    6  A    between atoms: C_6  and  C_7
REMARK    7  A    between atoms: C_7  and  C_8
REMARK    8  A    between atoms: C_8  and  C_9
REMARK    9  A    between atoms: C_9  and  C_10
REMARK   10  A    between atoms: C_9  and  N_11
REMARK   11  A    between atoms: N_11  and  C_12
REMARK                            x       y       z     vdW  Elec       q    Type
REMARK                         _______ _______ _______ _____ _____    ______ ____
ROOT
ATOM      1  C   UNL     1       2.687   6.971  18.425  0.00  0.00    +0.000 A 
ATOM      2  C   UNL     1       2.461   5.781  19.007  0.00  0.00    +0.000 A 
ATOM      3  C   UNL     1       2.816   4.397  18.704  0.00  0.00    +0.000 A 
ATOM      4  C   UNL     1       3.503   3.759  17.688  0.00  0.00    +0.000 A 
ATOM      5  C   UNL     1       3.678   2.373  17.767  0.00  0.00    +0.000 A 
ATOM      6  C   UNL     1       3.133   1.638  18.831  0.00  0.00    +0.000 A 
ATOM      7  C   UNL     1       2.418   2.282  19.841  0.00  0.00    +0.000 A 
ATOM      8  C   UNL     1       2.275   3.657  19.775  0.00  0.00    +0.000 A 
ATOM      9  N   UNL     1       1.628   4.452  20.746  0.00  0.00    +0.000 NA
ATOM     10  C   UNL     1       1.756   5.670  20.301  0.00  0.00    +0.000 A 
ATOM     11  O   UNL     1       1.330   6.763  20.988  0.00  0.00    +0.000 OA
ATOM     12  C   UNL     1       1.476   8.008  20.358  0.00  0.00    +0.000 A 
ATOM     13  C   UNL     1       0.956   9.100  21.059  0.00  0.00    +0.000 A 
ATOM     14  C   UNL     1       0.986  10.364  20.476  0.00  0.00    +0.000 A 
ATOM     15  C   UNL     1       1.485  10.508  19.184  0.00  0.00    +0.000 A 
ATOM     16 CL   UNL     1       1.483  12.059  18.438  0.00  0.00    +0.000 Cl
ATOM     17  C   UNL     1       1.995   9.407  18.490  0.00  0.00    +0.000 A 
ATOM     18  C   UNL     1       2.060   8.143  19.091  0.00  0.00    +0.000 A 
ENDROOT
BRANCH   1  19
ATOM     19  N   UNL     1       3.427   7.205  17.256  0.00  0.00    +0.000 N 
ATOM     20  H   UNL     1       2.890   6.879  16.454  0.00  0.00    +0.000 HD
BRANCH  19  21
ATOM     21  C   UNL     1       4.826   6.696  17.147  0.00  0.00    +0.000 C 
ATOM     22  C   UNL     1       5.798   7.770  17.636  0.00  0.00    +0.000 C 
BRANCH  21  23
ATOM     23  C   UNL     1       5.125   6.323  15.681  0.00  0.00    +0.000 C 
BRANCH  23  24
ATOM     24  C   UNL     1       5.917   5.026  15.466  0.00  0.00    +0.000 C 
BRANCH  24  25
ATOM     25  C   UNL     1       5.510   4.232  14.213  0.00  0.00    +0.000 C 
BRANCH  25  26
ATOM     26  N   UNL     1       6.637   3.818  13.356  0.00  0.00    +0.000 NA
BRANCH  26  28
ATOM     27  C   UNL     1       4.667   3.301  11.857  0.00  0.00    +0.000 C 
ATOM     28  C   UNL     1       6.180   3.327  12.044  0.00  0.00    +0.000 C 
ENDBRANCH  26  28
BRANCH  26  29
ATOM     29  C   UNL     1       7.669   4.869  13.273  0.00  0.00    +0.000 C 
ATOM     30  C   UNL     1       7.749   5.639  11.956  0.00  0.00    +0.000 C 
ENDBRANCH  26  29
ENDBRANCH  25  26
ENDBRANCH  24  25
ENDBRANCH  23  24
ENDBRANCH  21  23
ENDBRANCH  19  21
ENDBRANCH   1  19
TORSDOF 8
ENDMDL
MODEL 2
REMARK VINA RESULT:      -6.9      2.489      5.032
REMARK  Name = 
REMARK  11 active torsions:
REMARK  status: ('A' for Active; 'I' for Inactive)
REMARK    1  A    between atoms: C_1  and  C_2
REMARK    2  A    between atoms: C_2  and  N_3
REMARK    3  A    between atoms: N_3  and  C_4
REMARK    4  A    between atoms: N_3  and  C_6
REMARK    5  A    between atoms: C_4  and  C_5
REMARK    6  A    between atoms: C_6  and  C_7
REMARK    7  A    between atoms: C_7  and  C_8
REMARK    8  A    between atoms: C_8  and  C_9
REMARK    9  A    between atoms: C_9  and  C_10
REMARK   10  A    between atoms: C_9  and  N_11
REMARK   11  A    between atoms: N_11  and  C_12
REMARK                            x       y       z     vdW  Elec       q    Type
REMARK                         _______ _______ _______ _____ _____    ______ ____
ROOT
ATOM      1  C   UNL     1       2.922   6.643  19.542  0.00  0.00    +0.000 A 
ATOM      2  C   UNL     1       3.645   6.683  18.410  0.00  0.00    +0.000 A 
ATOM      3  C   UNL     1       4.707   5.864  17.831  0.00  0.00    +0.000 A 
ATOM      4  C   UNL     1       5.405   4.738  18.226  0.00  0.00    +0.000 A 
ATOM      5  C   UNL     1       6.356   4.200  17.354  0.00  0.00    +0.000 A 
ATOM      6  C   UNL     1       6.630   4.812  16.120  0.00  0.00    +0.000 A 
ATOM      7  C   UNL     1       5.942   5.964  15.736  0.00  0.00    +0.000 A 
ATOM      8  C   UNL     1       4.979   6.474  16.589  0.00  0.00    +0.000 A 
ATOM      9  N   UNL     1       4.166   7.595  16.317  0.00  0.00    +0.000 NA
ATOM     10  C   UNL     1       3.394   7.695  17.362  0.00  0.00    +0.000 A 
ATOM     11  O   UNL     1       2.399   8.614  17.469  0.00  0.00    +0.000 OA
ATOM     12  C   UNL     1       1.689   8.647  18.679  0.00  0.00    +0.000 A 
ATOM     13  C   UNL     1       0.727   9.656  18.783  0.00  0.00    +0.000 A 
ATOM     14  C   UNL     1       0.029   9.815  19.977  0.00  0.00    +0.000 A 
ATOM     15  C   UNL     1       0.340   9.000  21.063  0.00  0.00    +0.000 A 
ATOM     16 CL   UNL     1      -0.486   9.219  22.556  0.00  0.00    +0.000 Cl
ATOM     17  C   UNL     1       1.309   7.999  20.949  0.00  0.00    +0.000 A 
ATOM     18  C   UNL     1       1.960   7.761  19.731  0.00  0.00    +0.000 A 
ENDROOT
BRANCH   1  19
ATOM     19  N   UNL     1       3.002   5.676  20.554  0.00  0.00    +0.000 N 
ATOM     20  H   UNL     1       3.778   5.047  20.349  0.00  0.00    +0.000 HD
BRANCH  19  21
ATOM     21  C   UNL     1       1.799   4.868  20.909  0.00  0.00    +0.000 C 
ATOM     22  C   UNL     1       2.200   3.754  21.877  0.00  0.00    +0.000 C 
BRANCH  21  23
ATOM     23  C   UNL     1       1.179   4.275  19.627  0.00  0.00    +0.000 C 
BRANCH  23  24
ATOM     24  C   UNL     1       0.722   2.813  19.717  0.00  0.00    +0.000 C 
BRANCH  24  25
ATOM     25  C   UNL     1       1.479   1.852  18.785  0.00  0.00    +0.000 C 
BRANCH  25  26
ATOM     26  N   UNL     1       2.895   2.202  18.561  0.00  0.00    +0.000 NA
BRANCH  26  28
ATOM     27  C   UNL     1       4.707   1.871  20.295  0.00  0.00    +0.000 C 
ATOM     28  C   UNL     1       3.807   1.256  19.228  0.00  0.00    +0.000 C 
ENDBRANCH  26  28
BRANCH  26  29
ATOM     29  C   UNL     1       3.184   2.398  17.129  0.00  0.00    +0.000 C 
ATOM     30  C   UNL     1       2.501   3.587  16.454  0.00  0.00    +0.000 C 
ENDBRANCH  26  29
ENDBRANCH  25  26
ENDBRANCH  24  25
ENDBRANCH  23  24
ENDBRANCH  21  23
ENDBRANCH  19  21
ENDBRANCH   1  19
TORSDOF 8
ENDMDL
MODEL 3
REMARK VINA RESULT:      -6.9      0.493      1.310
REMARK  Name = 
REMARK  11 active torsions:
REMARK  status: ('A' for Active; 'I' for Inactive)
REMARK    1  A    between atoms: C_1  and  C_2
REMARK    2  A    between atoms: C_2  and  N_3
REMARK    3  A    between atoms: N_3  and  C_4
REMARK    4  A    between atoms: N_3  and  C_6
REMARK    5  A    between atoms: C_4  and  C_5
REMARK    6  A    between atoms: C_6  and  C_7
REMARK    7  A    between atoms: C_7  and  C_8
REMARK    8  A    between atoms: C_8  and  C_9
REMARK    9  A    between atoms: C_9  and  C_10
REMARK   10  A    between atoms: C_9  and  N_11
REMARK   11  A    between atoms: N_11  and  C_12
REMARK                            x       y       z     vdW  Elec       q    Type
REMARK                         _______ _______ _______ _____ _____    ______ ____
ROOT
ATOM      1  C   UNL     1       2.886   6.879  18.143  0.00  0.00    +0.000 A 
ATOM      2  C   UNL     1       2.617   5.710  18.749  0.00  0.00    +0.000 A 
ATOM      3  C   UNL     1       2.958   4.312  18.498  0.00  0.00    +0.000 A 
ATOM      4  C   UNL     1       3.671   3.633  17.528  0.00  0.00    +0.000 A 
ATOM      5  C   UNL     1       3.819   2.248  17.651  0.00  0.00    +0.000 A 
ATOM      6  C   UNL     1       3.221   1.552  18.713  0.00  0.00    +0.000 A 
ATOM      7  C   UNL     1       2.479   2.237  19.677  0.00  0.00    +0.000 A 
ATOM      8  C   UNL     1       2.364   3.611  19.568  0.00  0.00    +0.000 A 
ATOM      9  N   UNL     1       1.695   4.445  20.491  0.00  0.00    +0.000 NA
ATOM     10  C   UNL     1       1.862   5.647  20.017  0.00  0.00    +0.000 A 
ATOM     11  O   UNL     1       1.430   6.766  20.657  0.00  0.00    +0.000 OA
ATOM     12  C   UNL     1       1.622   7.990  19.999  0.00  0.00    +0.000 A 
ATOM     13  C   UNL     1       1.096   9.110  20.649  0.00  0.00    +0.000 A 
ATOM     14  C   UNL     1       1.170  10.356  20.033  0.00  0.00    +0.000 A 
ATOM     15  C   UNL     1       1.720  10.455  18.758  0.00  0.00    +0.000 A 
ATOM     16 CL   UNL     1       1.774  11.984  17.970  0.00  0.00    +0.000 Cl
ATOM     17  C   UNL     1       2.236   9.327  18.114  0.00  0.00    +0.000 A 
ATOM     18  C   UNL     1       2.256   8.079  18.752  0.00  0.00    +0.000 A 
ENDROOT
BRANCH   1  19
ATOM     19  N   UNL     1       3.674   7.067  16.998  0.00  0.00    +0.000 N 
ATOM     20  H   UNL     1       3.132   6.802  16.177  0.00  0.00    +0.000 HD
BRANCH  19  21
ATOM     21  C   UNL     1       5.026   6.441  16.914  0.00  0.00    +0.000 C 
ATOM     22  C   UNL     1       6.082   7.445  17.377  0.00  0.00    +0.000 C 
BRANCH  21  23
ATOM     23  C   UNL     1       5.300   5.999  15.461  0.00  0.00    +0.000 C 
BRANCH  23  24
ATOM     24  C   UNL     1       6.468   5.024  15.265  0.00  0.00    +0.000 C 
BRANCH  24  25
ATOM     25  C   UNL     1       6.121   3.775  14.436  0.00  0.00    +0.000 C 
BRANCH  25  26
ATOM     26  N   UNL     1       6.087   3.998  12.978  0.00  0.00    +0.000 NA
BRANCH  26  28
ATOM     27  C   UNL     1       7.703   5.671  11.983  0.00  0.00    +0.000 C 
ATOM     28  C   UNL     1       7.433   4.237  12.426  0.00  0.00    +0.000 C 
ENDBRANCH  26  28
BRANCH  26  29
ATOM     29  C   UNL     1       5.341   2.931  12.285  0.00  0.00    +0.000 C 
ATOM     30  C   UNL     1       4.243   3.384  11.324  0.00  0.00    +0.000 C 
ENDBRANCH  26  29
ENDBRANCH  25  26
ENDBRANCH  24  25
ENDBRANCH  23  24
ENDBRANCH  21  23
ENDBRANCH  19  21
ENDBRANCH   1  19
TORSDOF 8
ENDMDL
MODEL 4
REMARK VINA RESULT:      -6.7      2.493      5.080
REMARK  Name = 
REMARK  11 active torsions:
REMARK  status: ('A' for Active; 'I' for Inactive)
REMARK    1  A    between atoms: C_1  and  C_2
REMARK    2  A    between atoms: C_2  and  N_3
REMARK    3  A    between atoms: N_3  and  C_4
REMARK    4  A    between atoms: N_3  and  C_6
REMARK    5  A    between atoms: C_4  and  C_5
REMARK    6  A    between atoms: C_6  and  C_7
REMARK    7  A    between atoms: C_7  and  C_8
REMARK    8  A    between atoms: C_8  and  C_9
REMARK    9  A    between atoms: C_9  and  C_10
REMARK   10  A    between atoms: C_9  and  N_11
REMARK   11  A    between atoms: N_11  and  C_12
REMARK                            x       y       z     vdW  Elec       q    Type
REMARK                         _______ _______ _______ _____ _____    ______ ____
ROOT
ATOM      1  C   UNL     1       2.944   5.881  18.805  0.00  0.00    +0.000 A 
ATOM      2  C   UNL     1       2.304   6.934  19.340  0.00  0.00    +0.000 A 
ATOM      3  C   UNL     1       2.029   8.304  18.913  0.00  0.00    +0.000 A 
ATOM      4  C   UNL     1       2.337   9.067  17.803  0.00  0.00    +0.000 A 
ATOM      5  C   UNL     1       1.847  10.375  17.733  0.00  0.00    +0.000 A 
ATOM      6  C   UNL     1       1.093  10.919  18.785  0.00  0.00    +0.000 A 
ATOM      7  C   UNL     1       0.806  10.154  19.917  0.00  0.00    +0.000 A 
ATOM      8  C   UNL     1       1.267   8.850  19.966  0.00  0.00    +0.000 A 
ATOM      9  N   UNL     1       1.012   7.939  21.015  0.00  0.00    +0.000 NA
ATOM     10  C   UNL     1       1.599   6.839  20.635  0.00  0.00    +0.000 A 
ATOM     11  O   UNL     1       1.530   5.678  21.337  0.00  0.00    +0.000 OA
ATOM     12  C   UNL     1       2.264   4.589  20.842  0.00  0.00    +0.000 A 
ATOM     13  C   UNL     1       2.233   3.435  21.630  0.00  0.00    +0.000 A 
ATOM     14  C   UNL     1       2.996   2.332  21.258  0.00  0.00    +0.000 A 
ATOM     15  C   UNL     1       3.817   2.417  20.136  0.00  0.00    +0.000 A 
ATOM     16 CL   UNL     1       4.798   1.074  19.695  0.00  0.00    +0.000 Cl
ATOM     17  C   UNL     1       3.846   3.579  19.360  0.00  0.00    +0.000 A 
ATOM     18  C   UNL     1       3.018   4.669  19.662  0.00  0.00    +0.000 A 
ENDROOT
BRANCH   1  19
ATOM     19  N   UNL     1       3.559   5.825  17.545  0.00  0.00    +0.000 N 
ATOM     20  H   UNL     1       3.591   4.854  17.236  0.00  0.00    +0.000 HD
BRANCH  19  21
ATOM     21  C   UNL     1       4.901   6.446  17.344  0.00  0.00    +0.000 C 
ATOM     22  C   UNL     1       4.924   7.187  16.006  0.00  0.00    +0.000 C 
BRANCH  21  23
ATOM     23  C   UNL     1       5.986   5.350  17.374  0.00  0.00    +0.000 C 
BRANCH  23  24
ATOM     24  C   UNL     1       5.949   4.337  16.223  0.00  0.00    +0.000 C 
BRANCH  24  25
ATOM     25  C   UNL     1       7.035   4.551  15.154  0.00  0.00    +0.000 C 
BRANCH  25  26
ATOM     26  N   UNL     1       6.518   4.745  13.785  0.00  0.00    +0.000 NA
BRANCH  26  28
ATOM     27  C   UNL     1       8.658   5.883  13.062  0.00  0.00    +0.000 C 
ATOM     28  C   UNL     1       7.604   4.814  12.792  0.00  0.00    +0.000 C 
ENDBRANCH  26  28
BRANCH  26  29
ATOM     29  C   UNL     1       5.472   3.758  13.457  0.00  0.00    +0.000 C 
ATOM     30  C   UNL     1       5.589   3.072  12.097  0.00  0.00    +0.000 C 
ENDBRANCH  26  29
ENDBRANCH  25  26
ENDBRANCH  24  25
ENDBRANCH  23  24
ENDBRANCH  21  23
ENDBRANCH  19  21
ENDBRANCH   1  19
TORSDOF 8
ENDMDL
MODEL 5
REMARK VINA RESULT:      -6.6      2.583      4.953
REMARK  Name = 
REMARK  11 active torsions:
REMARK  status: ('A' for Active; 'I' for Inactive)
REMARK    1  A    between atoms: C_1  and  C_2
REMARK    2  A    between atoms: C_2  and  N_3
REMARK    3  A    between atoms: N_3  and  C_4
REMARK    4  A    between atoms: N_3  and  C_6
REMARK    5  A    between atoms: C_4  and  C_5
REMARK    6  A    between atoms: C_6  and  C_7
REMARK    7  A    between atoms: C_7  and  C_8
REMARK    8  A    between atoms: C_8  and  C_9
REMARK    9  A    between atoms: C_9  and  C_10
REMARK   10  A    between atoms: C_9  and  N_11
REMARK   11  A    between atoms: N_11  and  C_12
REMARK                            x       y       z     vdW  Elec       q    Type
REMARK                         _______ _______ _______ _____ _____    ______ ____
ROOT
ATOM      1  C   UNL     1       3.184   5.687  18.973  0.00  0.00    +0.000 A 
ATOM      2  C   UNL     1       2.461   6.730  19.414  0.00  0.00    +0.000 A 
ATOM      3  C   UNL     1       2.219   8.093  18.947  0.00  0.00    +0.000 A 
ATOM      4  C   UNL     1       2.655   8.858  17.882  0.00  0.00    +0.000 A 
ATOM      5  C   UNL     1       2.155  10.157  17.741  0.00  0.00    +0.000 A 
ATOM      6  C   UNL     1       1.262  10.690  18.683  0.00  0.00    +0.000 A 
ATOM      7  C   UNL     1       0.844   9.924  19.773  0.00  0.00    +0.000 A 
ATOM      8  C   UNL     1       1.318   8.629  19.890  0.00  0.00    +0.000 A 
ATOM      9  N   UNL     1       0.945   7.718  20.902  0.00  0.00    +0.000 NA
ATOM     10  C   UNL     1       1.596   6.628  20.608  0.00  0.00    +0.000 A 
ATOM     11  O   UNL     1       1.456   5.467  21.302  0.00  0.00    +0.000 OA
ATOM     12  C   UNL     1       2.268   4.391  20.913  0.00  0.00    +0.000 A 
ATOM     13  C   UNL     1       2.156   3.240  21.697  0.00  0.00    +0.000 A 
ATOM     14  C   UNL     1       2.980   2.149  21.434  0.00  0.00    +0.000 A 
ATOM     15  C   UNL     1       3.937   2.245  20.427  0.00  0.00    +0.000 A 
ATOM     16 CL   UNL     1       4.990   0.918  20.125  0.00  0.00    +0.000 Cl
ATOM     17  C   UNL     1       4.046   3.404  19.654  0.00  0.00    +0.000 A 
ATOM     18  C   UNL     1       3.167   4.479  19.840  0.00  0.00    +0.000 A 
ENDROOT
BRANCH   1  19
ATOM     19  N   UNL     1       3.957   5.638  17.804  0.00  0.00    +0.000 N 
ATOM     20  H   UNL     1       3.908   4.697  17.415  0.00  0.00    +0.000 HD
BRANCH  19  21
ATOM     21  C   UNL     1       5.382   6.080  17.835  0.00  0.00    +0.000 C 
ATOM     22  C   UNL     1       5.656   6.998  16.643  0.00  0.00    +0.000 C 
BRANCH  21  23
ATOM     23  C   UNL     1       6.306   4.846  17.791  0.00  0.00    +0.000 C 
BRANCH  23  24
ATOM     24  C   UNL     1       6.982   4.561  16.444  0.00  0.00    +0.000 C 
BRANCH  24  25
ATOM     25  C   UNL     1       6.099   3.807  15.436  0.00  0.00    +0.000 C 
BRANCH  25  26
ATOM     26  N   UNL     1       6.499   3.972  14.026  0.00  0.00    +0.000 NA
BRANCH  26  28
ATOM     27  C   UNL     1       5.832   2.807  11.881  0.00  0.00    +0.000 C 
ATOM     28  C   UNL     1       5.408   3.621  13.099  0.00  0.00    +0.000 C 
ENDBRANCH  26  28
BRANCH  26  29
ATOM     29  C   UNL     1       7.082   5.304  13.781  0.00  0.00    +0.000 C 
ATOM     30  C   UNL     1       8.256   5.364  12.806  0.00  0.00    +0.000 C 
ENDBRANCH  26  29
ENDBRANCH  25  26
ENDBRANCH  24  25
ENDBRANCH  23  24
ENDBRANCH  21  23
ENDBRANCH  19  21
ENDBRANCH   1  19
TORSDOF 8
ENDMDL
MODEL 6
REMARK VINA RESULT:      -6.6      0.682      1.020
REMARK  Name = 
REMARK  11 active torsions:
REMARK  status: ('A' for Active; 'I' for Inactive)
REMARK    1  A    between atoms: C_1  and  C_2
REMARK    2  A    between atoms: C_2  and  N_3
REMARK    3  A    between atoms: N_3  and  C_4
REMARK    4  A    between atoms: N_3  and  C_6
REMARK    5  A    between atoms: C_4  and  C_5
REMARK    6  A    between atoms: C_6  and  C_7
REMARK    7  A    between atoms: C_7  and  C_8
REMARK    8  A    between atoms: C_8  and  C_9
REMARK    9  A    between atoms: C_9  and  C_10
REMARK   10  A    between atoms: C_9  and  N_11
REMARK   11  A    between atoms: N_11  and  C_12
REMARK                            x       y       z     vdW  Elec       q    Type
REMARK                         _______ _______ _______ _____ _____    ______ ____
ROOT
ATOM      1  C   UNL     1       2.882   6.779  18.123  0.00  0.00    +0.000 A 
ATOM      2  C   UNL     1       2.613   5.610  18.729  0.00  0.00    +0.000 A 
ATOM      3  C   UNL     1       2.945   4.211  18.471  0.00  0.00    +0.000 A 
ATOM      4  C   UNL     1       3.645   3.532  17.492  0.00  0.00    +0.000 A 
ATOM      5  C   UNL     1       3.787   2.145  17.610  0.00  0.00    +0.000 A 
ATOM      6  C   UNL     1       3.196   1.449  18.677  0.00  0.00    +0.000 A 
ATOM      7  C   UNL     1       2.467   2.135  19.649  0.00  0.00    +0.000 A 
ATOM      8  C   UNL     1       2.357   3.511  19.545  0.00  0.00    +0.000 A 
ATOM      9  N   UNL     1       1.701   4.345  20.476  0.00  0.00    +0.000 NA
ATOM     10  C   UNL     1       1.869   5.548  20.004  0.00  0.00    +0.000 A 
ATOM     11  O   UNL     1       1.449   6.667  20.651  0.00  0.00    +0.000 OA
ATOM     12  C   UNL     1       1.641   7.892  19.994  0.00  0.00    +0.000 A 
ATOM     13  C   UNL     1       1.126   9.013  20.652  0.00  0.00    +0.000 A 
ATOM     14  C   UNL     1       1.200  10.260  20.038  0.00  0.00    +0.000 A 
ATOM     15  C   UNL     1       1.738  10.360  18.758  0.00  0.00    +0.000 A 
ATOM     16 CL   UNL     1       1.792  11.890  17.974  0.00  0.00    +0.000 Cl
ATOM     17  C   UNL     1       2.243   9.231  18.107  0.00  0.00    +0.000 A 
ATOM     18  C   UNL     1       2.263   7.981  18.741  0.00  0.00    +0.000 A 
ENDROOT
BRANCH   1  19
ATOM     19  N   UNL     1       3.659   6.967  16.971  0.00  0.00    +0.000 N 
ATOM     20  H   UNL     1       3.091   6.758  16.151  0.00  0.00    +0.000 HD
BRANCH  19  21
ATOM     21  C   UNL     1       4.976   6.276  16.841  0.00  0.00    +0.000 C 
ATOM     22  C   UNL     1       6.075   7.161  17.429  0.00  0.00    +0.000 C 
BRANCH  21  23
ATOM     23  C   UNL     1       5.257   5.978  15.354  0.00  0.00    +0.000 C 
BRANCH  23  24
ATOM     24  C   UNL     1       6.208   4.808  15.073  0.00  0.00    +0.000 C 
BRANCH  24  25
ATOM     25  C   UNL     1       6.674   4.705  13.610  0.00  0.00    +0.000 C 
BRANCH  25  26
ATOM     26  N   UNL     1       6.216   3.494  12.904  0.00  0.00    +0.000 NA
BRANCH  26  28
ATOM     27  C   UNL     1       4.262   3.112  11.344  0.00  0.00    +0.000 C 
ATOM     28  C   UNL     1       4.752   3.471  12.743  0.00  0.00    +0.000 C 
ENDBRANCH  26  28
BRANCH  26  29
ATOM     29  C   UNL     1       6.957   3.289  11.645  0.00  0.00    +0.000 C 
ATOM     30  C   UNL     1       7.411   1.860  11.348  0.00  0.00    +0.000 C 
ENDBRANCH  26  29
ENDBRANCH  25  26
ENDBRANCH  24  25
ENDBRANCH  23  24
ENDBRANCH  21  23
ENDBRANCH  19  21
ENDBRANCH   1  19
TORSDOF 8
ENDMDL
MODEL 7
REMARK VINA RESULT:      -6.6      5.125      8.641
REMARK  Name = 
REMARK  11 active torsions:
REMARK  status: ('A' for Active; 'I' for Inactive)
REMARK    1  A    between atoms: C_1  and  C_2
REMARK    2  A    between atoms: C_2  and  N_3
REMARK    3  A    between atoms: N_3  and  C_4
REMARK    4  A    between atoms: N_3  and  C_6
REMARK    5  A    between atoms: C_4  and  C_5
REMARK    6  A    between atoms: C_6  and  C_7
REMARK    7  A    between atoms: C_7  and  C_8
REMARK    8  A    between atoms: C_8  and  C_9
REMARK    9  A    between atoms: C_9  and  C_10
REMARK   10  A    between atoms: C_9  and  N_11
REMARK   11  A    between atoms: N_11  and  C_12
REMARK                            x       y       z     vdW  Elec       q    Type
REMARK                         _______ _______ _______ _____ _____    ______ ____
ROOT
ATOM      1  C   UNL     1      -1.933  12.411  21.165  0.00  0.00    +0.000 A 
ATOM      2  C   UNL     1      -2.704  12.172  20.090  0.00  0.00    +0.000 A 
ATOM      3  C   UNL     1      -2.550  11.405  18.857  0.00  0.00    +0.000 A 
ATOM      4  C   UNL     1      -1.546  10.641  18.294  0.00  0.00    +0.000 A 
ATOM      5  C   UNL     1      -1.792  10.006  17.072  0.00  0.00    +0.000 A 
ATOM      6  C   UNL     1      -3.017  10.174  16.408  0.00  0.00    +0.000 A 
ATOM      7  C   UNL     1      -4.020  10.968  16.966  0.00  0.00    +0.000 A 
ATOM      8  C   UNL     1      -3.782  11.567  18.191  0.00  0.00    +0.000 A 
ATOM      9  N   UNL     1      -4.715  12.351  18.905  0.00  0.00    +0.000 NA
ATOM     10  C   UNL     1      -4.089  12.678  20.000  0.00  0.00    +0.000 A 
ATOM     11  O   UNL     1      -4.670  13.380  21.008  0.00  0.00    +0.000 OA
ATOM     12  C   UNL     1      -3.856  13.716  22.101  0.00  0.00    +0.000 A 
ATOM     13  C   UNL     1      -4.465  14.505  23.082  0.00  0.00    +0.000 A 
ATOM     14  C   UNL     1      -3.712  14.953  24.163  0.00  0.00    +0.000 A 
ATOM     15  C   UNL     1      -2.353  14.651  24.221  0.00  0.00    +0.000 A 
ATOM     16 CL   UNL     1      -1.405  15.239  25.531  0.00  0.00    +0.000 Cl
ATOM     17  C   UNL     1      -1.754  13.868  23.230  0.00  0.00    +0.000 A 
ATOM     18  C   UNL     1      -2.511  13.330  22.181  0.00  0.00    +0.000 A 
ENDROOT
BRANCH   1  19
ATOM     19  N   UNL     1      -0.648  11.902  21.405  0.00  0.00    +0.000 N 
ATOM     20  H   UNL     1      -0.037  12.173  20.635  0.00  0.00    +0.000 HD
BRANCH  19  21
ATOM     21  C   UNL     1      -0.464  10.448  21.686  0.00  0.00    +0.000 C 
ATOM     22  C   UNL     1      -0.726  10.180  23.169  0.00  0.00    +0.000 C 
BRANCH  21  23
ATOM     23  C   UNL     1       0.970  10.027  21.305  0.00  0.00    +0.000 C 
BRANCH  23  24
ATOM     24  C   UNL     1       1.256   8.520  21.334  0.00  0.00    +0.000 C 
BRANCH  24  25
ATOM     25  C   UNL     1       1.668   7.925  19.977  0.00  0.00    +0.000 C 
BRANCH  25  26
ATOM     26  N   UNL     1       2.412   6.654  20.065  0.00  0.00    +0.000 NA
BRANCH  26  28
ATOM     27  C   UNL     1       2.342   4.317  21.031  0.00  0.00    +0.000 C 
ATOM     28  C   UNL     1       1.577   5.563  20.597  0.00  0.00    +0.000 C 
ENDBRANCH  26  28
BRANCH  26  29
ATOM     29  C   UNL     1       3.078   6.327  18.790  0.00  0.00    +0.000 C 
ATOM     30  C   UNL     1       3.253   7.477  17.800  0.00  0.00    +0.000 C 
ENDBRANCH  26  29
ENDBRANCH  25  26
ENDBRANCH  24  25
ENDBRANCH  23  24
ENDBRANCH  21  23
ENDBRANCH  19  21
ENDBRANCH   1  19
TORSDOF 8
ENDMDL
MODEL 8
REMARK VINA RESULT:      -6.6      2.586      5.069
REMARK  Name = 
REMARK  11 active torsions:
REMARK  status: ('A' for Active; 'I' for Inactive)
REMARK    1  A    between atoms: C_1  and  C_2
REMARK    2  A    between atoms: C_2  and  N_3
REMARK    3  A    between atoms: N_3  and  C_4
REMARK    4  A    between atoms: N_3  and  C_6
REMARK    5  A    between atoms: C_4  and  C_5
REMARK    6  A    between atoms: C_6  and  C_7
REMARK    7  A    between atoms: C_7  and  C_8
REMARK    8  A    between atoms: C_8  and  C_9
REMARK    9  A    between atoms: C_9  and  C_10
REMARK   10  A    between atoms: C_9  and  N_11
REMARK   11  A    between atoms: N_11  and  C_12
REMARK                            x       y       z     vdW  Elec       q    Type
REMARK                         _______ _______ _______ _____ _____    ______ ____
ROOT
ATOM      1  C   UNL     1       2.873   6.114  18.837  0.00  0.00    +0.000 A 
ATOM      2  C   UNL     1       2.235   7.164  19.381  0.00  0.00    +0.000 A 
ATOM      3  C   UNL     1       1.972   8.541  18.970  0.00  0.00    +0.000 A 
ATOM      4  C   UNL     1       2.294   9.317  17.874  0.00  0.00    +0.000 A 
ATOM      5  C   UNL     1       1.813  10.629  17.817  0.00  0.00    +0.000 A 
ATOM      6  C   UNL     1       1.054  11.163  18.870  0.00  0.00    +0.000 A 
ATOM      7  C   UNL     1       0.753  10.385  19.989  0.00  0.00    +0.000 A 
ATOM      8  C   UNL     1       1.205   9.078  20.025  0.00  0.00    +0.000 A 
ATOM      9  N   UNL     1       0.936   8.154  21.059  0.00  0.00    +0.000 NA
ATOM     10  C   UNL     1       1.519   7.056  20.669  0.00  0.00    +0.000 A 
ATOM     11  O   UNL     1       1.436   5.886  21.355  0.00  0.00    +0.000 OA
ATOM     12  C   UNL     1       2.168   4.799  20.851  0.00  0.00    +0.000 A 
ATOM     13  C   UNL     1       2.123   3.635  21.623  0.00  0.00    +0.000 A 
ATOM     14  C   UNL     1       2.882   2.532  21.242  0.00  0.00    +0.000 A 
ATOM     15  C   UNL     1       3.712   2.627  20.128  0.00  0.00    +0.000 A 
ATOM     16 CL   UNL     1       4.688   1.283  19.678  0.00  0.00    +0.000 Cl
ATOM     17  C   UNL     1       3.755   3.799  19.368  0.00  0.00    +0.000 A 
ATOM     18  C   UNL     1       2.932   4.890  19.679  0.00  0.00    +0.000 A 
ENDROOT
BRANCH   1  19
ATOM     19  N   UNL     1       3.497   6.071  17.582  0.00  0.00    +0.000 N 
ATOM     20  H   UNL     1       3.736   5.104  17.364  0.00  0.00    +0.000 HD
BRANCH  19  21
ATOM     21  C   UNL     1       4.680   6.939  17.309  0.00  0.00    +0.000 C 
ATOM     22  C   UNL     1       4.833   7.131  15.800  0.00  0.00    +0.000 C 
BRANCH  21  23
ATOM     23  C   UNL     1       5.945   6.288  17.903  0.00  0.00    +0.000 C 
BRANCH  23  24
ATOM     24  C   UNL     1       7.122   6.102  16.936  0.00  0.00    +0.000 C 
BRANCH  24  25
ATOM     25  C   UNL     1       7.413   4.638  16.564  0.00  0.00    +0.000 C 
BRANCH  25  26
ATOM     26  N   UNL     1       7.256   4.327  15.130  0.00  0.00    +0.000 NA
BRANCH  26  28
ATOM     27  C   UNL     1       5.102   3.355  16.035  0.00  0.00    +0.000 C 
ATOM     28  C   UNL     1       5.910   3.810  14.824  0.00  0.00    +0.000 C 
ENDBRANCH  26  28
BRANCH  26  29
ATOM     29  C   UNL     1       7.666   5.461  14.282  0.00  0.00    +0.000 C 
ATOM     30  C   UNL     1       7.746   5.192  12.780  0.00  0.00    +0.000 C 
ENDBRANCH  26  29
ENDBRANCH  25  26
ENDBRANCH  24  25
ENDBRANCH  23  24
ENDBRANCH  21  23
ENDBRANCH  19  21
ENDBRANCH   1  19
TORSDOF 8
ENDMDL
MODEL 9
REMARK VINA RESULT:      -6.5      3.477      6.922
REMARK  Name = 
REMARK  11 active torsions:
REMARK  status: ('A' for Active; 'I' for Inactive)
REMARK    1  A    between atoms: C_1  and  C_2
REMARK    2  A    between atoms: C_2  and  N_3
REMARK    3  A    between atoms: N_3  and  C_4
REMARK    4  A    between atoms: N_3  and  C_6
REMARK    5  A    between atoms: C_4  and  C_5
REMARK    6  A    between atoms: C_6  and  C_7
REMARK    7  A    between atoms: C_7  and  C_8
REMARK    8  A    between atoms: C_8  and  C_9
REMARK    9  A    between atoms: C_9  and  C_10
REMARK   10  A    between atoms: C_9  and  N_11
REMARK   11  A    between atoms: N_11  and  C_12
REMARK                            x       y       z     vdW  Elec       q    Type
REMARK                         _______ _______ _______ _____ _____    ______ ____
ROOT
ATOM      1  C   UNL     1       4.190   5.857  17.980  0.00  0.00    +0.000 A 
ATOM      2  C   UNL     1       3.853   4.678  18.529  0.00  0.00    +0.000 A 
ATOM      3  C   UNL     1       2.619   3.905  18.642  0.00  0.00    +0.000 A 
ATOM      4  C   UNL     1       1.305   4.088  18.253  0.00  0.00    +0.000 A 
ATOM      5  C   UNL     1       0.382   3.071  18.513  0.00  0.00    +0.000 A 
ATOM      6  C   UNL     1       0.767   1.905  19.193  0.00  0.00    +0.000 A 
ATOM      7  C   UNL     1       2.089   1.735  19.609  0.00  0.00    +0.000 A 
ATOM      8  C   UNL     1       3.005   2.731  19.320  0.00  0.00    +0.000 A 
ATOM      9  N   UNL     1       4.383   2.678  19.626  0.00  0.00    +0.000 NA
ATOM     10  C   UNL     1       4.860   3.795  19.152  0.00  0.00    +0.000 A 
ATOM     11  O   UNL     1       6.182   4.108  19.173  0.00  0.00    +0.000 OA
ATOM     12  C   UNL     1       6.545   5.372  18.686  0.00  0.00    +0.000 A 
ATOM     13  C   UNL     1       7.902   5.691  18.795  0.00  0.00    +0.000 A 
ATOM     14  C   UNL     1       8.340   6.955  18.410  0.00  0.00    +0.000 A 
ATOM     15  C   UNL     1       7.412   7.895  17.971  0.00  0.00    +0.000 A 
ATOM     16 CL   UNL     1       7.939   9.474  17.536  0.00  0.00    +0.000 Cl
ATOM     17  C   UNL     1       6.057   7.568  17.873  0.00  0.00    +0.000 A 
ATOM     18  C   UNL     1       5.605   6.274  18.168  0.00  0.00    +0.000 A 
ENDROOT
BRANCH   1  19
ATOM     19  N   UNL     1       3.343   6.728  17.277  0.00  0.00    +0.000 N 
ATOM     20  H   UNL     1       3.910   7.333  16.685  0.00  0.00    +0.000 HD
BRANCH  19  21
ATOM     21  C   UNL     1       2.351   7.560  18.019  0.00  0.00    +0.000 C 
ATOM     22  C   UNL     1       2.499   9.023  17.599  0.00  0.00    +0.000 C 
BRANCH  21  23
ATOM     23  C   UNL     1       2.582   7.407  19.537  0.00  0.00    +0.000 C 
BRANCH  23  24
ATOM     24  C   UNL     1       1.337   7.551  20.422  0.00  0.00    +0.000 C 
BRANCH  24  25
ATOM     25  C   UNL     1       1.187   8.931  21.086  0.00  0.00    +0.000 C 
BRANCH  25  26
ATOM     26  N   UNL     1      -0.089   9.615  20.797  0.00  0.00    +0.000 NA
BRANCH  26  28
ATOM     27  C   UNL     1      -0.771  10.075  23.189  0.00  0.00    +0.000 C 
ATOM     28  C   UNL     1      -0.412  10.630  21.815  0.00  0.00    +0.000 C 
ENDBRANCH  26  28
BRANCH  26  29
ATOM     29  C   UNL     1      -0.128  10.124  19.414  0.00  0.00    +0.000 C 
ATOM     30  C   UNL     1      -1.500  10.535  18.880  0.00  0.00    +0.000 C 
ENDBRANCH  26  29
ENDBRANCH  25  26
ENDBRANCH  24  25
ENDBRANCH  23  24
ENDBRANCH  21  23
ENDBRANCH  19  21
ENDBRANCH   1  19
TORSDOF 8
ENDMDL
