MODEL 1
REMARK VINA RESULT:      -7.2      0.000      0.000
REMARK  Name = 
REMARK  6 active torsions:
REMARK  status: ('A' for Active; 'I' for Inactive)
REMARK    1  A    between atoms: C_1  and  C_2
REMARK    2  A    between atoms: C_2  and  C_3
REMARK    3  A    between atoms: C_2  and  C_4
REMARK    4  A    between atoms: C_4  and  C_5
REMARK    5  A    between atoms: N_19  and  C_20
REMARK    6  A    between atoms: C_20  and  C_21
REMARK                            x       y       z     vdW  Elec       q    Type
REMARK                         _______ _______ _______ _____ _____    ______ ____
ROOT
ATOM      1  C   UNL     1       1.540   8.333  19.209  0.00  0.00    +0.000 C 
ATOM      2  N   UNL     1       1.741   8.301  20.625  0.00  0.00    +0.000 N 
ATOM      3  C   UNL     1       0.926   9.144  21.344  0.00  0.00    +0.000 A 
ATOM      4  N   UNL     1       0.817   8.719  22.616  0.00  0.00    +0.000 NA
ATOM      5  C   UNL     1       0.164   9.535  23.422  0.00  0.00    +0.000 A 
ATOM      6  N   UNL     1      -0.424  10.675  23.061  0.00  0.00    +0.000 NA
ATOM      7  C   UNL     1      -0.341  11.085  21.763  0.00  0.00    +0.000 A 
ATOM      8  N   UNL     1      -0.941  12.321  21.552  0.00  0.00    +0.000 N 
ATOM      9  C   UNL     1      -0.838  13.311  22.631  0.00  0.00    +0.000 C 
ATOM     10  C   UNL     1      -2.207  13.746  23.151  0.00  0.00    +0.000 C 
ATOM     11  C   UNL     1      -3.098  14.205  22.007  0.00  0.00    +0.000 C 
ATOM     12  C   UNL     1      -3.314  13.036  21.071  0.00  0.00    +0.000 C 
ATOM     13  C   UNL     1      -2.003  12.480  20.568  0.00  0.00    +0.000 C 
ATOM     14  C   UNL     1       0.381  10.322  20.800  0.00  0.00    +0.000 A 
ATOM     15  N   UNL     1       0.680  10.623  19.381  0.00  0.00    +0.000 N 
ATOM     16  C   UNL     1       1.500   9.750  18.646  0.00  0.00    +0.000 C 
ATOM     17  O   UNL     1       2.021  10.023  17.561  0.00  0.00    +0.000 OA
ATOM     18  H   UNL     1       1.777   7.396  21.088  0.00  0.00    +0.000 HD
ENDROOT
BRANCH   1  19
ATOM     19  C   UNL     1       2.557   7.421  18.554  0.00  0.00    +0.000 C 
BRANCH  19  21
ATOM     20  C   UNL     1       2.117   4.852  17.913  0.00  0.00    +0.000 C 
ATOM     21  C   UNL     1       2.628   5.901  18.909  0.00  0.00    +0.000 C 
ATOM     22  C   UNL     1       4.036   5.492  19.338  0.00  0.00    +0.000 C 
ENDBRANCH  19  21
ENDBRANCH   1  19
BRANCH  15  23
ATOM     23  C   UNL     1       0.095  11.760  18.714  0.00  0.00    +0.000 C 
BRANCH  23  24
ATOM     24  C   UNL     1       0.751  13.120  18.601  0.00  0.00    +0.000 A 
ATOM     25  C   UNL     1      -0.008  14.306  18.677  0.00  0.00    +0.000 A 
ATOM     26  C   UNL     1       0.620  15.552  18.715  0.00  0.00    +0.000 A 
ATOM     27  C   UNL     1       2.010  15.630  18.670  0.00  0.00    +0.000 A 
ATOM     28  C   UNL     1       2.770  14.465  18.585  0.00  0.00    +0.000 A 
ATOM     29  C   UNL     1       2.146  13.217  18.549  0.00  0.00    +0.000 A 
ENDBRANCH  23  24
ENDBRANCH  15  23
TORSDOF 4
ENDMDL
MODEL 2
REMARK VINA RESULT:      -7.0      0.442      1.008
REMARK  Name = 
REMARK  6 active torsions:
REMARK  status: ('A' for Active; 'I' for Inactive)
REMARK    1  A    between atoms: C_1  and  C_2
REMARK    2  A    between atoms: C_2  and  C_3
REMARK    3  A    between atoms: C_2  and  C_4
REMARK    4  A    between atoms: C_4  and  C_5
REMARK    5  A    between atoms: N_19  and  C_20
REMARK    6  A    between atoms: C_20  and  C_21
REMARK                            x       y       z     vdW  Elec       q    Type
REMARK                         _______ _______ _______ _____ _____    ______ ____
ROOT
ATOM      1  C   UNL     1       1.572   8.685  18.895  0.00  0.00    +0.000 C 
ATOM      2  N   UNL     1       1.739   8.501  20.304  0.00  0.00    +0.000 N 
ATOM      3  C   UNL     1       0.936   9.294  21.090  0.00  0.00    +0.000 A 
ATOM      4  N   UNL     1       0.781   8.745  22.309  0.00  0.00    +0.000 NA
ATOM      5  C   UNL     1       0.137   9.497  23.181  0.00  0.00    +0.000 A 
ATOM      6  N   UNL     1      -0.404  10.689  22.927  0.00  0.00    +0.000 NA
ATOM      7  C   UNL     1      -0.276  11.226  21.681  0.00  0.00    +0.000 A 
ATOM      8  N   UNL     1      -0.829  12.498  21.586  0.00  0.00    +0.000 N 
ATOM      9  C   UNL     1      -0.720  13.368  22.764  0.00  0.00    +0.000 C 
ATOM     10  C   UNL     1      -2.085  13.797  23.298  0.00  0.00    +0.000 C 
ATOM     11  C   UNL     1      -2.932  14.401  22.189  0.00  0.00    +0.000 C 
ATOM     12  C   UNL     1      -3.165  13.343  21.133  0.00  0.00    +0.000 C 
ATOM     13  C   UNL     1      -1.861  12.795  20.603  0.00  0.00    +0.000 C 
ATOM     14  C   UNL     1       0.443  10.541  20.659  0.00  0.00    +0.000 A 
ATOM     15  N   UNL     1       0.786  10.975  19.285  0.00  0.00    +0.000 N 
ATOM     16  C   UNL     1       1.594  10.153  18.481  0.00  0.00    +0.000 C 
ATOM     17  O   UNL     1       2.149  10.517  17.441  0.00  0.00    +0.000 OA
ATOM     18  H   UNL     1       1.733   7.552  20.673  0.00  0.00    +0.000 HD
ENDROOT
BRANCH   1  19
ATOM     19  C   UNL     1       2.575   7.809  18.171  0.00  0.00    +0.000 C 
BRANCH  19  21
ATOM     20  C   UNL     1       1.973   5.195  18.064  0.00  0.00    +0.000 C 
ATOM     21  C   UNL     1       2.835   6.336  18.622  0.00  0.00    +0.000 C 
ATOM     22  C   UNL     1       4.301   5.946  18.439  0.00  0.00    +0.000 C 
ENDBRANCH  19  21
ENDBRANCH   1  19
BRANCH  15  23
ATOM     23  C   UNL     1       0.256  12.194  18.727  0.00  0.00    +0.000 C 
BRANCH  23  24
ATOM     24  C   UNL     1       0.991  13.517  18.702  0.00  0.00    +0.000 A 
ATOM     25  C   UNL     1       2.358  13.587  18.363  0.00  0.00    +0.000 A 
ATOM     26  C   UNL     1       2.990  14.822  18.205  0.00  0.00    +0.000 A 
ATOM     27  C   UNL     1       2.270  15.999  18.389  0.00  0.00    +0.000 A 
ATOM     28  C   UNL     1       0.920  15.942  18.733  0.00  0.00    +0.000 A 
ATOM     29  C   UNL     1       0.284  14.710  18.890  0.00  0.00    +0.000 A 
ENDBRANCH  23  24
ENDBRANCH  15  23
TORSDOF 4
ENDMDL
MODEL 3
REMARK VINA RESULT:      -6.7      2.188      4.810
REMARK  Name = 
REMARK  6 active torsions:
REMARK  status: ('A' for Active; 'I' for Inactive)
REMARK    1  A    between atoms: C_1  and  C_2
REMARK    2  A    between atoms: C_2  and  C_3
REMARK    3  A    between atoms: C_2  and  C_4
REMARK    4  A    between atoms: C_4  and  C_5
REMARK    5  A    between atoms: N_19  and  C_20
REMARK    6  A    between atoms: C_20  and  C_21
REMARK                            x       y       z     vdW  Elec       q    Type
REMARK                         _______ _______ _______ _____ _____    ______ ____
ROOT
ATOM      1  C   UNL     1       1.302  10.514  18.595  0.00  0.00    +0.000 C 
ATOM      2  N   UNL     1       2.193  11.410  17.925  0.00  0.00    +0.000 N 
ATOM      3  C   UNL     1       2.029  12.738  18.247  0.00  0.00    +0.000 A 
ATOM      4  N   UNL     1       3.157  13.426  17.993  0.00  0.00    +0.000 NA
ATOM      5  C   UNL     1       3.057  14.733  18.143  0.00  0.00    +0.000 A 
ATOM      6  N   UNL     1       1.976  15.384  18.572  0.00  0.00    +0.000 NA
ATOM      7  C   UNL     1       0.846  14.680  18.863  0.00  0.00    +0.000 A 
ATOM      8  N   UNL     1      -0.215  15.498  19.231  0.00  0.00    +0.000 N 
ATOM      9  C   UNL     1      -0.327  16.799  18.559  0.00  0.00    +0.000 C 
ATOM     10  C   UNL     1      -0.263  17.967  19.541  0.00  0.00    +0.000 C 
ATOM     11  C   UNL     1      -1.278  17.787  20.659  0.00  0.00    +0.000 C 
ATOM     12  C   UNL     1      -0.931  16.527  21.423  0.00  0.00    +0.000 C 
ATOM     13  C   UNL     1      -0.887  15.324  20.511  0.00  0.00    +0.000 C 
ATOM     14  C   UNL     1       0.803  13.265  18.694  0.00  0.00    +0.000 A 
ATOM     15  N   UNL     1      -0.331  12.325  18.851  0.00  0.00    +0.000 N 
ATOM     16  C   UNL     1      -0.153  10.967  18.535  0.00  0.00    +0.000 C 
ATOM     17  O   UNL     1      -1.071  10.157  18.380  0.00  0.00    +0.000 OA
ATOM     18  H   UNL     1       3.187  11.189  17.917  0.00  0.00    +0.000 HD
ENDROOT
BRANCH   1  19
ATOM     19  C   UNL     1       1.549   9.111  18.078  0.00  0.00    +0.000 C 
BRANCH  19  21
ATOM     20  C   UNL     1       1.724   7.718  20.366  0.00  0.00    +0.000 C 
ATOM     21  C   UNL     1       2.258   8.036  18.963  0.00  0.00    +0.000 C 
ATOM     22  C   UNL     1       2.423   6.715  18.214  0.00  0.00    +0.000 C 
ENDBRANCH  19  21
ENDBRANCH   1  19
BRANCH  15  23
ATOM     23  C   UNL     1      -1.599  12.758  19.384  0.00  0.00    +0.000 C 
BRANCH  23  24
ATOM     24  C   UNL     1      -2.103  12.430  20.774  0.00  0.00    +0.000 A 
ATOM     25  C   UNL     1      -1.251  11.861  21.743  0.00  0.00    +0.000 A 
ATOM     26  C   UNL     1      -1.683  11.693  23.060  0.00  0.00    +0.000 A 
ATOM     27  C   UNL     1      -2.969  12.085  23.423  0.00  0.00    +0.000 A 
ATOM     28  C   UNL     1      -3.822  12.641  22.471  0.00  0.00    +0.000 A 
ATOM     29  C   UNL     1      -3.394  12.811  21.154  0.00  0.00    +0.000 A 
ENDBRANCH  23  24
ENDBRANCH  15  23
TORSDOF 4
ENDMDL
MODEL 4
REMARK VINA RESULT:      -6.7      1.008      1.194
REMARK  Name = 
REMARK  6 active torsions:
REMARK  status: ('A' for Active; 'I' for Inactive)
REMARK    1  A    between atoms: C_1  and  C_2
REMARK    2  A    between atoms: C_2  and  C_3
REMARK    3  A    between atoms: C_2  and  C_4
REMARK    4  A    between atoms: C_4  and  C_5
REMARK    5  A    between atoms: N_19  and  C_20
REMARK    6  A    between atoms: C_20  and  C_21
REMARK                            x       y       z     vdW  Elec       q    Type
REMARK                         _______ _______ _______ _____ _____    ______ ____
ROOT
ATOM      1  C   UNL     1       1.612   8.936  18.486  0.00  0.00    +0.000 C 
ATOM      2  N   UNL     1       1.513   8.484  19.840  0.00  0.00    +0.000 N 
ATOM      3  C   UNL     1       0.681   9.231  20.641  0.00  0.00    +0.000 A 
ATOM      4  N   UNL     1       0.260   8.502  21.691  0.00  0.00    +0.000 NA
ATOM      5  C   UNL     1      -0.436   9.171  22.589  0.00  0.00    +0.000 A 
ATOM      6  N   UNL     1      -0.790  10.453  22.500  0.00  0.00    +0.000 NA
ATOM      7  C   UNL     1      -0.392  11.179  21.417  0.00  0.00    +0.000 A 
ATOM      8  N   UNL     1      -0.776  12.513  21.496  0.00  0.00    +0.000 N 
ATOM      9  C   UNL     1      -0.774  13.136  22.825  0.00  0.00    +0.000 C 
ATOM     10  C   UNL     1      -2.154  13.651  23.227  0.00  0.00    +0.000 C 
ATOM     11  C   UNL     1      -2.727  14.557  22.147  0.00  0.00    +0.000 C 
ATOM     12  C   UNL     1      -2.892  13.746  20.880  0.00  0.00    +0.000 C 
ATOM     13  C   UNL     1      -1.585  13.122  20.449  0.00  0.00    +0.000 C 
ATOM     14  C   UNL     1       0.410  10.591  20.397  0.00  0.00    +0.000 A 
ATOM     15  N   UNL     1       1.030  11.209  19.202  0.00  0.00    +0.000 N 
ATOM     16  C   UNL     1       1.867  10.437  18.379  0.00  0.00    +0.000 C 
ATOM     17  O   UNL     1       2.629  10.897  17.524  0.00  0.00    +0.000 OA
ATOM     18  H   UNL     1       1.340   7.495  20.008  0.00  0.00    +0.000 HD
ENDROOT
BRANCH   1  19
ATOM     19  C   UNL     1       2.620   8.070  17.759  0.00  0.00    +0.000 C 
BRANCH  19  21
ATOM     20  C   UNL     1       2.131   5.452  18.098  0.00  0.00    +0.000 C 
ATOM     21  C   UNL     1       3.037   6.672  18.317  0.00  0.00    +0.000 C 
ATOM     22  C   UNL     1       4.449   6.291  17.874  0.00  0.00    +0.000 C 
ENDBRANCH  19  21
ENDBRANCH   1  19
BRANCH  15  23
ATOM     23  C   UNL     1       0.741  12.571  18.824  0.00  0.00    +0.000 C 
BRANCH  23  24
ATOM     24  C   UNL     1       1.681  13.738  19.039  0.00  0.00    +0.000 A 
ATOM     25  C   UNL     1       2.057  14.144  20.336  0.00  0.00    +0.000 A 
ATOM     26  C   UNL     1       3.031  15.127  20.520  0.00  0.00    +0.000 A 
ATOM     27  C   UNL     1       3.636  15.719  19.415  0.00  0.00    +0.000 A 
ATOM     28  C   UNL     1       3.267  15.332  18.128  0.00  0.00    +0.000 A 
ATOM     29  C   UNL     1       2.294  14.349  17.940  0.00  0.00    +0.000 A 
ENDBRANCH  23  24
ENDBRANCH  15  23
TORSDOF 4
ENDMDL
MODEL 5
REMARK VINA RESULT:      -6.7      2.590      6.331
REMARK  Name = 
REMARK  6 active torsions:
REMARK  status: ('A' for Active; 'I' for Inactive)
REMARK    1  A    between atoms: C_1  and  C_2
REMARK    2  A    between atoms: C_2  and  C_3
REMARK    3  A    between atoms: C_2  and  C_4
REMARK    4  A    between atoms: C_4  and  C_5
REMARK    5  A    between atoms: N_19  and  C_20
REMARK    6  A    between atoms: C_20  and  C_21
REMARK                            x       y       z     vdW  Elec       q    Type
REMARK                         _______ _______ _______ _____ _____    ______ ____
ROOT
ATOM      1  C   UNL     1      -3.506  11.629  18.289  0.00  0.00    +0.000 C 
ATOM      2  N   UNL     1      -3.701  12.408  19.473  0.00  0.00    +0.000 N 
ATOM      3  C   UNL     1      -2.601  13.124  19.883  0.00  0.00    +0.000 A 
ATOM      4  N   UNL     1      -2.975  14.163  20.652  0.00  0.00    +0.000 NA
ATOM      5  C   UNL     1      -1.983  14.833  21.206  0.00  0.00    +0.000 A 
ATOM      6  N   UNL     1      -0.685  14.598  21.011  0.00  0.00    +0.000 NA
ATOM      7  C   UNL     1      -0.309  13.567  20.203  0.00  0.00    +0.000 A 
ATOM      8  N   UNL     1       1.070  13.402  20.151  0.00  0.00    +0.000 N 
ATOM      9  C   UNL     1       1.827  13.670  21.381  0.00  0.00    +0.000 C 
ATOM     10  C   UNL     1       2.858  14.781  21.197  0.00  0.00    +0.000 C 
ATOM     11  C   UNL     1       3.752  14.495  20.000  0.00  0.00    +0.000 C 
ATOM     12  C   UNL     1       2.891  14.460  18.757  0.00  0.00    +0.000 C 
ATOM     13  C   UNL     1       1.783  13.441  18.881  0.00  0.00    +0.000 C 
ATOM     14  C   UNL     1      -1.282  12.730  19.584  0.00  0.00    +0.000 A 
ATOM     15  N   UNL     1      -1.102  11.512  18.761  0.00  0.00    +0.000 N 
ATOM     16  C   UNL     1      -2.231  10.793  18.332  0.00  0.00    +0.000 C 
ATOM     17  O   UNL     1      -2.201   9.648  17.874  0.00  0.00    +0.000 OA
ATOM     18  H   UNL     1      -4.526  13.001  19.532  0.00  0.00    +0.000 HD
ENDROOT
BRANCH   1  19
ATOM     19  C   UNL     1      -4.770  10.841  18.014  0.00  0.00    +0.000 C 
BRANCH  19  21
ATOM     20  C   UNL     1      -7.124  12.127  17.906  0.00  0.00    +0.000 C 
ATOM     21  C   UNL     1      -6.131  11.240  18.670  0.00  0.00    +0.000 C 
ATOM     22  C   UNL     1      -6.890  10.014  19.173  0.00  0.00    +0.000 C 
ENDBRANCH  19  21
ENDBRANCH   1  19
BRANCH  15  23
ATOM     23  C   UNL     1       0.206  11.081  18.332  0.00  0.00    +0.000 C 
BRANCH  23  24
ATOM     24  C   UNL     1       0.853   9.773  18.735  0.00  0.00    +0.000 A 
ATOM     25  C   UNL     1       1.604   9.014  17.814  0.00  0.00    +0.000 A 
ATOM     26  C   UNL     1       2.313   7.887  18.231  0.00  0.00    +0.000 A 
ATOM     27  C   UNL     1       2.277   7.499  19.568  0.00  0.00    +0.000 A 
ATOM     28  C   UNL     1       1.531   8.236  20.486  0.00  0.00    +0.000 A 
ATOM     29  C   UNL     1       0.822   9.365  20.073  0.00  0.00    +0.000 A 
ENDBRANCH  23  24
ENDBRANCH  15  23
TORSDOF 4
ENDMDL
MODEL 6
REMARK VINA RESULT:      -6.6      1.809      2.906
REMARK  Name = 
REMARK  6 active torsions:
REMARK  status: ('A' for Active; 'I' for Inactive)
REMARK    1  A    between atoms: C_1  and  C_2
REMARK    2  A    between atoms: C_2  and  C_3
REMARK    3  A    between atoms: C_2  and  C_4
REMARK    4  A    between atoms: C_4  and  C_5
REMARK    5  A    between atoms: N_19  and  C_20
REMARK    6  A    between atoms: C_20  and  C_21
REMARK                            x       y       z     vdW  Elec       q    Type
REMARK                         _______ _______ _______ _____ _____    ______ ____
ROOT
ATOM      1  C   UNL     1       1.499   8.020  19.484  0.00  0.00    +0.000 C 
ATOM      2  N   UNL     1       1.790   8.189  20.875  0.00  0.00    +0.000 N 
ATOM      3  C   UNL     1       0.961   9.064  21.537  0.00  0.00    +0.000 A 
ATOM      4  N   UNL     1       0.963   8.804  22.858  0.00  0.00    +0.000 NA
ATOM      5  C   UNL     1       0.303   9.674  23.597  0.00  0.00    +0.000 A 
ATOM      6  N   UNL     1      -0.391  10.716  23.137  0.00  0.00    +0.000 NA
ATOM      7  C   UNL     1      -0.420  10.955  21.795  0.00  0.00    +0.000 A 
ATOM      8  N   UNL     1      -1.123  12.109  21.471  0.00  0.00    +0.000 N 
ATOM      9  C   UNL     1      -1.029  13.238  22.405  0.00  0.00    +0.000 C 
ATOM     10  C   UNL     1      -2.391  13.646  22.962  0.00  0.00    +0.000 C 
ATOM     11  C   UNL     1      -3.384  13.889  21.836  0.00  0.00    +0.000 C 
ATOM     12  C   UNL     1      -3.569  12.595  21.074  0.00  0.00    +0.000 C 
ATOM     13  C   UNL     1      -2.254  12.066  20.554  0.00  0.00    +0.000 C 
ATOM     14  C   UNL     1       0.295  10.120  20.888  0.00  0.00    +0.000 A 
ATOM     15  N   UNL     1       0.482  10.251  19.424  0.00  0.00    +0.000 N 
ATOM     16  C   UNL     1       1.318   9.345  18.750  0.00  0.00    +0.000 C 
ATOM     17  O   UNL     1       1.748   9.505  17.604  0.00  0.00    +0.000 OA
ATOM     18  H   UNL     1       1.923   7.357  21.446  0.00  0.00    +0.000 HD
ENDROOT
BRANCH   1  19
ATOM     19  C   UNL     1       2.540   7.099  18.880  0.00  0.00    +0.000 C 
BRANCH  19  21
ATOM     20  C   UNL     1       1.738   4.980  20.320  0.00  0.00    +0.000 C 
ATOM     21  C   UNL     1       2.481   5.554  19.106  0.00  0.00    +0.000 C 
ATOM     22  C   UNL     1       1.977   4.826  17.862  0.00  0.00    +0.000 C 
ENDBRANCH  19  21
ENDBRANCH   1  19
BRANCH  15  23
ATOM     23  C   UNL     1      -0.227  11.248  18.661  0.00  0.00    +0.000 C 
BRANCH  23  24
ATOM     24  C   UNL     1      -1.468  10.975  17.837  0.00  0.00    +0.000 A 
ATOM     25  C   UNL     1      -1.819  11.802  16.750  0.00  0.00    +0.000 A 
ATOM     26  C   UNL     1      -2.882  11.463  15.911  0.00  0.00    +0.000 A 
ATOM     27  C   UNL     1      -3.609  10.299  16.149  0.00  0.00    +0.000 A 
ATOM     28  C   UNL     1      -3.276   9.478  17.226  0.00  0.00    +0.000 A 
ATOM     29  C   UNL     1      -2.214   9.814  18.066  0.00  0.00    +0.000 A 
ENDBRANCH  23  24
ENDBRANCH  15  23
TORSDOF 4
ENDMDL
MODEL 7
REMARK VINA RESULT:      -6.6      7.655     10.295
REMARK  Name = 
REMARK  6 active torsions:
REMARK  status: ('A' for Active; 'I' for Inactive)
REMARK    1  A    between atoms: C_1  and  C_2
REMARK    2  A    between atoms: C_2  and  C_3
REMARK    3  A    between atoms: C_2  and  C_4
REMARK    4  A    between atoms: C_4  and  C_5
REMARK    5  A    between atoms: N_19  and  C_20
REMARK    6  A    between atoms: C_20  and  C_21
REMARK                            x       y       z     vdW  Elec       q    Type
REMARK                         _______ _______ _______ _____ _____    ______ ____
ROOT
ATOM      1  C   UNL     1       8.638  12.454  22.829  0.00  0.00    +0.000 C 
ATOM      2  N   UNL     1       9.509  11.701  21.979  0.00  0.00    +0.000 N 
ATOM      3  C   UNL     1      10.189  12.445  21.043  0.00  0.00    +0.000 A 
ATOM      4  N   UNL     1      11.299  11.798  20.645  0.00  0.00    +0.000 NA
ATOM      5  C   UNL     1      11.949  12.369  19.649  0.00  0.00    +0.000 A 
ATOM      6  N   UNL     1      11.628  13.529  19.076  0.00  0.00    +0.000 NA
ATOM      7  C   UNL     1      10.522  14.200  19.507  0.00  0.00    +0.000 A 
ATOM      8  N   UNL     1      10.275  15.354  18.773  0.00  0.00    +0.000 N 
ATOM      9  C   UNL     1      10.587  15.318  17.338  0.00  0.00    +0.000 C 
ATOM     10  C   UNL     1      11.622  16.369  16.943  0.00  0.00    +0.000 C 
ATOM     11  C   UNL     1      11.201  17.749  17.425  0.00  0.00    +0.000 C 
ATOM     12  C   UNL     1      11.125  17.726  18.936  0.00  0.00    +0.000 C 
ATOM     13  C   UNL     1      10.183  16.653  19.426  0.00  0.00    +0.000 C 
ATOM     14  C   UNL     1       9.700  13.667  20.542  0.00  0.00    +0.000 A 
ATOM     15  N   UNL     1       8.417  14.168  21.089  0.00  0.00    +0.000 N 
ATOM     16  C   UNL     1       7.735  13.411  22.057  0.00  0.00    +0.000 C 
ATOM     17  O   UNL     1       6.560  13.591  22.388  0.00  0.00    +0.000 OA
ATOM     18  H   UNL     1      10.151  11.039  22.409  0.00  0.00    +0.000 HD
ENDROOT
BRANCH   1  19
ATOM     19  C   UNL     1       7.905  11.493  23.744  0.00  0.00    +0.000 C 
BRANCH  19  21
ATOM     20  C   UNL     1       8.187  13.153  25.834  0.00  0.00    +0.000 C 
ATOM     21  C   UNL     1       7.664  11.834  25.249  0.00  0.00    +0.000 C 
ATOM     22  C   UNL     1       6.186  11.712  25.620  0.00  0.00    +0.000 C 
ENDBRANCH  19  21
ENDBRANCH   1  19
BRANCH  15  23
ATOM     23  C   UNL     1       7.883  15.449  20.699  0.00  0.00    +0.000 C 
BRANCH  23  24
ATOM     24  C   UNL     1       6.720  15.641  19.749  0.00  0.00    +0.000 A 
ATOM     25  C   UNL     1       6.557  14.814  18.618  0.00  0.00    +0.000 A 
ATOM     26  C   UNL     1       5.409  14.906  17.829  0.00  0.00    +0.000 A 
ATOM     27  C   UNL     1       4.415  15.825  18.154  0.00  0.00    +0.000 A 
ATOM     28  C   UNL     1       4.570  16.654  19.265  0.00  0.00    +0.000 A 
ATOM     29  C   UNL     1       5.715  16.564  20.057  0.00  0.00    +0.000 A 
ENDBRANCH  23  24
ENDBRANCH  15  23
TORSDOF 4
ENDMDL
MODEL 8
REMARK VINA RESULT:      -6.6      2.642      6.728
REMARK  Name = 
REMARK  6 active torsions:
REMARK  status: ('A' for Active; 'I' for Inactive)
REMARK    1  A    between atoms: C_1  and  C_2
REMARK    2  A    between atoms: C_2  and  C_3
REMARK    3  A    between atoms: C_2  and  C_4
REMARK    4  A    between atoms: C_4  and  C_5
REMARK    5  A    between atoms: N_19  and  C_20
REMARK    6  A    between atoms: C_20  and  C_21
REMARK                            x       y       z     vdW  Elec       q    Type
REMARK                         _______ _______ _______ _____ _____    ______ ____
ROOT
ATOM      1  C   UNL     1      -2.292  13.033  22.434  0.00  0.00    +0.000 C 
ATOM      2  N   UNL     1      -1.921  11.876  23.188  0.00  0.00    +0.000 N 
ATOM      3  C   UNL     1      -0.966  11.082  22.596  0.00  0.00    +0.000 A 
ATOM      4  N   UNL     1      -0.331  10.340  23.522  0.00  0.00    +0.000 NA
ATOM      5  C   UNL     1       0.511   9.447  23.039  0.00  0.00    +0.000 A 
ATOM      6  N   UNL     1       0.809   9.279  21.751  0.00  0.00    +0.000 NA
ATOM      7  C   UNL     1       0.191  10.056  20.818  0.00  0.00    +0.000 A 
ATOM      8  N   UNL     1       0.550   9.722  19.517  0.00  0.00    +0.000 N 
ATOM      9  C   UNL     1       0.792   8.302  19.231  0.00  0.00    +0.000 C 
ATOM     10  C   UNL     1       2.211   8.045  18.729  0.00  0.00    +0.000 C 
ATOM     11  C   UNL     1       2.540   8.953  17.554  0.00  0.00    +0.000 C 
ATOM     12  C   UNL     1       2.474  10.390  18.025  0.00  0.00    +0.000 C 
ATOM     13  C   UNL     1       1.124  10.714  18.619  0.00  0.00    +0.000 C 
ATOM     14  C   UNL     1      -0.781  11.026  21.201  0.00  0.00    +0.000 A 
ATOM     15  N   UNL     1      -1.637  11.896  20.362  0.00  0.00    +0.000 N 
ATOM     16  C   UNL     1      -2.600  12.717  20.973  0.00  0.00    +0.000 C 
ATOM     17  O   UNL     1      -3.525  13.276  20.378  0.00  0.00    +0.000 OA
ATOM     18  H   UNL     1      -1.694  11.992  24.173  0.00  0.00    +0.000 HD
ENDROOT
BRANCH   1  19
ATOM     19  C   UNL     1      -3.402  13.756  23.171  0.00  0.00    +0.000 C 
BRANCH  19  21
ATOM     20  C   UNL     1      -4.808  12.316  24.947  0.00  0.00    +0.000 C 
ATOM     21  C   UNL     1      -4.714  13.016  23.584  0.00  0.00    +0.000 C 
ATOM     22  C   UNL     1      -5.936  13.921  23.438  0.00  0.00    +0.000 C 
ENDBRANCH  19  21
ENDBRANCH   1  19
BRANCH  15  23
ATOM     23  C   UNL     1      -1.461  11.971  18.932  0.00  0.00    +0.000 C 
BRANCH  23  24
ATOM     24  C   UNL     1      -2.361  11.295  17.920  0.00  0.00    +0.000 A 
ATOM     25  C   UNL     1      -3.678  11.750  17.696  0.00  0.00    +0.000 A 
ATOM     26  C   UNL     1      -4.450  11.213  16.664  0.00  0.00    +0.000 A 
ATOM     27  C   UNL     1      -3.921  10.214  15.850  0.00  0.00    +0.000 A 
ATOM     28  C   UNL     1      -2.625   9.752  16.068  0.00  0.00    +0.000 A 
ATOM     29  C   UNL     1      -1.850  10.287  17.097  0.00  0.00    +0.000 A 
ENDBRANCH  23  24
ENDBRANCH  15  23
TORSDOF 4
ENDMDL
MODEL 9
REMARK VINA RESULT:      -6.5      3.051      5.129
REMARK  Name = 
REMARK  6 active torsions:
REMARK  status: ('A' for Active; 'I' for Inactive)
REMARK    1  A    between atoms: C_1  and  C_2
REMARK    2  A    between atoms: C_2  and  C_3
REMARK    3  A    between atoms: C_2  and  C_4
REMARK    4  A    between atoms: C_4  and  C_5
REMARK    5  A    between atoms: N_19  and  C_20
REMARK    6  A    between atoms: C_20  and  C_21
REMARK                            x       y       z     vdW  Elec       q    Type
REMARK                         _______ _______ _______ _____ _____    ______ ____
ROOT
ATOM      1  C   UNL     1      -0.181  11.336  18.738  0.00  0.00    +0.000 C 
ATOM      2  N   UNL     1      -0.941  10.691  17.712  0.00  0.00    +0.000 N 
ATOM      3  C   UNL     1      -2.243  11.119  17.600  0.00  0.00    +0.000 A 
ATOM      4  N   UNL     1      -2.719  10.859  16.369  0.00  0.00    +0.000 NA
ATOM      5  C   UNL     1      -4.003  11.110  16.204  0.00  0.00    +0.000 A 
ATOM      6  N   UNL     1      -4.814  11.642  17.119  0.00  0.00    +0.000 NA
ATOM      7  C   UNL     1      -4.320  11.937  18.355  0.00  0.00    +0.000 A 
ATOM      8  N   UNL     1      -5.294  12.419  19.221  0.00  0.00    +0.000 N 
ATOM      9  C   UNL     1      -6.643  11.853  19.098  0.00  0.00    +0.000 C 
ATOM     10  C   UNL     1      -7.691  12.914  18.770  0.00  0.00    +0.000 C 
ATOM     11  C   UNL     1      -7.618  14.067  19.760  0.00  0.00    +0.000 C 
ATOM     12  C   UNL     1      -6.256  14.716  19.641  0.00  0.00    +0.000 C 
ATOM     13  C   UNL     1      -5.147  13.716  19.867  0.00  0.00    +0.000 C 
ATOM     14  C   UNL     1      -2.959  11.666  18.682  0.00  0.00    +0.000 A 
ATOM     15  N   UNL     1      -2.246  11.810  19.973  0.00  0.00    +0.000 N 
ATOM     16  C   UNL     1      -0.911  11.385  20.077  0.00  0.00    +0.000 C 
ATOM     17  O   UNL     1      -0.309  11.217  21.141  0.00  0.00    +0.000 OA
ATOM     18  H   UNL     1      -0.533  10.615  16.783  0.00  0.00    +0.000 HD
ENDROOT
BRANCH   1  19
ATOM     19  C   UNL     1       1.196  10.705  18.791  0.00  0.00    +0.000 C 
BRANCH  19  21
ATOM     20  C   UNL     1       2.459   8.585  17.736  0.00  0.00    +0.000 C 
ATOM     21  C   UNL     1       1.381   9.159  18.666  0.00  0.00    +0.000 C 
ATOM     22  C   UNL     1       1.547   8.503  20.036  0.00  0.00    +0.000 C 
ENDBRANCH  19  21
ENDBRANCH   1  19
BRANCH  15  23
ATOM     23  C   UNL     1      -2.871  12.439  21.111  0.00  0.00    +0.000 C 
BRANCH  23  24
ATOM     24  C   UNL     1      -2.263  13.578  21.901  0.00  0.00    +0.000 A 
ATOM     25  C   UNL     1      -1.989  13.447  23.279  0.00  0.00    +0.000 A 
ATOM     26  C   UNL     1      -1.301  14.448  23.966  0.00  0.00    +0.000 A 
ATOM     27  C   UNL     1      -0.884  15.592  23.291  0.00  0.00    +0.000 A 
ATOM     28  C   UNL     1      -1.157  15.737  21.932  0.00  0.00    +0.000 A 
ATOM     29  C   UNL     1      -1.843  14.737  21.241  0.00  0.00    +0.000 A 
ENDBRANCH  23  24
ENDBRANCH  15  23
TORSDOF 4
ENDMDL
