MODEL 1
REMARK VINA RESULT:      -9.5      0.000      0.000
REMARK  Name = 
REMARK  9 active torsions:
REMARK  status: ('A' for Active; 'I' for Inactive)
REMARK    1  A    between atoms: C_6  and  C_7
REMARK    2  A    between atoms: C_10  and  O_11
REMARK    3  A    between atoms: C_12  and  C_13
REMARK    4  A    between atoms: C_12  and  C_14
REMARK    5  A    between atoms: C_14  and  O_15
REMARK    6  A    between atoms: C_16  and  C_17
REMARK    7  A    between atoms: C_17  and  C_18
REMARK    8  A    between atoms: C_24  and  O_25
REMARK    9  A    between atoms: O_25  and  C_26
REMARK                            x       y       z     vdW  Elec       q    Type
REMARK                         _______ _______ _______ _____ _____    ______ ____
ROOT
ATOM      1  C   UNL     1       1.874   7.833  18.725  0.00  0.00    +0.000 C 
ENDROOT
BRANCH   1  14
ATOM      2  C   UNL     1       4.044   7.438  16.584  0.00  0.00    +0.000 C 
ATOM      3  C   UNL     1       4.119   6.780  17.755  0.00  0.00    +0.000 C 
ATOM      4  C   UNL     1       5.264   5.820  18.010  0.00  0.00    +0.000 C 
ATOM      5  C   UNL     1       4.799   4.388  18.342  0.00  0.00    +0.000 C 
ATOM      6  C   UNL     1       3.701   4.353  19.423  0.00  0.00    +0.000 C 
ATOM      7  C   UNL     1       2.517   5.331  19.092  0.00  0.00    +0.000 C 
ATOM      8  C   UNL     1       1.801   4.957  17.755  0.00  0.00    +0.000 C 
ATOM      9  C   UNL     1       1.527   5.354  20.301  0.00  0.00    +0.000 C 
ATOM     10  C   UNL     1       1.344   4.119  21.179  0.00  0.00    +0.000 C 
ATOM     11  C   UNL     1       2.549   3.190  21.311  0.00  0.00    +0.000 C 
ATOM     12  C   UNL     1       3.233   2.916  19.942  0.00  0.00    +0.000 C 
ATOM     13  C   UNL     1       4.441   1.970  20.150  0.00  0.00    +0.000 C 
ATOM     14  C   UNL     1       3.075   6.825  18.880  0.00  0.00    +0.000 C 
BRANCH  11  15
ATOM     15  O   UNL     1       2.144   1.982  21.960  0.00  0.00    +0.000 OA
ATOM     16  H   UNL     1       1.176   1.901  21.916  0.00  0.00    +0.000 HD
ENDBRANCH  11  15
BRANCH  12  17
ATOM     17  C   UNL     1       2.239   2.106  19.070  0.00  0.00    +0.000 C 
BRANCH  17  18
ATOM     18  O   UNL     1       2.898   1.415  18.020  0.00  0.00    +0.000 OA
ATOM     19  H   UNL     1       3.569   2.020  17.657  0.00  0.00    +0.000 HD
ENDBRANCH  17  18
ENDBRANCH  12  17
ENDBRANCH   1  14
BRANCH   1  20
ATOM     20  C   UNL     1       1.579   8.819  19.820  0.00  0.00    +0.000 C 
ATOM     21  C   UNL     1       0.768   9.885  19.684  0.00  0.00    +0.000 C 
ATOM     22  C   UNL     1       0.774  10.941  20.722  0.00  0.00    +0.000 C 
ATOM     23  O   UNL     1       1.253  10.859  21.838  0.00  0.00    +0.000 OA
ATOM     24  O   UNL     1       0.243  12.070  20.188  0.00  0.00    +0.000 OA
ATOM     25  C   UNL     1      -0.021  11.872  18.798  0.00  0.00    +0.000 C 
ATOM     26  C   UNL     1      -0.043  10.373  18.526  0.00  0.00    +0.000 C 
BRANCH  26  27
ATOM     27  O   UNL     1      -1.367   9.827  18.604  0.00  0.00    +0.000 OA
BRANCH  27  28
ATOM     28  C   UNL     1      -2.233  10.101  17.556  0.00  0.00    +0.000 A 
ATOM     29  C   UNL     1      -2.018   9.621  16.252  0.00  0.00    +0.000 A 
ATOM     30  C   UNL     1      -2.866   9.977  15.211  0.00  0.00    +0.000 A 
ATOM     31  C   UNL     1      -3.947  10.804  15.463  0.00  0.00    +0.000 A 
ATOM     32  C   UNL     1      -4.194  11.282  16.757  0.00  0.00    +0.000 A 
ATOM     33  C   UNL     1      -5.306  12.088  17.006  0.00  0.00    +0.000 A 
ATOM     34  C   UNL     1      -5.569  12.540  18.292  0.00  0.00    +0.000 A 
ATOM     35  C   UNL     1      -4.681  12.173  19.286  0.00  0.00    +0.000 A 
ATOM     36  N   UNL     1      -3.589  11.402  19.085  0.00  0.00    +0.000 NA
ATOM     37  C   UNL     1      -3.330  10.943  17.836  0.00  0.00    +0.000 A 
ENDBRANCH  27  28
ENDBRANCH  26  27
ENDBRANCH   1  20
TORSDOF 7
ENDMDL
MODEL 2
REMARK VINA RESULT:      -8.9      3.152      5.152
REMARK  Name = 
REMARK  9 active torsions:
REMARK  status: ('A' for Active; 'I' for Inactive)
REMARK    1  A    between atoms: C_6  and  C_7
REMARK    2  A    between atoms: C_10  and  O_11
REMARK    3  A    between atoms: C_12  and  C_13
REMARK    4  A    between atoms: C_12  and  C_14
REMARK    5  A    between atoms: C_14  and  O_15
REMARK    6  A    between atoms: C_16  and  C_17
REMARK    7  A    between atoms: C_17  and  C_18
REMARK    8  A    between atoms: C_24  and  O_25
REMARK    9  A    between atoms: O_25  and  C_26
REMARK                            x       y       z     vdW  Elec       q    Type
REMARK                         _______ _______ _______ _____ _____    ______ ____
ROOT
ATOM      1  C   UNL     1       1.989   7.029  19.453  0.00  0.00    +0.000 C 
ENDROOT
BRANCH   1  14
ATOM      2  C   UNL     1       1.304   4.184  20.391  0.00  0.00    +0.000 C 
ATOM      3  C   UNL     1       1.780   4.392  19.150  0.00  0.00    +0.000 C 
ATOM      4  C   UNL     1       2.004   3.217  18.220  0.00  0.00    +0.000 C 
ATOM      5  C   UNL     1       3.456   3.105  17.715  0.00  0.00    +0.000 C 
ATOM      6  C   UNL     1       4.005   4.443  17.177  0.00  0.00    +0.000 C 
ATOM      7  C   UNL     1       3.788   5.619  18.195  0.00  0.00    +0.000 C 
ATOM      8  C   UNL     1       4.531   5.374  19.546  0.00  0.00    +0.000 C 
ATOM      9  C   UNL     1       4.226   6.959  17.519  0.00  0.00    +0.000 C 
ATOM     10  C   UNL     1       5.342   6.975  16.478  0.00  0.00    +0.000 C 
ATOM     11  C   UNL     1       5.513   5.710  15.641  0.00  0.00    +0.000 C 
ATOM     12  C   UNL     1       5.455   4.420  16.507  0.00  0.00    +0.000 C 
ATOM     13  C   UNL     1       5.636   3.180  15.597  0.00  0.00    +0.000 C 
ATOM     14  C   UNL     1       2.229   5.743  18.576  0.00  0.00    +0.000 C 
BRANCH  11  15
ATOM     15  O   UNL     1       6.730   5.800  14.895  0.00  0.00    +0.000 OA
ATOM     16  H   UNL     1       7.405   5.235  15.307  0.00  0.00    +0.000 HD
ENDBRANCH  11  15
BRANCH  12  17
ATOM     17  C   UNL     1       6.696   4.416  17.436  0.00  0.00    +0.000 C 
BRANCH  17  18
ATOM     18  O   UNL     1       7.884   4.087  16.733  0.00  0.00    +0.000 OA
ATOM     19  H   UNL     1       8.241   3.279  17.140  0.00  0.00    +0.000 HD
ENDBRANCH  17  18
ENDBRANCH  12  17
ENDBRANCH   1  14
BRANCH   1  20
ATOM     20  C   UNL     1       2.088   8.391  18.826  0.00  0.00    +0.000 C 
ATOM     21  C   UNL     1       1.275   9.424  19.120  0.00  0.00    +0.000 C 
ATOM     22  C   UNL     1       1.273  10.619  18.246  0.00  0.00    +0.000 C 
ATOM     23  O   UNL     1       2.106  10.906  17.406  0.00  0.00    +0.000 OA
ATOM     24  O   UNL     1       0.122  11.305  18.461  0.00  0.00    +0.000 OA
ATOM     25  C   UNL     1      -0.718  10.575  19.356  0.00  0.00    +0.000 C 
ATOM     26  C   UNL     1       0.141   9.549  20.086  0.00  0.00    +0.000 C 
BRANCH  26  27
ATOM     27  O   UNL     1       0.630  10.045  21.339  0.00  0.00    +0.000 OA
BRANCH  27  28
ATOM     28  C   UNL     1      -0.129  11.008  21.985  0.00  0.00    +0.000 A 
ATOM     29  C   UNL     1      -1.291  10.693  22.712  0.00  0.00    +0.000 A 
ATOM     30  C   UNL     1      -2.069  11.692  23.283  0.00  0.00    +0.000 A 
ATOM     31  C   UNL     1      -1.687  13.016  23.149  0.00  0.00    +0.000 A 
ATOM     32  C   UNL     1      -0.523  13.356  22.446  0.00  0.00    +0.000 A 
ATOM     33  C   UNL     1      -0.130  14.691  22.346  0.00  0.00    +0.000 A 
ATOM     34  C   UNL     1       1.037  15.028  21.673  0.00  0.00    +0.000 A 
ATOM     35  C   UNL     1       1.761  13.997  21.106  0.00  0.00    +0.000 A 
ATOM     36  N   UNL     1       1.410  12.693  21.173  0.00  0.00    +0.000 NA
ATOM     37  C   UNL     1       0.281  12.351  21.838  0.00  0.00    +0.000 A 
ENDBRANCH  27  28
ENDBRANCH  26  27
ENDBRANCH   1  20
TORSDOF 7
ENDMDL
MODEL 3
REMARK VINA RESULT:      -8.3      1.258      1.754
REMARK  Name = 
REMARK  9 active torsions:
REMARK  status: ('A' for Active; 'I' for Inactive)
REMARK    1  A    between atoms: C_6  and  C_7
REMARK    2  A    between atoms: C_10  and  O_11
REMARK    3  A    between atoms: C_12  and  C_13
REMARK    4  A    between atoms: C_12  and  C_14
REMARK    5  A    between atoms: C_14  and  O_15
REMARK    6  A    between atoms: C_16  and  C_17
REMARK    7  A    between atoms: C_17  and  C_18
REMARK    8  A    between atoms: C_24  and  O_25
REMARK    9  A    between atoms: O_25  and  C_26
REMARK                            x       y       z     vdW  Elec       q    Type
REMARK                         _______ _______ _______ _____ _____    ______ ____
ROOT
ATOM      1  C   UNL     1       0.864   7.428  20.027  0.00  0.00    +0.000 C 
ENDROOT
BRANCH   1  14
ATOM      2  C   UNL     1       1.738   8.948  17.503  0.00  0.00    +0.000 C 
ATOM      3  C   UNL     1       2.613   8.164  18.159  0.00  0.00    +0.000 C 
ATOM      4  C   UNL     1       4.027   8.008  17.637  0.00  0.00    +0.000 C 
ATOM      5  C   UNL     1       4.413   6.544  17.345  0.00  0.00    +0.000 C 
ATOM      6  C   UNL     1       4.068   5.593  18.509  0.00  0.00    +0.000 C 
ATOM      7  C   UNL     1       2.580   5.762  18.985  0.00  0.00    +0.000 C 
ATOM      8  C   UNL     1       1.558   5.427  17.853  0.00  0.00    +0.000 C 
ATOM      9  C   UNL     1       2.354   4.884  20.258  0.00  0.00    +0.000 C 
ATOM     10  C   UNL     1       3.131   3.584  20.453  0.00  0.00    +0.000 C 
ATOM     11  C   UNL     1       4.523   3.521  19.828  0.00  0.00    +0.000 C 
ATOM     12  C   UNL     1       4.540   4.073  18.375  0.00  0.00    +0.000 C 
ATOM     13  C   UNL     1       5.976   3.977  17.804  0.00  0.00    +0.000 C 
ATOM     14  C   UNL     1       2.295   7.295  19.384  0.00  0.00    +0.000 C 
BRANCH  11  15
ATOM     15  O   UNL     1       5.009   2.178  19.897  0.00  0.00    +0.000 OA
ATOM     16  H   UNL     1       5.365   1.918  19.031  0.00  0.00    +0.000 HD
ENDBRANCH  11  15
BRANCH  12  17
ATOM     17  C   UNL     1       3.697   3.115  17.494  0.00  0.00    +0.000 C 
BRANCH  17  18
ATOM     18  O   UNL     1       4.131   1.769  17.610  0.00  0.00    +0.000 OA
ATOM     19  H   UNL     1       3.380   1.204  17.359  0.00  0.00    +0.000 HD
ENDBRANCH  17  18
ENDBRANCH  12  17
ENDBRANCH   1  14
BRANCH   1  20
ATOM     20  C   UNL     1       0.655   8.338  21.206  0.00  0.00    +0.000 C 
ATOM     21  C   UNL     1       0.168   9.590  21.122  0.00  0.00    +0.000 C 
ATOM     22  C   UNL     1       0.274  10.491  22.292  0.00  0.00    +0.000 C 
ATOM     23  O   UNL     1       0.535  10.168  23.436  0.00  0.00    +0.000 OA
ATOM     24  O   UNL     1       0.133  11.770  21.861  0.00  0.00    +0.000 OA
ATOM     25  C   UNL     1       0.051  11.796  20.436  0.00  0.00    +0.000 C 
ATOM     26  C   UNL     1      -0.302  10.395  19.953  0.00  0.00    +0.000 C 
BRANCH  26  27
ATOM     27  O   UNL     1      -1.715  10.219  19.786  0.00  0.00    +0.000 OA
BRANCH  27  28
ATOM     28  C   UNL     1      -2.226  10.340  18.503  0.00  0.00    +0.000 A 
ATOM     29  C   UNL     1      -1.598   9.771  17.382  0.00  0.00    +0.000 A 
ATOM     30  C   UNL     1      -2.098   9.975  16.102  0.00  0.00    +0.000 A 
ATOM     31  C   UNL     1      -3.240  10.738  15.929  0.00  0.00    +0.000 A 
ATOM     32  C   UNL     1      -3.896  11.302  17.031  0.00  0.00    +0.000 A 
ATOM     33  C   UNL     1      -5.066  12.040  16.847  0.00  0.00    +0.000 A 
ATOM     34  C   UNL     1      -5.733  12.577  17.941  0.00  0.00    +0.000 A 
ATOM     35  C   UNL     1      -5.180  12.360  19.189  0.00  0.00    +0.000 A 
ATOM     36  N   UNL     1      -4.046  11.658  19.408  0.00  0.00    +0.000 NA
ATOM     37  C   UNL     1      -3.393  11.118  18.350  0.00  0.00    +0.000 A 
ENDBRANCH  27  28
ENDBRANCH  26  27
ENDBRANCH   1  20
TORSDOF 7
ENDMDL
MODEL 4
REMARK VINA RESULT:      -8.0      0.882      1.825
REMARK  Name = 
REMARK  9 active torsions:
REMARK  status: ('A' for Active; 'I' for Inactive)
REMARK    1  A    between atoms: C_6  and  C_7
REMARK    2  A    between atoms: C_10  and  O_11
REMARK    3  A    between atoms: C_12  and  C_13
REMARK    4  A    between atoms: C_12  and  C_14
REMARK    5  A    between atoms: C_14  and  O_15
REMARK    6  A    between atoms: C_16  and  C_17
REMARK    7  A    between atoms: C_17  and  C_18
REMARK    8  A    between atoms: C_24  and  O_25
REMARK    9  A    between atoms: O_25  and  C_26
REMARK                            x       y       z     vdW  Elec       q    Type
REMARK                         _______ _______ _______ _____ _____    ______ ____
ROOT
ATOM      1  C   UNL     1       2.341   7.824  18.604  0.00  0.00    +0.000 C 
ENDROOT
BRANCH   1  14
ATOM      2  C   UNL     1       4.462   7.177  16.477  0.00  0.00    +0.000 C 
ATOM      3  C   UNL     1       4.478   6.544  17.664  0.00  0.00    +0.000 C 
ATOM      4  C   UNL     1       5.529   5.489  17.944  0.00  0.00    +0.000 C 
ATOM      5  C   UNL     1       4.934   4.115  18.311  0.00  0.00    +0.000 C 
ATOM      6  C   UNL     1       3.838   4.209  19.392  0.00  0.00    +0.000 C 
ATOM      7  C   UNL     1       2.750   5.284  19.034  0.00  0.00    +0.000 C 
ATOM      8  C   UNL     1       2.001   4.945  17.706  0.00  0.00    +0.000 C 
ATOM      9  C   UNL     1       1.768   5.429  20.241  0.00  0.00    +0.000 C 
ATOM     10  C   UNL     1       1.471   4.238  21.149  0.00  0.00    +0.000 C 
ATOM     11  C   UNL     1       2.586   3.206  21.306  0.00  0.00    +0.000 C 
ATOM     12  C   UNL     1       3.240   2.835  19.946  0.00  0.00    +0.000 C 
ATOM     13  C   UNL     1       4.355   1.787  20.179  0.00  0.00    +0.000 C 
ATOM     14  C   UNL     1       3.443   6.714  18.785  0.00  0.00    +0.000 C 
BRANCH  11  15
ATOM     15  O   UNL     1       2.071   2.057  21.984  0.00  0.00    +0.000 OA
ATOM     16  H   UNL     1       1.485   2.343  22.705  0.00  0.00    +0.000 HD
ENDBRANCH  11  15
BRANCH  12  17
ATOM     17  C   UNL     1       2.174   2.099  19.093  0.00  0.00    +0.000 C 
BRANCH  17  18
ATOM     18  O   UNL     1       2.749   1.464  17.960  0.00  0.00    +0.000 OA
ATOM     19  H   UNL     1       2.718   2.105  17.228  0.00  0.00    +0.000 HD
ENDBRANCH  17  18
ENDBRANCH  12  17
ENDBRANCH   1  14
BRANCH   1  20
ATOM     20  C   UNL     1       1.865   8.608  19.795  0.00  0.00    +0.000 C 
ATOM     21  C   UNL     1       0.988   9.628  19.732  0.00  0.00    +0.000 C 
ATOM     22  C   UNL     1       0.812  10.508  20.909  0.00  0.00    +0.000 C 
ATOM     23  O   UNL     1       1.187  10.285  22.045  0.00  0.00    +0.000 OA
ATOM     24  O   UNL     1       0.245  11.670  20.494  0.00  0.00    +0.000 OA
ATOM     25  C   UNL     1       0.132  11.673  19.070  0.00  0.00    +0.000 C 
ATOM     26  C   UNL     1       0.255  10.236  18.579  0.00  0.00    +0.000 C 
BRANCH  26  27
ATOM     27  O   UNL     1      -1.022   9.601  18.435  0.00  0.00    +0.000 OA
BRANCH  27  28
ATOM     28  C   UNL     1      -2.116  10.416  18.184  0.00  0.00    +0.000 A 
ATOM     29  C   UNL     1      -2.685  11.243  19.169  0.00  0.00    +0.000 A 
ATOM     30  C   UNL     1      -3.825  11.989  18.903  0.00  0.00    +0.000 A 
ATOM     31  C   UNL     1      -4.403  11.930  17.646  0.00  0.00    +0.000 A 
ATOM     32  C   UNL     1      -3.846  11.128  16.641  0.00  0.00    +0.000 A 
ATOM     33  C   UNL     1      -4.417  11.102  15.368  0.00  0.00    +0.000 A 
ATOM     34  C   UNL     1      -3.851  10.330  14.363  0.00  0.00    +0.000 A 
ATOM     35  C   UNL     1      -2.729   9.591  14.688  0.00  0.00    +0.000 A 
ATOM     36  N   UNL     1      -2.151   9.582  15.910  0.00  0.00    +0.000 NA
ATOM     37  C   UNL     1      -2.686  10.343  16.895  0.00  0.00    +0.000 A 
ENDBRANCH  27  28
ENDBRANCH  26  27
ENDBRANCH   1  20
TORSDOF 7
ENDMDL
MODEL 5
REMARK VINA RESULT:      -7.9      0.874      1.022
REMARK  Name = 
REMARK  9 active torsions:
REMARK  status: ('A' for Active; 'I' for Inactive)
REMARK    1  A    between atoms: C_6  and  C_7
REMARK    2  A    between atoms: C_10  and  O_11
REMARK    3  A    between atoms: C_12  and  C_13
REMARK    4  A    between atoms: C_12  and  C_14
REMARK    5  A    between atoms: C_14  and  O_15
REMARK    6  A    between atoms: C_16  and  C_17
REMARK    7  A    between atoms: C_17  and  C_18
REMARK    8  A    between atoms: C_24  and  O_25
REMARK    9  A    between atoms: O_25  and  C_26
REMARK                            x       y       z     vdW  Elec       q    Type
REMARK                         _______ _______ _______ _____ _____    ______ ____
ROOT
ATOM      1  C   UNL     1       1.087   7.982  20.034  0.00  0.00    +0.000 C 
ENDROOT
BRANCH   1  14
ATOM      2  C   UNL     1       2.362   8.689  17.329  0.00  0.00    +0.000 C 
ATOM      3  C   UNL     1       2.980   7.837  18.167  0.00  0.00    +0.000 C 
ATOM      4  C   UNL     1       4.296   7.203  17.765  0.00  0.00    +0.000 C 
ATOM      5  C   UNL     1       4.259   5.661  17.771  0.00  0.00    +0.000 C 
ATOM      6  C   UNL     1       3.656   5.084  19.068  0.00  0.00    +0.000 C 
ATOM      7  C   UNL     1       2.273   5.741  19.417  0.00  0.00    +0.000 C 
ATOM      8  C   UNL     1       1.203   5.488  18.308  0.00  0.00    +0.000 C 
ATOM      9  C   UNL     1       1.805   5.221  20.815  0.00  0.00    +0.000 C 
ATOM     10  C   UNL     1       2.187   3.821  21.290  0.00  0.00    +0.000 C 
ATOM     11  C   UNL     1       3.508   3.260  20.769  0.00  0.00    +0.000 C 
ATOM     12  C   UNL     1       3.685   3.496  19.243  0.00  0.00    +0.000 C 
ATOM     13  C   UNL     1       5.040   2.903  18.783  0.00  0.00    +0.000 C 
ATOM     14  C   UNL     1       2.426   7.341  19.511  0.00  0.00    +0.000 C 
BRANCH  11  15
ATOM     15  O   UNL     1       3.599   1.875  21.111  0.00  0.00    +0.000 OA
ATOM     16  H   UNL     1       2.899   1.381  20.652  0.00  0.00    +0.000 HD
ENDBRANCH  11  15
BRANCH  12  17
ATOM     17  C   UNL     1       2.612   2.654  18.505  0.00  0.00    +0.000 C 
BRANCH  17  18
ATOM     18  O   UNL     1       3.035   1.314  18.307  0.00  0.00    +0.000 OA
ATOM     19  H   UNL     1       2.754   0.808  19.090  0.00  0.00    +0.000 HD
ENDBRANCH  17  18
ENDBRANCH  12  17
ENDBRANCH   1  14
BRANCH   1  20
ATOM     20  C   UNL     1       1.101   9.359  20.636  0.00  0.00    +0.000 C 
ATOM     21  C   UNL     1       0.555  10.446  20.058  0.00  0.00    +0.000 C 
ATOM     22  C   UNL     1       0.875  11.790  20.591  0.00  0.00    +0.000 C 
ATOM     23  O   UNL     1       1.392  12.042  21.663  0.00  0.00    +0.000 OA
ATOM     24  O   UNL     1       0.588  12.709  19.634  0.00  0.00    +0.000 OA
ATOM     25  C   UNL     1       0.197  12.049  18.429  0.00  0.00    +0.000 C 
ATOM     26  C   UNL     1      -0.193  10.617  18.775  0.00  0.00    +0.000 C 
BRANCH  26  27
ATOM     27  O   UNL     1      -1.600  10.482  19.017  0.00  0.00    +0.000 OA
BRANCH  27  28
ATOM     28  C   UNL     1      -2.446  10.553  17.922  0.00  0.00    +0.000 A 
ATOM     29  C   UNL     1      -2.148   9.937  16.694  0.00  0.00    +0.000 A 
ATOM     30  C   UNL     1      -2.983  10.092  15.594  0.00  0.00    +0.000 A 
ATOM     31  C   UNL     1      -4.133  10.852  15.713  0.00  0.00    +0.000 A 
ATOM     32  C   UNL     1      -4.464  11.462  16.931  0.00  0.00    +0.000 A 
ATOM     33  C   UNL     1      -5.644  12.198  17.048  0.00  0.00    +0.000 A 
ATOM     34  C   UNL     1      -5.987  12.781  18.261  0.00  0.00    +0.000 A 
ATOM     35  C   UNL     1      -5.110  12.612  19.316  0.00  0.00    +0.000 A 
ATOM     36  N   UNL     1      -3.954  11.915  19.241  0.00  0.00    +0.000 NA
ATOM     37  C   UNL     1      -3.615  11.330  18.066  0.00  0.00    +0.000 A 
ENDBRANCH  27  28
ENDBRANCH  26  27
ENDBRANCH   1  20
TORSDOF 7
ENDMDL
MODEL 6
REMARK VINA RESULT:      -7.9      3.289      4.714
REMARK  Name = 
REMARK  9 active torsions:
REMARK  status: ('A' for Active; 'I' for Inactive)
REMARK    1  A    between atoms: C_6  and  C_7
REMARK    2  A    between atoms: C_10  and  O_11
REMARK    3  A    between atoms: C_12  and  C_13
REMARK    4  A    between atoms: C_12  and  C_14
REMARK    5  A    between atoms: C_14  and  O_15
REMARK    6  A    between atoms: C_16  and  C_17
REMARK    7  A    between atoms: C_17  and  C_18
REMARK    8  A    between atoms: C_24  and  O_25
REMARK    9  A    between atoms: O_25  and  C_26
REMARK                            x       y       z     vdW  Elec       q    Type
REMARK                         _______ _______ _______ _____ _____    ______ ____
ROOT
ATOM      1  C   UNL     1       2.285   7.475  19.344  0.00  0.00    +0.000 C 
ENDROOT
BRANCH   1  14
ATOM      2  C   UNL     1       1.453   4.740  20.472  0.00  0.00    +0.000 C 
ATOM      3  C   UNL     1       1.891   4.846  19.204  0.00  0.00    +0.000 C 
ATOM      4  C   UNL     1       2.000   3.608  18.337  0.00  0.00    +0.000 C 
ATOM      5  C   UNL     1       3.420   3.370  17.786  0.00  0.00    +0.000 C 
ATOM      6  C   UNL     1       4.033   4.635  17.152  0.00  0.00    +0.000 C 
ATOM      7  C   UNL     1       3.936   5.879  18.106  0.00  0.00    +0.000 C 
ATOM      8  C   UNL     1       4.715   5.659  19.441  0.00  0.00    +0.000 C 
ATOM      9  C   UNL     1       4.432   7.145  17.337  0.00  0.00    +0.000 C 
ATOM     10  C   UNL     1       5.505   7.028  16.257  0.00  0.00    +0.000 C 
ATOM     11  C   UNL     1       5.558   5.709  15.490  0.00  0.00    +0.000 C 
ATOM     12  C   UNL     1       5.450   4.476  16.431  0.00  0.00    +0.000 C 
ATOM     13  C   UNL     1       5.513   3.178  15.590  0.00  0.00    +0.000 C 
ATOM     14  C   UNL     1       2.405   6.129  18.536  0.00  0.00    +0.000 C 
BRANCH  11  15
ATOM     15  O   UNL     1       6.747   5.674  14.696  0.00  0.00    +0.000 OA
ATOM     16  H   UNL     1       6.577   5.171  13.881  0.00  0.00    +0.000 HD
ENDBRANCH  11  15
BRANCH  12  17
ATOM     17  C   UNL     1       6.725   4.441  17.313  0.00  0.00    +0.000 C 
BRANCH  17  18
ATOM     18  O   UNL     1       7.874   4.067  16.569  0.00  0.00    +0.000 OA
ATOM     19  H   UNL     1       8.508   4.802  16.636  0.00  0.00    +0.000 HD
ENDBRANCH  17  18
ENDBRANCH  12  17
ENDBRANCH   1  14
BRANCH   1  20
ATOM     20  C   UNL     1       1.106   7.702  20.250  0.00  0.00    +0.000 C 
ATOM     21  C   UNL     1       0.741   8.905  20.734  0.00  0.00    +0.000 C 
ATOM     22  C   UNL     1      -0.246   8.975  21.835  0.00  0.00    +0.000 C 
ATOM     23  O   UNL     1      -0.976   8.078  22.214  0.00  0.00    +0.000 OA
ATOM     24  O   UNL     1      -0.135  10.189  22.432  0.00  0.00    +0.000 OA
ATOM     25  C   UNL     1       0.960  10.909  21.867  0.00  0.00    +0.000 C 
ATOM     26  C   UNL     1       1.311  10.271  20.529  0.00  0.00    +0.000 C 
BRANCH  26  27
ATOM     27  O   UNL     1       0.644  10.910  19.432  0.00  0.00    +0.000 OA
BRANCH  27  28
ATOM     28  C   UNL     1       1.118  12.149  19.030  0.00  0.00    +0.000 A 
ATOM     29  C   UNL     1       2.343  12.310  18.360  0.00  0.00    +0.000 A 
ATOM     30  C   UNL     1       2.823  13.574  18.039  0.00  0.00    +0.000 A 
ATOM     31  C   UNL     1       2.077  14.691  18.372  0.00  0.00    +0.000 A 
ATOM     32  C   UNL     1       0.844  14.559  19.025  0.00  0.00    +0.000 A 
ATOM     33  C   UNL     1       0.084  15.691  19.324  0.00  0.00    +0.000 A 
ATOM     34  C   UNL     1      -1.150  15.561  19.946  0.00  0.00    +0.000 A 
ATOM     35  C   UNL     1      -1.569  14.281  20.261  0.00  0.00    +0.000 A 
ATOM     36  N   UNL     1      -0.860  13.161  19.995  0.00  0.00    +0.000 NA
ATOM     37  C   UNL     1       0.340  13.275  19.376  0.00  0.00    +0.000 A 
ENDBRANCH  27  28
ENDBRANCH  26  27
ENDBRANCH   1  20
TORSDOF 7
ENDMDL
MODEL 7
REMARK VINA RESULT:      -7.9      3.045      4.938
REMARK  Name = 
REMARK  9 active torsions:
REMARK  status: ('A' for Active; 'I' for Inactive)
REMARK    1  A    between atoms: C_6  and  C_7
REMARK    2  A    between atoms: C_10  and  O_11
REMARK    3  A    between atoms: C_12  and  C_13
REMARK    4  A    between atoms: C_12  and  C_14
REMARK    5  A    between atoms: C_14  and  O_15
REMARK    6  A    between atoms: C_16  and  C_17
REMARK    7  A    between atoms: C_17  and  C_18
REMARK    8  A    between atoms: C_24  and  O_25
REMARK    9  A    between atoms: O_25  and  C_26
REMARK                            x       y       z     vdW  Elec       q    Type
REMARK                         _______ _______ _______ _____ _____    ______ ____
ROOT
ATOM      1  C   UNL     1       1.974   7.090  19.463  0.00  0.00    +0.000 C 
ENDROOT
BRANCH   1  14
ATOM      2  C   UNL     1       1.328   4.261  20.474  0.00  0.00    +0.000 C 
ATOM      3  C   UNL     1       1.785   4.445  19.222  0.00  0.00    +0.000 C 
ATOM      4  C   UNL     1       2.008   3.252  18.315  0.00  0.00    +0.000 C 
ATOM      5  C   UNL     1       3.454   3.143  17.792  0.00  0.00    +0.000 C 
ATOM      6  C   UNL     1       3.983   4.472  17.217  0.00  0.00    +0.000 C 
ATOM      7  C   UNL     1       3.769   5.670  18.211  0.00  0.00    +0.000 C 
ATOM      8  C   UNL     1       4.533   5.461  19.557  0.00  0.00    +0.000 C 
ATOM      9  C   UNL     1       4.184   6.998  17.500  0.00  0.00    +0.000 C 
ATOM     10  C   UNL     1       5.286   7.001  16.443  0.00  0.00    +0.000 C 
ATOM     11  C   UNL     1       5.458   5.719  15.632  0.00  0.00    +0.000 C 
ATOM     12  C   UNL     1       5.423   4.448  16.527  0.00  0.00    +0.000 C 
ATOM     13  C   UNL     1       5.604   3.190  15.643  0.00  0.00    +0.000 C 
ATOM     14  C   UNL     1       2.214   5.788  18.612  0.00  0.00    +0.000 C 
BRANCH  11  15
ATOM     15  O   UNL     1       6.663   5.804  14.867  0.00  0.00    +0.000 OA
ATOM     16  H   UNL     1       6.999   4.908  14.693  0.00  0.00    +0.000 HD
ENDBRANCH  11  15
BRANCH  12  17
ATOM     17  C   UNL     1       6.677   4.477  17.439  0.00  0.00    +0.000 C 
BRANCH  17  18
ATOM     18  O   UNL     1       7.851   4.095  16.738  0.00  0.00    +0.000 OA
ATOM     19  H   UNL     1       8.098   4.844  16.167  0.00  0.00    +0.000 HD
ENDBRANCH  17  18
ENDBRANCH  12  17
ENDBRANCH   1  14
BRANCH   1  20
ATOM     20  C   UNL     1       2.108   8.441  18.818  0.00  0.00    +0.000 C 
ATOM     21  C   UNL     1       1.288   9.483  19.057  0.00  0.00    +0.000 C 
ATOM     22  C   UNL     1       1.332  10.662  18.164  0.00  0.00    +0.000 C 
ATOM     23  O   UNL     1       2.203  10.930  17.357  0.00  0.00    +0.000 OA
ATOM     24  O   UNL     1       0.176  11.357  18.316  0.00  0.00    +0.000 OA
ATOM     25  C   UNL     1      -0.706  10.647  19.185  0.00  0.00    +0.000 C 
ATOM     26  C   UNL     1       0.114   9.630  19.970  0.00  0.00    +0.000 C 
BRANCH  26  27
ATOM     27  O   UNL     1       0.550  10.145  21.235  0.00  0.00    +0.000 OA
BRANCH  27  28
ATOM     28  C   UNL     1       0.514  11.520  21.411  0.00  0.00    +0.000 A 
ATOM     29  C   UNL     1       1.509  12.375  20.905  0.00  0.00    +0.000 A 
ATOM     30  C   UNL     1       1.480  13.739  21.165  0.00  0.00    +0.000 A 
ATOM     31  C   UNL     1       0.449  14.268  21.922  0.00  0.00    +0.000 A 
ATOM     32  C   UNL     1      -0.566  13.441  22.423  0.00  0.00    +0.000 A 
ATOM     33  C   UNL     1      -1.619  13.991  23.156  0.00  0.00    +0.000 A 
ATOM     34  C   UNL     1      -2.640  13.178  23.630  0.00  0.00    +0.000 A 
ATOM     35  C   UNL     1      -2.550  11.825  23.360  0.00  0.00    +0.000 A 
ATOM     36  N   UNL     1      -1.544  11.253  22.662  0.00  0.00    +0.000 NA
ATOM     37  C   UNL     1      -0.549  12.038  22.182  0.00  0.00    +0.000 A 
ENDBRANCH  27  28
ENDBRANCH  26  27
ENDBRANCH   1  20
TORSDOF 7
ENDMDL
MODEL 8
REMARK VINA RESULT:      -7.9      2.605      3.950
REMARK  Name = 
REMARK  9 active torsions:
REMARK  status: ('A' for Active; 'I' for Inactive)
REMARK    1  A    between atoms: C_6  and  C_7
REMARK    2  A    between atoms: C_10  and  O_11
REMARK    3  A    between atoms: C_12  and  C_13
REMARK    4  A    between atoms: C_12  and  C_14
REMARK    5  A    between atoms: C_14  and  O_15
REMARK    6  A    between atoms: C_16  and  C_17
REMARK    7  A    between atoms: C_17  and  C_18
REMARK    8  A    between atoms: C_24  and  O_25
REMARK    9  A    between atoms: O_25  and  C_26
REMARK                            x       y       z     vdW  Elec       q    Type
REMARK                         _______ _______ _______ _____ _____    ______ ____
ROOT
ATOM      1  C   UNL     1       2.076   7.703  18.488  0.00  0.00    +0.000 C 
ENDROOT
BRANCH   1  14
ATOM      2  C   UNL     1       4.359   7.148  16.507  0.00  0.00    +0.000 C 
ATOM      3  C   UNL     1       4.356   6.564  17.719  0.00  0.00    +0.000 C 
ATOM      4  C   UNL     1       5.468   5.607  18.099  0.00  0.00    +0.000 C 
ATOM      5  C   UNL     1       4.961   4.205  18.490  0.00  0.00    +0.000 C 
ATOM      6  C   UNL     1       3.802   4.251  19.505  0.00  0.00    +0.000 C 
ATOM      7  C   UNL     1       2.655   5.221  19.045  0.00  0.00    +0.000 C 
ATOM      8  C   UNL     1       2.012   4.775  17.694  0.00  0.00    +0.000 C 
ATOM      9  C   UNL     1       1.597   5.332  20.190  0.00  0.00    +0.000 C 
ATOM     10  C   UNL     1       1.343   4.156  21.130  0.00  0.00    +0.000 C 
ATOM     11  C   UNL     1       2.524   3.223  21.390  0.00  0.00    +0.000 C 
ATOM     12  C   UNL     1       3.281   2.855  20.083  0.00  0.00    +0.000 C 
ATOM     13  C   UNL     1       4.460   1.909  20.419  0.00  0.00    +0.000 C 
ATOM     14  C   UNL     1       3.249   6.693  18.775  0.00  0.00    +0.000 C 
BRANCH  11  15
ATOM     15  O   UNL     1       2.062   2.063  22.086  0.00  0.00    +0.000 OA
ATOM     16  H   UNL     1       2.439   1.267  21.675  0.00  0.00    +0.000 HD
ENDBRANCH  11  15
BRANCH  12  17
ATOM     17  C   UNL     1       2.327   2.005  19.205  0.00  0.00    +0.000 C 
BRANCH  17  18
ATOM     18  O   UNL     1       3.009   1.391  18.123  0.00  0.00    +0.000 OA
ATOM     19  H   UNL     1       2.345   0.894  17.613  0.00  0.00    +0.000 HD
ENDBRANCH  17  18
ENDBRANCH  12  17
ENDBRANCH   1  14
BRANCH   1  20
ATOM     20  C   UNL     1       2.385   9.145  18.195  0.00  0.00    +0.000 C 
ATOM     21  C   UNL     1       1.647  10.184  18.631  0.00  0.00    +0.000 C 
ATOM     22  C   UNL     1       1.870  11.528  18.051  0.00  0.00    +0.000 C 
ATOM     23  O   UNL     1       2.824  11.881  17.383  0.00  0.00    +0.000 OA
ATOM     24  O   UNL     1       0.774  12.289  18.300  0.00  0.00    +0.000 OA
ATOM     25  C   UNL     1      -0.237  11.495  18.922  0.00  0.00    +0.000 C 
ATOM     26  C   UNL     1       0.421  10.241  19.484  0.00  0.00    +0.000 C 
BRANCH  26  27
ATOM     27  O   UNL     1       0.799  10.396  20.858  0.00  0.00    +0.000 OA
BRANCH  27  28
ATOM     28  C   UNL     1      -0.003  11.200  21.654  0.00  0.00    +0.000 A 
ATOM     29  C   UNL     1      -1.162  10.721  22.289  0.00  0.00    +0.000 A 
ATOM     30  C   UNL     1      -1.982  11.573  23.018  0.00  0.00    +0.000 A 
ATOM     31  C   UNL     1      -1.646  12.911  23.133  0.00  0.00    +0.000 A 
ATOM     32  C   UNL     1      -0.487  13.411  22.524  0.00  0.00    +0.000 A 
ATOM     33  C   UNL     1      -0.140  14.755  22.675  0.00  0.00    +0.000 A 
ATOM     34  C   UNL     1       1.022  15.247  22.097  0.00  0.00    +0.000 A 
ATOM     35  C   UNL     1       1.790  14.360  21.365  0.00  0.00    +0.000 A 
ATOM     36  N   UNL     1       1.485  13.055  21.189  0.00  0.00    +0.000 NA
ATOM     37  C   UNL     1       0.360  12.560  21.760  0.00  0.00    +0.000 A 
ENDBRANCH  27  28
ENDBRANCH  26  27
ENDBRANCH   1  20
TORSDOF 7
ENDMDL
MODEL 9
REMARK VINA RESULT:      -7.8      3.196      4.996
REMARK  Name = 
REMARK  9 active torsions:
REMARK  status: ('A' for Active; 'I' for Inactive)
REMARK    1  A    between atoms: C_6  and  C_7
REMARK    2  A    between atoms: C_10  and  O_11
REMARK    3  A    between atoms: C_12  and  C_13
REMARK    4  A    between atoms: C_12  and  C_14
REMARK    5  A    between atoms: C_14  and  O_15
REMARK    6  A    between atoms: C_16  and  C_17
REMARK    7  A    between atoms: C_17  and  C_18
REMARK    8  A    between atoms: C_24  and  O_25
REMARK    9  A    between atoms: O_25  and  C_26
REMARK                            x       y       z     vdW  Elec       q    Type
REMARK                         _______ _______ _______ _____ _____    ______ ____
ROOT
ATOM      1  C   UNL     1       2.320   7.472  19.396  0.00  0.00    +0.000 C 
ENDROOT
BRANCH   1  14
ATOM      2  C   UNL     1       1.519   4.741  20.557  0.00  0.00    +0.000 C 
ATOM      3  C   UNL     1       1.938   4.839  19.282  0.00  0.00    +0.000 C 
ATOM      4  C   UNL     1       2.042   3.595  18.423  0.00  0.00    +0.000 C 
ATOM      5  C   UNL     1       3.455   3.361  17.853  0.00  0.00    +0.000 C 
ATOM      6  C   UNL     1       4.052   4.624  17.200  0.00  0.00    +0.000 C 
ATOM      7  C   UNL     1       3.961   5.874  18.145  0.00  0.00    +0.000 C 
ATOM      8  C   UNL     1       4.761   5.670  19.471  0.00  0.00    +0.000 C 
ATOM      9  C   UNL     1       4.439   7.138  17.360  0.00  0.00    +0.000 C 
ATOM     10  C   UNL     1       5.496   7.018  16.265  0.00  0.00    +0.000 C 
ATOM     11  C   UNL     1       5.546   5.693  15.507  0.00  0.00    +0.000 C 
ATOM     12  C   UNL     1       5.459   4.467  16.460  0.00  0.00    +0.000 C 
ATOM     13  C   UNL     1       5.516   3.163  15.628  0.00  0.00    +0.000 C 
ATOM     14  C   UNL     1       2.435   6.120  18.597  0.00  0.00    +0.000 C 
BRANCH  11  15
ATOM     15  O   UNL     1       6.723   5.659  14.696  0.00  0.00    +0.000 OA
ATOM     16  H   UNL     1       7.492   5.446  15.251  0.00  0.00    +0.000 HD
ENDBRANCH  11  15
BRANCH  12  17
ATOM     17  C   UNL     1       6.746   4.445  17.323  0.00  0.00    +0.000 C 
BRANCH  17  18
ATOM     18  O   UNL     1       7.888   4.078  16.564  0.00  0.00    +0.000 OA
ATOM     19  H   UNL     1       8.570   4.752  16.731  0.00  0.00    +0.000 HD
ENDBRANCH  17  18
ENDBRANCH  12  17
ENDBRANCH   1  14
BRANCH   1  20
ATOM     20  C   UNL     1       1.139   7.711  20.295  0.00  0.00    +0.000 C 
ATOM     21  C   UNL     1       0.739   8.926  20.716  0.00  0.00    +0.000 C 
ATOM     22  C   UNL     1      -0.245   9.025  21.818  0.00  0.00    +0.000 C 
ATOM     23  O   UNL     1      -0.945   8.127  22.250  0.00  0.00    +0.000 OA
ATOM     24  O   UNL     1      -0.169  10.272  22.349  0.00  0.00    +0.000 OA
ATOM     25  C   UNL     1       0.901  10.994  21.739  0.00  0.00    +0.000 C 
ATOM     26  C   UNL     1       1.265  10.296  20.434  0.00  0.00    +0.000 C 
BRANCH  26  27
ATOM     27  O   UNL     1       0.573  10.854  19.309  0.00  0.00    +0.000 OA
BRANCH  27  28
ATOM     28  C   UNL     1       0.187  12.183  19.392  0.00  0.00    +0.000 A 
ATOM     29  C   UNL     1      -1.097  12.574  19.811  0.00  0.00    +0.000 A 
ATOM     30  C   UNL     1      -1.473  13.911  19.810  0.00  0.00    +0.000 A 
ATOM     31  C   UNL     1      -0.566  14.875  19.404  0.00  0.00    +0.000 A 
ATOM     32  C   UNL     1       0.726  14.515  18.999  0.00  0.00    +0.000 A 
ATOM     33  C   UNL     1       1.643  15.499  18.625  0.00  0.00    +0.000 A 
ATOM     34  C   UNL     1       2.932  15.146  18.250  0.00  0.00    +0.000 A 
ATOM     35  C   UNL     1       3.246  13.800  18.249  0.00  0.00    +0.000 A 
ATOM     36  N   UNL     1       2.386  12.817  18.596  0.00  0.00    +0.000 NA
ATOM     37  C   UNL     1       1.128  13.150  18.978  0.00  0.00    +0.000 A 
ENDBRANCH  27  28
ENDBRANCH  26  27
ENDBRANCH   1  20
TORSDOF 7
ENDMDL
