MODEL 1
REMARK VINA RESULT:      -9.1      0.000      0.000
REMARK  Name = 
REMARK  5 active torsions:
REMARK  status: ('A' for Active; 'I' for Inactive)
REMARK    1  A    between atoms: C_1  and  C_2
REMARK    2  A    between atoms: C_5  and  C_6
REMARK    3  A    between atoms: N_8  and  S_9
REMARK    4  A    between atoms: S_9  and  C_10
REMARK    5  A    between atoms: C_13  and  C_14
REMARK                            x       y       z     vdW  Elec       q    Type
REMARK                         _______ _______ _______ _____ _____    ______ ____
ROOT
ATOM      1  C   UNL     1       2.696   5.917  18.962  0.00  0.00    +0.000 C 
ATOM      2  N   UNL     1       2.099   4.951  18.319  0.00  0.00    +0.000 NA
ATOM      3  N   UNL     1       2.935   3.713  18.580  0.00  0.00    +0.000 N 
ATOM      4  C   UNL     1       4.279   4.217  19.032  0.00  0.00    +0.000 C 
ATOM      5  C   UNL     1       3.879   5.472  19.791  0.00  0.00    +0.000 C 
ENDROOT
BRANCH   4   6
ATOM      6  C   UNL     1       5.282   4.536  17.921  0.00  0.00    +0.000 A 
ATOM      7  C   UNL     1       6.321   5.460  18.040  0.00  0.00    +0.000 A 
ATOM      8  C   UNL     1       7.118   5.769  16.926  0.00  0.00    +0.000 A 
ATOM      9  C   UNL     1       6.907   5.175  15.684  0.00  0.00    +0.000 A 
ATOM     10  N   UNL     1       7.637   5.547  14.610  0.00  0.00    +0.000 NA
ATOM     11  C   UNL     1       7.352   4.925  13.444  0.00  0.00    +0.000 A 
ATOM     12  C   UNL     1       6.399   3.931  13.352  0.00  0.00    +0.000 A 
ATOM     13  N   UNL     1       5.661   3.546  14.413  0.00  0.00    +0.000 NA
ATOM     14  C   UNL     1       5.902   4.188  15.572  0.00  0.00    +0.000 A 
ATOM     15  C   UNL     1       5.116   3.896  16.678  0.00  0.00    +0.000 A 
ENDBRANCH   4   6
BRANCH   1  20
ATOM     16  C   UNL     1       0.933  11.438  18.702  0.00  0.00    +0.000 C 
ATOM     17  C   UNL     1       1.412  10.020  18.818  0.00  0.00    +0.000 A 
ATOM     18  C   UNL     1       1.239   9.267  19.989  0.00  0.00    +0.000 A 
ATOM     19  C   UNL     1       1.678   7.935  20.057  0.00  0.00    +0.000 A 
ATOM     20  C   UNL     1       2.301   7.348  18.952  0.00  0.00    +0.000 A 
ATOM     21  C   UNL     1       2.503   8.117  17.797  0.00  0.00    +0.000 A 
ATOM     22  C   UNL     1       2.060   9.436  17.729  0.00  0.00    +0.000 A 
ENDBRANCH   1  20
BRANCH   3  23
ATOM     23  S   UNL     1       2.243   2.630  19.787  0.00  0.00    +0.000 S 
ATOM     24  C   UNL     1       0.798   3.524  20.289  0.00  0.00    +0.000 C 
ATOM     25  O   UNL     1       1.792   1.425  19.115  0.00  0.00    +0.000 OA
ATOM     26  O   UNL     1       3.161   2.534  20.901  0.00  0.00    +0.000 OA
ENDBRANCH   3  23
TORSDOF 3
ENDMDL
MODEL 2
REMARK VINA RESULT:      -8.9      0.779      1.340
REMARK  Name = 
REMARK  5 active torsions:
REMARK  status: ('A' for Active; 'I' for Inactive)
REMARK    1  A    between atoms: C_1  and  C_2
REMARK    2  A    between atoms: C_5  and  C_6
REMARK    3  A    between atoms: N_8  and  S_9
REMARK    4  A    between atoms: S_9  and  C_10
REMARK    5  A    between atoms: C_13  and  C_14
REMARK                            x       y       z     vdW  Elec       q    Type
REMARK                         _______ _______ _______ _____ _____    ______ ____
ROOT
ATOM      1  C   UNL     1       2.462   6.087  18.923  0.00  0.00    +0.000 C 
ATOM      2  N   UNL     1       1.899   5.114  18.261  0.00  0.00    +0.000 NA
ATOM      3  N   UNL     1       2.704   3.873  18.601  0.00  0.00    +0.000 N 
ATOM      4  C   UNL     1       4.020   4.375  19.131  0.00  0.00    +0.000 C 
ATOM      5  C   UNL     1       3.583   5.649  19.837  0.00  0.00    +0.000 C 
ENDROOT
BRANCH   4   6
ATOM      6  C   UNL     1       5.097   4.662  18.084  0.00  0.00    +0.000 A 
ATOM      7  C   UNL     1       6.156   5.554  18.266  0.00  0.00    +0.000 A 
ATOM      8  C   UNL     1       7.027   5.838  17.203  0.00  0.00    +0.000 A 
ATOM      9  C   UNL     1       6.873   5.250  15.949  0.00  0.00    +0.000 A 
ATOM     10  N   UNL     1       7.677   5.598  14.922  0.00  0.00    +0.000 NA
ATOM     11  C   UNL     1       7.444   4.985  13.740  0.00  0.00    +0.000 A 
ATOM     12  C   UNL     1       6.468   4.022  13.589  0.00  0.00    +0.000 A 
ATOM     13  N   UNL     1       5.656   3.660  14.602  0.00  0.00    +0.000 NA
ATOM     14  C   UNL     1       5.846   4.294  15.775  0.00  0.00    +0.000 A 
ATOM     15  C   UNL     1       4.987   4.028  16.832  0.00  0.00    +0.000 A 
ENDBRANCH   4   6
BRANCH   1  20
ATOM     16  C   UNL     1       1.197  11.749  18.900  0.00  0.00    +0.000 C 
ATOM     17  C   UNL     1       1.502  10.279  18.856  0.00  0.00    +0.000 A 
ATOM     18  C   UNL     1       2.086   9.672  17.735  0.00  0.00    +0.000 A 
ATOM     19  C   UNL     1       2.379   8.298  17.734  0.00  0.00    +0.000 A 
ATOM     20  C   UNL     1       2.083   7.521  18.858  0.00  0.00    +0.000 A 
ATOM     21  C   UNL     1       1.467   8.127  19.961  0.00  0.00    +0.000 A 
ATOM     22  C   UNL     1       1.183   9.492  19.963  0.00  0.00    +0.000 A 
ENDBRANCH   1  20
BRANCH   3  23
ATOM     23  S   UNL     1       1.923   2.822  19.781  0.00  0.00    +0.000 S 
ATOM     24  C   UNL     1       3.245   2.507  20.917  0.00  0.00    +0.000 C 
ATOM     25  O   UNL     1       0.922   3.597  20.492  0.00  0.00    +0.000 OA
ATOM     26  O   UNL     1       1.548   1.589  19.124  0.00  0.00    +0.000 OA
ENDBRANCH   3  23
TORSDOF 3
ENDMDL
MODEL 3
REMARK VINA RESULT:      -8.0      1.890      6.479
REMARK  Name = 
REMARK  5 active torsions:
REMARK  status: ('A' for Active; 'I' for Inactive)
REMARK    1  A    between atoms: C_1  and  C_2
REMARK    2  A    between atoms: C_5  and  C_6
REMARK    3  A    between atoms: N_8  and  S_9
REMARK    4  A    between atoms: S_9  and  C_10
REMARK    5  A    between atoms: C_13  and  C_14
REMARK                            x       y       z     vdW  Elec       q    Type
REMARK                         _______ _______ _______ _____ _____    ______ ____
ROOT
ATOM      1  C   UNL     1       4.671   4.287  17.588  0.00  0.00    +0.000 C 
ATOM      2  N   UNL     1       5.145   4.280  18.804  0.00  0.00    +0.000 NA
ATOM      3  N   UNL     1       3.947   4.052  19.706  0.00  0.00    +0.000 N 
ATOM      4  C   UNL     1       2.741   4.407  18.879  0.00  0.00    +0.000 C 
ATOM      5  C   UNL     1       3.196   3.966  17.497  0.00  0.00    +0.000 C 
ENDROOT
BRANCH   4   6
ATOM      6  C   UNL     1       2.336   5.882  18.885  0.00  0.00    +0.000 A 
ATOM      7  C   UNL     1       2.446   6.735  17.786  0.00  0.00    +0.000 A 
ATOM      8  C   UNL     1       2.158   8.101  17.924  0.00  0.00    +0.000 A 
ATOM      9  C   UNL     1       1.757   8.649  19.140  0.00  0.00    +0.000 A 
ATOM     10  N   UNL     1       1.562   9.979  19.266  0.00  0.00    +0.000 NA
ATOM     11  C   UNL     1       1.187  10.420  20.488  0.00  0.00    +0.000 A 
ATOM     12  C   UNL     1       0.972   9.563  21.547  0.00  0.00    +0.000 A 
ATOM     13  N   UNL     1       1.161   8.232  21.441  0.00  0.00    +0.000 NA
ATOM     14  C   UNL     1       1.578   7.782  20.242  0.00  0.00    +0.000 A 
ATOM     15  C   UNL     1       1.872   6.434  20.095  0.00  0.00    +0.000 A 
ENDBRANCH   4   6
BRANCH   1  20
ATOM     16  C   UNL     1       7.931   5.151  12.868  0.00  0.00    +0.000 C 
ATOM     17  C   UNL     1       7.043   4.941  14.060  0.00  0.00    +0.000 A 
ATOM     18  C   UNL     1       5.842   4.223  13.979  0.00  0.00    +0.000 A 
ATOM     19  C   UNL     1       5.045   4.025  15.118  0.00  0.00    +0.000 A 
ATOM     20  C   UNL     1       5.444   4.553  16.350  0.00  0.00    +0.000 A 
ATOM     21  C   UNL     1       6.628   5.301  16.417  0.00  0.00    +0.000 A 
ATOM     22  C   UNL     1       7.421   5.490  15.286  0.00  0.00    +0.000 A 
ENDBRANCH   1  20
BRANCH   3  23
ATOM     23  S   UNL     1       3.818   2.400  20.309  0.00  0.00    +0.000 S 
ATOM     24  C   UNL     1       2.546   2.560  21.532  0.00  0.00    +0.000 C 
ATOM     25  O   UNL     1       3.289   1.566  19.246  0.00  0.00    +0.000 OA
ATOM     26  O   UNL     1       5.064   2.045  20.954  0.00  0.00    +0.000 OA
ENDBRANCH   3  23
TORSDOF 3
ENDMDL
MODEL 4
REMARK VINA RESULT:      -7.9      1.979      6.441
REMARK  Name = 
REMARK  5 active torsions:
REMARK  status: ('A' for Active; 'I' for Inactive)
REMARK    1  A    between atoms: C_1  and  C_2
REMARK    2  A    between atoms: C_5  and  C_6
REMARK    3  A    between atoms: N_8  and  S_9
REMARK    4  A    between atoms: S_9  and  C_10
REMARK    5  A    between atoms: C_13  and  C_14
REMARK                            x       y       z     vdW  Elec       q    Type
REMARK                         _______ _______ _______ _____ _____    ______ ____
ROOT
ATOM      1  C   UNL     1       4.615   4.258  17.871  0.00  0.00    +0.000 C 
ATOM      2  N   UNL     1       5.011   4.296  19.114  0.00  0.00    +0.000 NA
ATOM      3  N   UNL     1       3.751   4.139  19.945  0.00  0.00    +0.000 N 
ATOM      4  C   UNL     1       2.611   4.486  19.025  0.00  0.00    +0.000 C 
ATOM      5  C   UNL     1       3.142   3.972  17.697  0.00  0.00    +0.000 C 
ENDROOT
BRANCH   4   6
ATOM      6  C   UNL     1       2.248   5.970  18.941  0.00  0.00    +0.000 A 
ATOM      7  C   UNL     1       2.409   6.757  17.800  0.00  0.00    +0.000 A 
ATOM      8  C   UNL     1       2.158   8.137  17.856  0.00  0.00    +0.000 A 
ATOM      9  C   UNL     1       1.743   8.761  19.029  0.00  0.00    +0.000 A 
ATOM     10  N   UNL     1       1.582  10.102  19.077  0.00  0.00    +0.000 NA
ATOM     11  C   UNL     1       1.191  10.619  20.263  0.00  0.00    +0.000 A 
ATOM     12  C   UNL     1       0.924   9.828  21.361  0.00  0.00    +0.000 A 
ATOM     13  N   UNL     1       1.078   8.489  21.334  0.00  0.00    +0.000 NA
ATOM     14  C   UNL     1       1.511   7.962  20.172  0.00  0.00    +0.000 A 
ATOM     15  C   UNL     1       1.771   6.600  20.106  0.00  0.00    +0.000 A 
ENDBRANCH   4   6
BRANCH   1  20
ATOM     16  C   UNL     1       7.763   5.220  13.093  0.00  0.00    +0.000 C 
ATOM     17  C   UNL     1       6.993   4.949  14.353  0.00  0.00    +0.000 A 
ATOM     18  C   UNL     1       7.498   5.273  15.621  0.00  0.00    +0.000 A 
ATOM     19  C   UNL     1       6.742   5.027  16.779  0.00  0.00    +0.000 A 
ATOM     20  C   UNL     1       5.474   4.449  16.675  0.00  0.00    +0.000 A 
ATOM     21  C   UNL     1       4.990   4.095  15.408  0.00  0.00    +0.000 A 
ATOM     22  C   UNL     1       5.738   4.346  14.259  0.00  0.00    +0.000 A 
ENDBRANCH   1  20
BRANCH   3  23
ATOM     23  S   UNL     1       3.537   2.520  20.610  0.00  0.00    +0.000 S 
ATOM     24  C   UNL     1       2.377   1.812  19.473  0.00  0.00    +0.000 C 
ATOM     25  O   UNL     1       4.785   1.795  20.458  0.00  0.00    +0.000 OA
ATOM     26  O   UNL     1       2.923   2.635  21.915  0.00  0.00    +0.000 OA
ENDBRANCH   3  23
TORSDOF 3
ENDMDL
MODEL 5
REMARK VINA RESULT:      -7.8      0.949      1.531
REMARK  Name = 
REMARK  5 active torsions:
REMARK  status: ('A' for Active; 'I' for Inactive)
REMARK    1  A    between atoms: C_1  and  C_2
REMARK    2  A    between atoms: C_5  and  C_6
REMARK    3  A    between atoms: N_8  and  S_9
REMARK    4  A    between atoms: S_9  and  C_10
REMARK    5  A    between atoms: C_13  and  C_14
REMARK                            x       y       z     vdW  Elec       q    Type
REMARK                         _______ _______ _______ _____ _____    ______ ____
ROOT
ATOM      1  C   UNL     1       3.123   5.596  18.717  0.00  0.00    +0.000 C 
ATOM      2  N   UNL     1       2.596   4.543  18.154  0.00  0.00    +0.000 NA
ATOM      3  N   UNL     1       3.593   3.421  18.378  0.00  0.00    +0.000 N 
ATOM      4  C   UNL     1       4.899   4.096  18.701  0.00  0.00    +0.000 C 
ATOM      5  C   UNL     1       4.414   5.323  19.456  0.00  0.00    +0.000 C 
ENDROOT
BRANCH   4   6
ATOM      6  C   UNL     1       5.764   4.488  17.502  0.00  0.00    +0.000 A 
ATOM      7  C   UNL     1       6.685   5.537  17.503  0.00  0.00    +0.000 A 
ATOM      8  C   UNL     1       7.346   5.894  16.318  0.00  0.00    +0.000 A 
ATOM      9  C   UNL     1       7.117   5.225  15.118  0.00  0.00    +0.000 A 
ATOM     10  N   UNL     1       7.707   5.637  13.976  0.00  0.00    +0.000 NA
ATOM     11  C   UNL     1       7.414   4.935  12.858  0.00  0.00    +0.000 A 
ATOM     12  C   UNL     1       6.590   3.828  12.878  0.00  0.00    +0.000 A 
ATOM     13  N   UNL     1       5.991   3.401  14.008  0.00  0.00    +0.000 NA
ATOM     14  C   UNL     1       6.238   4.118  15.122  0.00  0.00    +0.000 A 
ATOM     15  C   UNL     1       5.585   3.779  16.299  0.00  0.00    +0.000 A 
ENDBRANCH   4   6
BRANCH   1  20
ATOM     16  C   UNL     1       1.133  11.042  18.881  0.00  0.00    +0.000 C 
ATOM     17  C   UNL     1       1.625   9.627  18.789  0.00  0.00    +0.000 A 
ATOM     18  C   UNL     1       2.270   9.135  17.646  0.00  0.00    +0.000 A 
ATOM     19  C   UNL     1       2.740   7.812  17.600  0.00  0.00    +0.000 A 
ATOM     20  C   UNL     1       2.561   6.969  18.701  0.00  0.00    +0.000 A 
ATOM     21  C   UNL     1       1.884   7.457  19.827  0.00  0.00    +0.000 A 
ATOM     22  C   UNL     1       1.425   8.772  19.873  0.00  0.00    +0.000 A 
ENDBRANCH   1  20
BRANCH   3  23
ATOM     23  S   UNL     1       3.135   2.312  19.669  0.00  0.00    +0.000 S 
ATOM     24  C   UNL     1       3.539   0.741  18.957  0.00  0.00    +0.000 C 
ATOM     25  O   UNL     1       4.034   2.520  20.790  0.00  0.00    +0.000 OA
ATOM     26  O   UNL     1       1.704   2.398  19.866  0.00  0.00    +0.000 OA
ENDBRANCH   3  23
TORSDOF 3
ENDMDL
MODEL 6
REMARK VINA RESULT:      -7.8      1.947      6.525
REMARK  Name = 
REMARK  5 active torsions:
REMARK  status: ('A' for Active; 'I' for Inactive)
REMARK    1  A    between atoms: C_1  and  C_2
REMARK    2  A    between atoms: C_5  and  C_6
REMARK    3  A    between atoms: N_8  and  S_9
REMARK    4  A    between atoms: S_9  and  C_10
REMARK    5  A    between atoms: C_13  and  C_14
REMARK                            x       y       z     vdW  Elec       q    Type
REMARK                         _______ _______ _______ _____ _____    ______ ____
ROOT
ATOM      1  C   UNL     1       4.249   4.513  18.083  0.00  0.00    +0.000 C 
ATOM      2  N   UNL     1       4.559   4.523  19.351  0.00  0.00    +0.000 NA
ATOM      3  N   UNL     1       3.237   4.445  20.091  0.00  0.00    +0.000 N 
ATOM      4  C   UNL     1       2.188   4.865  19.098  0.00  0.00    +0.000 C 
ATOM      5  C   UNL     1       2.776   4.321  17.806  0.00  0.00    +0.000 C 
ENDROOT
BRANCH   4   6
ATOM      6  C   UNL     1       1.927   6.370  18.998  0.00  0.00    +0.000 A 
ATOM      7  C   UNL     1       2.148   7.134  17.851  0.00  0.00    +0.000 A 
ATOM      8  C   UNL     1       1.989   8.528  17.894  0.00  0.00    +0.000 A 
ATOM      9  C   UNL     1       1.609   9.189  19.059  0.00  0.00    +0.000 A 
ATOM     10  N   UNL     1       1.539  10.538  19.094  0.00  0.00    +0.000 NA
ATOM     11  C   UNL     1       1.175  11.091  20.272  0.00  0.00    +0.000 A 
ATOM     12  C   UNL     1       0.849  10.330  21.375  0.00  0.00    +0.000 A 
ATOM     13  N   UNL     1       0.913   8.983  21.360  0.00  0.00    +0.000 NA
ATOM     14  C   UNL     1       1.317   8.417  20.206  0.00  0.00    +0.000 A 
ATOM     15  C   UNL     1       1.485   7.041  20.154  0.00  0.00    +0.000 A 
ENDBRANCH   4   6
BRANCH   1  20
ATOM     16  C   UNL     1       7.719   5.155  13.478  0.00  0.00    +0.000 C 
ATOM     17  C   UNL     1       6.866   4.990  14.702  0.00  0.00    +0.000 A 
ATOM     18  C   UNL     1       7.042   5.780  15.847  0.00  0.00    +0.000 A 
ATOM     19  C   UNL     1       6.211   5.616  16.968  0.00  0.00    +0.000 A 
ATOM     20  C   UNL     1       5.199   4.651  16.951  0.00  0.00    +0.000 A 
ATOM     21  C   UNL     1       5.052   3.840  15.817  0.00  0.00    +0.000 A 
ATOM     22  C   UNL     1       5.873   4.010  14.703  0.00  0.00    +0.000 A 
ENDBRANCH   1  20
BRANCH   3  23
ATOM     23  S   UNL     1       2.875   2.842  20.730  0.00  0.00    +0.000 S 
ATOM     24  C   UNL     1       4.436   2.022  20.559  0.00  0.00    +0.000 C 
ATOM     25  O   UNL     1       2.609   2.966  22.152  0.00  0.00    +0.000 OA
ATOM     26  O   UNL     1       1.902   2.209  19.866  0.00  0.00    +0.000 OA
ENDBRANCH   3  23
TORSDOF 3
ENDMDL
MODEL 7
REMARK VINA RESULT:      -7.4      1.974      6.127
REMARK  Name = 
REMARK  5 active torsions:
REMARK  status: ('A' for Active; 'I' for Inactive)
REMARK    1  A    between atoms: C_1  and  C_2
REMARK    2  A    between atoms: C_5  and  C_6
REMARK    3  A    between atoms: N_8  and  S_9
REMARK    4  A    between atoms: S_9  and  C_10
REMARK    5  A    between atoms: C_13  and  C_14
REMARK                            x       y       z     vdW  Elec       q    Type
REMARK                         _______ _______ _______ _____ _____    ______ ____
ROOT
ATOM      1  C   UNL     1       4.042   4.529  18.347  0.00  0.00    +0.000 C 
ATOM      2  N   UNL     1       4.470   4.321  19.562  0.00  0.00    +0.000 NA
ATOM      3  N   UNL     1       3.222   4.189  20.415  0.00  0.00    +0.000 N 
ATOM      4  C   UNL     1       2.112   4.813  19.612  0.00  0.00    +0.000 C 
ATOM      5  C   UNL     1       2.540   4.455  18.197  0.00  0.00    +0.000 C 
ENDROOT
BRANCH   4   6
ATOM      6  C   UNL     1       1.940   6.325  19.773  0.00  0.00    +0.000 A 
ATOM      7  C   UNL     1       1.474   6.945  20.934  0.00  0.00    +0.000 A 
ATOM      8  C   UNL     1       1.238   8.329  20.945  0.00  0.00    +0.000 A 
ATOM      9  C   UNL     1       1.458   9.122  19.821  0.00  0.00    +0.000 A 
ATOM     10  N   UNL     1       1.150  10.436  19.834  0.00  0.00    +0.000 NA
ATOM     11  C   UNL     1       1.385  11.122  18.693  0.00  0.00    +0.000 A 
ATOM     12  C   UNL     1       1.949  10.531  17.581  0.00  0.00    +0.000 A 
ATOM     13  N   UNL     1       2.264   9.220  17.548  0.00  0.00    +0.000 NA
ATOM     14  C   UNL     1       1.994   8.513  18.663  0.00  0.00    +0.000 A 
ATOM     15  C   UNL     1       2.216   7.144  18.662  0.00  0.00    +0.000 A 
ENDBRANCH   4   6
BRANCH   1  20
ATOM     16  C   UNL     1       7.591   5.448  13.851  0.00  0.00    +0.000 C 
ATOM     17  C   UNL     1       6.630   5.217  14.981  0.00  0.00    +0.000 A 
ATOM     18  C   UNL     1       5.527   4.359  14.859  0.00  0.00    +0.000 A 
ATOM     19  C   UNL     1       4.659   4.147  15.943  0.00  0.00    +0.000 A 
ATOM     20  C   UNL     1       4.888   4.800  17.158  0.00  0.00    +0.000 A 
ATOM     21  C   UNL     1       5.971   5.683  17.262  0.00  0.00    +0.000 A 
ATOM     22  C   UNL     1       6.835   5.887  16.188  0.00  0.00    +0.000 A 
ENDBRANCH   1  20
BRANCH   3  23
ATOM     23  S   UNL     1       2.819   2.524  20.832  0.00  0.00    +0.000 S 
ATOM     24  C   UNL     1       4.368   1.702  20.578  0.00  0.00    +0.000 C 
ATOM     25  O   UNL     1       2.531   2.466  22.254  0.00  0.00    +0.000 OA
ATOM     26  O   UNL     1       1.850   2.030  19.878  0.00  0.00    +0.000 OA
ENDBRANCH   3  23
TORSDOF 3
ENDMDL
MODEL 8
REMARK VINA RESULT:      -7.3      1.940      6.044
REMARK  Name = 
REMARK  5 active torsions:
REMARK  status: ('A' for Active; 'I' for Inactive)
REMARK    1  A    between atoms: C_1  and  C_2
REMARK    2  A    between atoms: C_5  and  C_6
REMARK    3  A    between atoms: N_8  and  S_9
REMARK    4  A    between atoms: S_9  and  C_10
REMARK    5  A    between atoms: C_13  and  C_14
REMARK                            x       y       z     vdW  Elec       q    Type
REMARK                         _______ _______ _______ _____ _____    ______ ____
ROOT
ATOM      1  C   UNL     1       4.064   4.466  18.302  0.00  0.00    +0.000 C 
ATOM      2  N   UNL     1       4.484   4.241  19.518  0.00  0.00    +0.000 NA
ATOM      3  N   UNL     1       3.230   4.107  20.361  0.00  0.00    +0.000 N 
ATOM      4  C   UNL     1       2.129   4.747  19.559  0.00  0.00    +0.000 C 
ATOM      5  C   UNL     1       2.563   4.403  18.143  0.00  0.00    +0.000 C 
ENDROOT
BRANCH   4   6
ATOM      6  C   UNL     1       1.964   6.258  19.737  0.00  0.00    +0.000 A 
ATOM      7  C   UNL     1       1.519   6.869  20.911  0.00  0.00    +0.000 A 
ATOM      8  C   UNL     1       1.288   8.253  20.939  0.00  0.00    +0.000 A 
ATOM      9  C   UNL     1       1.493   9.055  19.819  0.00  0.00    +0.000 A 
ATOM     10  N   UNL     1       1.189  10.371  19.849  0.00  0.00    +0.000 NA
ATOM     11  C   UNL     1       1.408  11.066  18.711  0.00  0.00    +0.000 A 
ATOM     12  C   UNL     1       1.952  10.484  17.585  0.00  0.00    +0.000 A 
ATOM     13  N   UNL     1       2.262   9.172  17.534  0.00  0.00    +0.000 NA
ATOM     14  C   UNL     1       2.008   8.456  18.647  0.00  0.00    +0.000 A 
ATOM     15  C   UNL     1       2.225   7.086  18.629  0.00  0.00    +0.000 A 
ENDBRANCH   4   6
BRANCH   1  20
ATOM     16  C   UNL     1       7.638   5.397  13.829  0.00  0.00    +0.000 C 
ATOM     17  C   UNL     1       6.671   5.168  14.953  0.00  0.00    +0.000 A 
ATOM     18  C   UNL     1       5.514   4.391  14.797  0.00  0.00    +0.000 A 
ATOM     19  C   UNL     1       4.641   4.176  15.875  0.00  0.00    +0.000 A 
ATOM     20  C   UNL     1       4.919   4.746  17.122  0.00  0.00    +0.000 A 
ATOM     21  C   UNL     1       6.057   5.551  17.262  0.00  0.00    +0.000 A 
ATOM     22  C   UNL     1       6.927   5.757  16.192  0.00  0.00    +0.000 A 
ENDBRANCH   1  20
BRANCH   3  23
ATOM     23  S   UNL     1       2.816   2.439  20.756  0.00  0.00    +0.000 S 
ATOM     24  C   UNL     1       1.342   2.650  21.717  0.00  0.00    +0.000 C 
ATOM     25  O   UNL     1       2.436   1.760  19.531  0.00  0.00    +0.000 OA
ATOM     26  O   UNL     1       3.861   1.889  21.592  0.00  0.00    +0.000 OA
ENDBRANCH   3  23
TORSDOF 3
ENDMDL
MODEL 9
REMARK VINA RESULT:      -7.2      4.758      7.031
REMARK  Name = 
REMARK  5 active torsions:
REMARK  status: ('A' for Active; 'I' for Inactive)
REMARK    1  A    between atoms: C_1  and  C_2
REMARK    2  A    between atoms: C_5  and  C_6
REMARK    3  A    between atoms: N_8  and  S_9
REMARK    4  A    between atoms: S_9  and  C_10
REMARK    5  A    between atoms: C_13  and  C_14
REMARK                            x       y       z     vdW  Elec       q    Type
REMARK                         _______ _______ _______ _____ _____    ______ ____
ROOT
ATOM      1  C   UNL     1      -1.110  10.474  18.794  0.00  0.00    +0.000 C 
ATOM      2  N   UNL     1      -1.485   9.990  19.947  0.00  0.00    +0.000 NA
ATOM      3  N   UNL     1      -0.286  10.146  20.862  0.00  0.00    +0.000 N 
ATOM      4  C   UNL     1       0.900  10.326  19.953  0.00  0.00    +0.000 C 
ATOM      5  C   UNL     1       0.270  11.092  18.801  0.00  0.00    +0.000 C 
ENDROOT
BRANCH   4   6
ATOM      6  C   UNL     1       1.569   9.039  19.464  0.00  0.00    +0.000 A 
ATOM      7  C   UNL     1       2.128   8.875  18.196  0.00  0.00    +0.000 A 
ATOM      8  C   UNL     1       2.614   7.619  17.799  0.00  0.00    +0.000 A 
ATOM      9  C   UNL     1       2.561   6.511  18.641  0.00  0.00    +0.000 A 
ATOM     10  N   UNL     1       2.964   5.297  18.207  0.00  0.00    +0.000 NA
ATOM     11  C   UNL     1       2.862   4.278  19.090  0.00  0.00    +0.000 A 
ATOM     12  C   UNL     1       2.413   4.464  20.381  0.00  0.00    +0.000 A 
ATOM     13  N   UNL     1       2.007   5.667  20.833  0.00  0.00    +0.000 NA
ATOM     14  C   UNL     1       2.059   6.684  19.951  0.00  0.00    +0.000 A 
ATOM     15  C   UNL     1       1.575   7.929  20.329  0.00  0.00    +0.000 A 
ENDBRANCH   4   6
BRANCH   1  20
ATOM     16  C   UNL     1      -4.346  10.192  13.988  0.00  0.00    +0.000 C 
ATOM     17  C   UNL     1      -3.507  10.319  15.226  0.00  0.00    +0.000 A 
ATOM     18  C   UNL     1      -3.797  11.254  16.231  0.00  0.00    +0.000 A 
ATOM     19  C   UNL     1      -3.005  11.332  17.388  0.00  0.00    +0.000 A 
ATOM     20  C   UNL     1      -1.911  10.476  17.545  0.00  0.00    +0.000 A 
ATOM     21  C   UNL     1      -1.606   9.569  16.521  0.00  0.00    +0.000 A 
ATOM     22  C   UNL     1      -2.397   9.488  15.376  0.00  0.00    +0.000 A 
ENDBRANCH   1  20
BRANCH   3  23
ATOM     23  S   UNL     1      -0.418  11.502  21.981  0.00  0.00    +0.000 S 
ATOM     24  C   UNL     1      -2.002  12.170  21.554  0.00  0.00    +0.000 C 
ATOM     25  O   UNL     1      -0.523  10.974  23.329  0.00  0.00    +0.000 OA
ATOM     26  O   UNL     1       0.613  12.466  21.661  0.00  0.00    +0.000 OA
ENDBRANCH   3  23
TORSDOF 3
ENDMDL
