MODEL 1
REMARK VINA RESULT:      -7.8      0.000      0.000
REMARK  Name = 
REMARK  9 active torsions:
REMARK  status: ('A' for Active; 'I' for Inactive)
REMARK    1  A    between atoms: C_1  and  O_2
REMARK    2  A    between atoms: O_2  and  C_3
REMARK    3  A    between atoms: C_6  and  S_7
REMARK    4  A    between atoms: S_7  and  N_10
REMARK    5  A    between atoms: N_10  and  C_11
REMARK    6  A    between atoms: C_11  and  C_12
REMARK    7  A    between atoms: C_11  and  C_21
REMARK    8  A    between atoms: C_12  and  C_13
REMARK    9  A    between atoms: N_15  and  C_16
REMARK                            x       y       z     vdW  Elec       q    Type
REMARK                         _______ _______ _______ _____ _____    ______ ____
ROOT
ATOM      1  C   UNL     1       4.817   5.136  18.158  0.00  0.00    +0.000 C 
ENDROOT
BRANCH   1   2
ATOM      2  C   UNL     1       4.465   3.724  18.528  0.00  0.00    +0.000 A 
ATOM      3  C   UNL     1       3.825   2.690  17.872  0.00  0.00    +0.000 A 
ATOM      4  C   UNL     1       3.810   1.592  18.765  0.00  0.00    +0.000 A 
ATOM      5  C   UNL     1       4.439   2.022  19.909  0.00  0.00    +0.000 A 
ATOM      6  O   UNL     1       4.852   3.308  19.772  0.00  0.00    +0.000 OA
ENDBRANCH   1   2
BRANCH   1   7
ATOM      7  N   UNL     1       4.104   6.036  19.091  0.00  0.00    +0.000 NA
ATOM      8  H   UNL     1       4.564   6.168  19.993  0.00  0.00    +0.000 HD
BRANCH   7   9
ATOM      9  S   UNL     1       2.437   6.006  19.254  0.00  0.00    +0.000 S 
ATOM     10  O   UNL     1       2.123   5.478  20.563  0.00  0.00    +0.000 OA
ATOM     11  O   UNL     1       1.922   5.393  18.049  0.00  0.00    +0.000 OA
BRANCH   9  15
ATOM     12  C   UNL     1       1.191  10.384  19.138  0.00  0.00    +0.000 A 
ATOM     13  C   UNL     1       0.980   9.613  20.286  0.00  0.00    +0.000 A 
ATOM     14  C   UNL     1       1.402   8.288  20.336  0.00  0.00    +0.000 A 
ATOM     15  C   UNL     1       2.006   7.722  19.211  0.00  0.00    +0.000 A 
ATOM     16  C   UNL     1       2.230   8.480  18.059  0.00  0.00    +0.000 A 
ATOM     17  C   UNL     1       1.816   9.816  18.025  0.00  0.00    +0.000 A 
BRANCH  12  19
ATOM     18  C   UNL     1       1.666  12.699  19.162  0.00  0.00    +0.000 C 
ATOM     19  O   UNL     1       0.700  11.657  19.209  0.00  0.00    +0.000 OA
ENDBRANCH  12  19
ENDBRANCH   9  15
ENDBRANCH   7   9
ENDBRANCH   1   7
BRANCH   1  20
ATOM     20  C   UNL     1       6.324   5.351  18.053  0.00  0.00    +0.000 C 
BRANCH  20  21
ATOM     21  C   UNL     1       6.981   4.699  16.853  0.00  0.00    +0.000 C 
ATOM     22  O   UNL     1       8.088   4.171  16.929  0.00  0.00    +0.000 OA
ATOM     23  N   UNL     1       6.244   4.737  15.693  0.00  0.00    +0.000 N 
ATOM     24  H   UNL     1       5.300   5.127  15.726  0.00  0.00    +0.000 HD
BRANCH  23  25
ATOM     25  C   UNL     1       6.705   4.134  14.461  0.00  0.00    +0.000 C 
ATOM     26  C   UNL     1       5.574   3.697  13.535  0.00  0.00    +0.000 C 
ATOM     27  C   UNL     1       6.276   3.507  12.195  0.00  0.00    +0.000 C 
ATOM     28  C   UNL     1       7.415   4.528  12.179  0.00  0.00    +0.000 C 
ATOM     29  C   UNL     1       7.487   5.111  13.589  0.00  0.00    +0.000 C 
ENDBRANCH  23  25
ENDBRANCH  20  21
ENDBRANCH   1  20
TORSDOF 8
ENDMDL
MODEL 2
REMARK VINA RESULT:      -7.7      0.381      1.006
REMARK  Name = 
REMARK  9 active torsions:
REMARK  status: ('A' for Active; 'I' for Inactive)
REMARK    1  A    between atoms: C_1  and  O_2
REMARK    2  A    between atoms: O_2  and  C_3
REMARK    3  A    between atoms: C_6  and  S_7
REMARK    4  A    between atoms: S_7  and  N_10
REMARK    5  A    between atoms: N_10  and  C_11
REMARK    6  A    between atoms: C_11  and  C_12
REMARK    7  A    between atoms: C_11  and  C_21
REMARK    8  A    between atoms: C_12  and  C_13
REMARK    9  A    between atoms: N_15  and  C_16
REMARK                            x       y       z     vdW  Elec       q    Type
REMARK                         _______ _______ _______ _____ _____    ______ ____
ROOT
ATOM      1  C   UNL     1       4.784   5.086  18.209  0.00  0.00    +0.000 C 
ENDROOT
BRANCH   1   2
ATOM      2  C   UNL     1       4.449   3.660  18.538  0.00  0.00    +0.000 A 
ATOM      3  C   UNL     1       3.816   2.639  17.854  0.00  0.00    +0.000 A 
ATOM      4  C   UNL     1       3.818   1.515  18.714  0.00  0.00    +0.000 A 
ATOM      5  C   UNL     1       4.448   1.917  19.867  0.00  0.00    +0.000 A 
ATOM      6  O   UNL     1       4.847   3.211  19.767  0.00  0.00    +0.000 OA
ENDBRANCH   1   2
BRANCH   1   7
ATOM      7  N   UNL     1       4.062   5.951  19.169  0.00  0.00    +0.000 NA
ATOM      8  H   UNL     1       4.518   6.056  20.076  0.00  0.00    +0.000 HD
BRANCH   7   9
ATOM      9  S   UNL     1       2.395   5.904  19.326  0.00  0.00    +0.000 S 
ATOM     10  O   UNL     1       2.082   5.439  20.658  0.00  0.00    +0.000 OA
ATOM     11  O   UNL     1       1.896   5.221  18.151  0.00  0.00    +0.000 OA
BRANCH   9  15
ATOM     12  C   UNL     1       1.359  10.324  18.984  0.00  0.00    +0.000 A 
ATOM     13  C   UNL     1       1.906   9.634  17.898  0.00  0.00    +0.000 A 
ATOM     14  C   UNL     1       2.182   8.273  17.989  0.00  0.00    +0.000 A 
ATOM     15  C   UNL     1       1.938   7.608  19.193  0.00  0.00    +0.000 A 
ATOM     16  C   UNL     1       1.384   8.280  20.285  0.00  0.00    +0.000 A 
ATOM     17  C   UNL     1       1.098   9.646  20.177  0.00  0.00    +0.000 A 
BRANCH  12  19
ATOM     18  C   UNL     1      -0.029  12.210  19.308  0.00  0.00    +0.000 C 
ATOM     19  O   UNL     1       1.169  11.661  18.773  0.00  0.00    +0.000 OA
ENDBRANCH  12  19
ENDBRANCH   9  15
ENDBRANCH   7   9
ENDBRANCH   1   7
BRANCH   1  20
ATOM     20  C   UNL     1       6.289   5.322  18.109  0.00  0.00    +0.000 C 
BRANCH  20  21
ATOM     21  C   UNL     1       6.955   4.696  16.900  0.00  0.00    +0.000 C 
ATOM     22  O   UNL     1       8.080   4.205  16.963  0.00  0.00    +0.000 OA
ATOM     23  N   UNL     1       6.205   4.712  15.748  0.00  0.00    +0.000 N 
ATOM     24  H   UNL     1       5.249   5.070  15.791  0.00  0.00    +0.000 HD
BRANCH  23  25
ATOM     25  C   UNL     1       6.674   4.128  14.510  0.00  0.00    +0.000 C 
ATOM     26  C   UNL     1       5.548   3.674  13.584  0.00  0.00    +0.000 C 
ATOM     27  C   UNL     1       6.248   3.510  12.240  0.00  0.00    +0.000 C 
ATOM     28  C   UNL     1       7.365   4.555  12.228  0.00  0.00    +0.000 C 
ATOM     29  C   UNL     1       7.431   5.128  13.642  0.00  0.00    +0.000 C 
ENDBRANCH  23  25
ENDBRANCH  20  21
ENDBRANCH   1  20
TORSDOF 8
ENDMDL
MODEL 3
REMARK VINA RESULT:      -7.4      2.158      7.423
REMARK  Name = 
REMARK  9 active torsions:
REMARK  status: ('A' for Active; 'I' for Inactive)
REMARK    1  A    between atoms: C_1  and  O_2
REMARK    2  A    between atoms: O_2  and  C_3
REMARK    3  A    between atoms: C_6  and  S_7
REMARK    4  A    between atoms: S_7  and  N_10
REMARK    5  A    between atoms: N_10  and  C_11
REMARK    6  A    between atoms: C_11  and  C_12
REMARK    7  A    between atoms: C_11  and  C_21
REMARK    8  A    between atoms: C_12  and  C_13
REMARK    9  A    between atoms: N_15  and  C_16
REMARK                            x       y       z     vdW  Elec       q    Type
REMARK                         _______ _______ _______ _____ _____    ______ ____
ROOT
ATOM      1  C   UNL     1       3.063   5.429  20.076  0.00  0.00    +0.000 C 
ENDROOT
BRANCH   1   2
ATOM      2  C   UNL     1       2.139   4.393  19.506  0.00  0.00    +0.000 A 
ATOM      3  C   UNL     1       1.739   4.062  18.225  0.00  0.00    +0.000 A 
ATOM      4  C   UNL     1       0.845   2.971  18.350  0.00  0.00    +0.000 A 
ATOM      5  C   UNL     1       0.752   2.705  19.695  0.00  0.00    +0.000 A 
ATOM      6  O   UNL     1       1.542   3.551  20.405  0.00  0.00    +0.000 OA
ENDBRANCH   1   2
BRANCH   1   7
ATOM      7  N   UNL     1       4.138   5.666  19.087  0.00  0.00    +0.000 NA
ATOM      8  H   UNL     1       3.812   5.846  18.137  0.00  0.00    +0.000 HD
BRANCH   7   9
ATOM      9  S   UNL     1       5.557   4.775  19.088  0.00  0.00    +0.000 S 
ATOM     10  O   UNL     1       5.272   3.477  19.655  0.00  0.00    +0.000 OA
ATOM     11  O   UNL     1       6.577   5.636  19.649  0.00  0.00    +0.000 OA
BRANCH   9  15
ATOM     12  C   UNL     1       6.449   4.424  14.638  0.00  0.00    +0.000 A 
ATOM     13  C   UNL     1       7.434   4.858  15.530  0.00  0.00    +0.000 A 
ATOM     14  C   UNL     1       7.174   4.923  16.895  0.00  0.00    +0.000 A 
ATOM     15  C   UNL     1       5.903   4.584  17.363  0.00  0.00    +0.000 A 
ATOM     16  C   UNL     1       4.910   4.141  16.487  0.00  0.00    +0.000 A 
ATOM     17  C   UNL     1       5.186   4.066  15.117  0.00  0.00    +0.000 A 
BRANCH  12  19
ATOM     18  C   UNL     1       6.123   3.545  12.468  0.00  0.00    +0.000 C 
ATOM     19  O   UNL     1       6.823   4.439  13.323  0.00  0.00    +0.000 OA
ENDBRANCH  12  19
ENDBRANCH   9  15
ENDBRANCH   7   9
ENDBRANCH   1   7
BRANCH   1  20
ATOM     20  C   UNL     1       2.319   6.673  20.554  0.00  0.00    +0.000 C 
BRANCH  20  21
ATOM     21  C   UNL     1       2.005   7.686  19.472  0.00  0.00    +0.000 C 
ATOM     22  O   UNL     1       2.347   7.512  18.304  0.00  0.00    +0.000 OA
ATOM     23  N   UNL     1       1.307   8.792  19.894  0.00  0.00    +0.000 N 
ATOM     24  H   UNL     1       0.993   8.831  20.866  0.00  0.00    +0.000 HD
BRANCH  23  25
ATOM     25  C   UNL     1       0.896   9.843  18.987  0.00  0.00    +0.000 C 
ATOM     26  C   UNL     1      -0.618  10.022  18.908  0.00  0.00    +0.000 C 
ATOM     27  C   UNL     1      -0.771  11.395  18.265  0.00  0.00    +0.000 C 
ATOM     28  C   UNL     1       0.437  12.207  18.735  0.00  0.00    +0.000 C 
ATOM     29  C   UNL     1       1.368  11.221  19.438  0.00  0.00    +0.000 C 
ENDBRANCH  23  25
ENDBRANCH  20  21
ENDBRANCH   1  20
TORSDOF 8
ENDMDL
MODEL 4
REMARK VINA RESULT:      -7.4      2.084      2.754
REMARK  Name = 
REMARK  9 active torsions:
REMARK  status: ('A' for Active; 'I' for Inactive)
REMARK    1  A    between atoms: C_1  and  O_2
REMARK    2  A    between atoms: O_2  and  C_3
REMARK    3  A    between atoms: C_6  and  S_7
REMARK    4  A    between atoms: S_7  and  N_10
REMARK    5  A    between atoms: N_10  and  C_11
REMARK    6  A    between atoms: C_11  and  C_12
REMARK    7  A    between atoms: C_11  and  C_21
REMARK    8  A    between atoms: C_12  and  C_13
REMARK    9  A    between atoms: N_15  and  C_16
REMARK                            x       y       z     vdW  Elec       q    Type
REMARK                         _______ _______ _______ _____ _____    ______ ____
ROOT
ATOM      1  C   UNL     1       5.138   5.833  16.815  0.00  0.00    +0.000 C 
ENDROOT
BRANCH   1   2
ATOM      2  C   UNL     1       6.366   6.280  17.553  0.00  0.00    +0.000 A 
ATOM      3  C   UNL     1       7.182   7.394  17.477  0.00  0.00    +0.000 A 
ATOM      4  C   UNL     1       8.186   7.228  18.460  0.00  0.00    +0.000 A 
ATOM      5  C   UNL     1       7.925   6.026  19.074  0.00  0.00    +0.000 A 
ATOM      6  O   UNL     1       6.817   5.449  18.542  0.00  0.00    +0.000 OA
ENDBRANCH   1   2
BRANCH   1   7
ATOM      7  N   UNL     1       4.012   6.687  17.256  0.00  0.00    +0.000 NA
ATOM      8  H   UNL     1       4.220   7.686  17.286  0.00  0.00    +0.000 HD
BRANCH   7   9
ATOM      9  S   UNL     1       2.995   6.236  18.509  0.00  0.00    +0.000 S 
ATOM     10  O   UNL     1       3.814   5.834  19.630  0.00  0.00    +0.000 OA
ATOM     11  O   UNL     1       2.011   5.345  17.933  0.00  0.00    +0.000 OA
BRANCH   9  15
ATOM     12  C   UNL     1       0.764  10.063  19.563  0.00  0.00    +0.000 A 
ATOM     13  C   UNL     1       0.998   9.084  20.534  0.00  0.00    +0.000 A 
ATOM     14  C   UNL     1       1.718   7.936  20.221  0.00  0.00    +0.000 A 
ATOM     15  C   UNL     1       2.175   7.752  18.915  0.00  0.00    +0.000 A 
ATOM     16  C   UNL     1       1.956   8.722  17.935  0.00  0.00    +0.000 A 
ATOM     17  C   UNL     1       1.243   9.881  18.263  0.00  0.00    +0.000 A 
BRANCH  12  19
ATOM     18  C   UNL     1       0.436  12.404  19.536  0.00  0.00    +0.000 C 
ATOM     19  O   UNL     1       0.016  11.123  19.991  0.00  0.00    +0.000 OA
ENDBRANCH  12  19
ENDBRANCH   9  15
ENDBRANCH   7   9
ENDBRANCH   1   7
BRANCH   1  20
ATOM     20  C   UNL     1       5.360   5.759  15.307  0.00  0.00    +0.000 C 
BRANCH  20  21
ATOM     21  C   UNL     1       5.833   4.413  14.796  0.00  0.00    +0.000 C 
ATOM     22  O   UNL     1       6.189   3.519  15.561  0.00  0.00    +0.000 OA
ATOM     23  N   UNL     1       5.822   4.272  13.429  0.00  0.00    +0.000 N 
ATOM     24  H   UNL     1       5.443   5.033  12.862  0.00  0.00    +0.000 HD
BRANCH  23  25
ATOM     25  C   UNL     1       6.212   3.042  12.773  0.00  0.00    +0.000 C 
ATOM     26  C   UNL     1       5.155   2.502  11.813  0.00  0.00    +0.000 C 
ATOM     27  C   UNL     1       5.934   1.501  10.967  0.00  0.00    +0.000 C 
ATOM     28  C   UNL     1       7.357   2.055  10.881  0.00  0.00    +0.000 C 
ATOM     29  C   UNL     1       7.422   3.223  11.863  0.00  0.00    +0.000 C 
ENDBRANCH  23  25
ENDBRANCH  20  21
ENDBRANCH   1  20
TORSDOF 8
ENDMDL
MODEL 5
REMARK VINA RESULT:      -7.3      2.083      2.888
REMARK  Name = 
REMARK  9 active torsions:
REMARK  status: ('A' for Active; 'I' for Inactive)
REMARK    1  A    between atoms: C_1  and  O_2
REMARK    2  A    between atoms: O_2  and  C_3
REMARK    3  A    between atoms: C_6  and  S_7
REMARK    4  A    between atoms: S_7  and  N_10
REMARK    5  A    between atoms: N_10  and  C_11
REMARK    6  A    between atoms: C_11  and  C_12
REMARK    7  A    between atoms: C_11  and  C_21
REMARK    8  A    between atoms: C_12  and  C_13
REMARK    9  A    between atoms: N_15  and  C_16
REMARK                            x       y       z     vdW  Elec       q    Type
REMARK                         _______ _______ _______ _____ _____    ______ ____
ROOT
ATOM      1  C   UNL     1       5.137   5.780  16.829  0.00  0.00    +0.000 C 
ENDROOT
BRANCH   1   2
ATOM      2  C   UNL     1       6.358   6.183  17.604  0.00  0.00    +0.000 A 
ATOM      3  C   UNL     1       7.244   7.240  17.521  0.00  0.00    +0.000 A 
ATOM      4  C   UNL     1       8.192   7.055  18.556  0.00  0.00    +0.000 A 
ATOM      5  C   UNL     1       7.829   5.898  19.204  0.00  0.00    +0.000 A 
ATOM      6  O   UNL     1       6.712   5.368  18.645  0.00  0.00    +0.000 OA
ENDBRANCH   1   2
BRANCH   1   7
ATOM      7  N   UNL     1       4.014   6.630  17.284  0.00  0.00    +0.000 NA
ATOM      8  H   UNL     1       4.228   7.627  17.340  0.00  0.00    +0.000 HD
BRANCH   7   9
ATOM      9  S   UNL     1       2.986   6.156  18.519  0.00  0.00    +0.000 S 
ATOM     10  O   UNL     1       3.795   5.765  19.651  0.00  0.00    +0.000 OA
ATOM     11  O   UNL     1       2.030   5.247  17.924  0.00  0.00    +0.000 OA
BRANCH   9  15
ATOM     12  C   UNL     1       0.908  10.078  19.529  0.00  0.00    +0.000 A 
ATOM     13  C   UNL     1       1.355   9.823  18.229  0.00  0.00    +0.000 A 
ATOM     14  C   UNL     1       1.950   8.606  17.912  0.00  0.00    +0.000 A 
ATOM     15  C   UNL     1       2.130   7.653  18.916  0.00  0.00    +0.000 A 
ATOM     16  C   UNL     1       1.683   7.889  20.218  0.00  0.00    +0.000 A 
ATOM     17  C   UNL     1       1.072   9.110  20.524  0.00  0.00    +0.000 A 
BRANCH  12  19
ATOM     18  C   UNL     1      -1.020  11.365  19.992  0.00  0.00    +0.000 C 
ATOM     19  O   UNL     1       0.374  11.322  19.715  0.00  0.00    +0.000 OA
ENDBRANCH  12  19
ENDBRANCH   9  15
ENDBRANCH   7   9
ENDBRANCH   1   7
BRANCH   1  20
ATOM     20  C   UNL     1       5.384   5.762  15.323  0.00  0.00    +0.000 C 
BRANCH  20  21
ATOM     21  C   UNL     1       5.946   4.463  14.783  0.00  0.00    +0.000 C 
ATOM     22  O   UNL     1       6.570   3.681  15.497  0.00  0.00    +0.000 OA
ATOM     23  N   UNL     1       5.696   4.228  13.451  0.00  0.00    +0.000 N 
ATOM     24  H   UNL     1       5.107   4.889  12.940  0.00  0.00    +0.000 HD
BRANCH  23  25
ATOM     25  C   UNL     1       6.132   3.022  12.781  0.00  0.00    +0.000 C 
ATOM     26  C   UNL     1       5.126   2.493  11.762  0.00  0.00    +0.000 C 
ATOM     27  C   UNL     1       5.955   1.526  10.925  0.00  0.00    +0.000 C 
ATOM     28  C   UNL     1       7.372   2.101  10.916  0.00  0.00    +0.000 C 
ATOM     29  C   UNL     1       7.378   3.244  11.930  0.00  0.00    +0.000 C 
ENDBRANCH  23  25
ENDBRANCH  20  21
ENDBRANCH   1  20
TORSDOF 8
ENDMDL
MODEL 6
REMARK VINA RESULT:      -7.2      3.788      6.760
REMARK  Name = 
REMARK  9 active torsions:
REMARK  status: ('A' for Active; 'I' for Inactive)
REMARK    1  A    between atoms: C_1  and  O_2
REMARK    2  A    between atoms: O_2  and  C_3
REMARK    3  A    between atoms: C_6  and  S_7
REMARK    4  A    between atoms: S_7  and  N_10
REMARK    5  A    between atoms: N_10  and  C_11
REMARK    6  A    between atoms: C_11  and  C_12
REMARK    7  A    between atoms: C_11  and  C_21
REMARK    8  A    between atoms: C_12  and  C_13
REMARK    9  A    between atoms: N_15  and  C_16
REMARK                            x       y       z     vdW  Elec       q    Type
REMARK                         _______ _______ _______ _____ _____    ______ ____
ROOT
ATOM      1  C   UNL     1       5.693   6.878  17.441  0.00  0.00    +0.000 C 
ENDROOT
BRANCH   1   2
ATOM      2  C   UNL     1       4.284   7.170  17.869  0.00  0.00    +0.000 A 
ATOM      3  C   UNL     1       3.291   8.010  17.401  0.00  0.00    +0.000 A 
ATOM      4  C   UNL     1       2.169   7.819  18.242  0.00  0.00    +0.000 A 
ATOM      5  C   UNL     1       2.545   6.878  19.171  0.00  0.00    +0.000 A 
ATOM      6  O   UNL     1       3.819   6.467  18.947  0.00  0.00    +0.000 OA
ENDBRANCH   1   2
BRANCH   1   7
ATOM      7  N   UNL     1       5.637   5.852  16.377  0.00  0.00    +0.000 NA
ATOM      8  H   UNL     1       4.819   5.912  15.768  0.00  0.00    +0.000 HD
BRANCH   7   9
ATOM      9  S   UNL     1       6.075   4.259  16.656  0.00  0.00    +0.000 S 
ATOM     10  O   UNL     1       7.273   4.258  17.464  0.00  0.00    +0.000 OA
ATOM     11  O   UNL     1       6.030   3.594  15.371  0.00  0.00    +0.000 OA
BRANCH   9  15
ATOM     12  C   UNL     1       2.557   2.810  19.157  0.00  0.00    +0.000 A 
ATOM     13  C   UNL     1       2.382   3.158  17.814  0.00  0.00    +0.000 A 
ATOM     14  C   UNL     1       3.465   3.558  17.039  0.00  0.00    +0.000 A 
ATOM     15  C   UNL     1       4.729   3.644  17.627  0.00  0.00    +0.000 A 
ATOM     16  C   UNL     1       4.923   3.294  18.965  0.00  0.00    +0.000 A 
ATOM     17  C   UNL     1       3.829   2.878  19.732  0.00  0.00    +0.000 A 
BRANCH  12  19
ATOM     18  C   UNL     1       1.311   2.900  21.164  0.00  0.00    +0.000 C 
ATOM     19  O   UNL     1       1.408   2.468  19.812  0.00  0.00    +0.000 OA
ENDBRANCH  12  19
ENDBRANCH   9  15
ENDBRANCH   7   9
ENDBRANCH   1   7
BRANCH   1  20
ATOM     20  C   UNL     1       6.471   8.145  17.097  0.00  0.00    +0.000 C 
BRANCH  20  21
ATOM     21  C   UNL     1       7.734   8.360  17.907  0.00  0.00    +0.000 C 
ATOM     22  O   UNL     1       8.309   7.429  18.466  0.00  0.00    +0.000 OA
ATOM     23  N   UNL     1       8.182   9.659  17.954  0.00  0.00    +0.000 N 
ATOM     24  H   UNL     1       7.692  10.366  17.403  0.00  0.00    +0.000 HD
BRANCH  23  25
ATOM     25  C   UNL     1       9.391  10.037  18.655  0.00  0.00    +0.000 C 
ATOM     26  C   UNL     1      10.169  11.156  17.969  0.00  0.00    +0.000 C 
ATOM     27  C   UNL     1      11.108  11.648  19.064  0.00  0.00    +0.000 C 
ATOM     28  C   UNL     1      10.353  11.441  20.377  0.00  0.00    +0.000 C 
ATOM     29  C   UNL     1       9.107  10.628  20.032  0.00  0.00    +0.000 C 
ENDBRANCH  23  25
ENDBRANCH  20  21
ENDBRANCH   1  20
TORSDOF 8
ENDMDL
MODEL 7
REMARK VINA RESULT:      -7.2      2.128      3.441
REMARK  Name = 
REMARK  9 active torsions:
REMARK  status: ('A' for Active; 'I' for Inactive)
REMARK    1  A    between atoms: C_1  and  O_2
REMARK    2  A    between atoms: O_2  and  C_3
REMARK    3  A    between atoms: C_6  and  S_7
REMARK    4  A    between atoms: S_7  and  N_10
REMARK    5  A    between atoms: N_10  and  C_11
REMARK    6  A    between atoms: C_11  and  C_12
REMARK    7  A    between atoms: C_11  and  C_21
REMARK    8  A    between atoms: C_12  and  C_13
REMARK    9  A    between atoms: N_15  and  C_16
REMARK                            x       y       z     vdW  Elec       q    Type
REMARK                         _______ _______ _______ _____ _____    ______ ____
ROOT
ATOM      1  C   UNL     1       6.528   5.335  17.731  0.00  0.00    +0.000 C 
ENDROOT
BRANCH   1   2
ATOM      2  C   UNL     1       7.181   6.682  17.844  0.00  0.00    +0.000 A 
ATOM      3  C   UNL     1       7.034   7.881  17.173  0.00  0.00    +0.000 A 
ATOM      4  C   UNL     1       7.947   8.788  17.760  0.00  0.00    +0.000 A 
ATOM      5  C   UNL     1       8.596   8.090  18.750  0.00  0.00    +0.000 A 
ATOM      6  O   UNL     1       8.131   6.816  18.819  0.00  0.00    +0.000 OA
ENDBRANCH   1   2
BRANCH   1   7
ATOM      7  N   UNL     1       5.111   5.551  17.361  0.00  0.00    +0.000 NA
ATOM      8  H   UNL     1       4.898   6.488  17.016  0.00  0.00    +0.000 HD
BRANCH   7   9
ATOM      9  S   UNL     1       3.851   4.936  18.277  0.00  0.00    +0.000 S 
ATOM     10  O   UNL     1       4.408   4.361  19.480  0.00  0.00    +0.000 OA
ATOM     11  O   UNL     1       3.037   4.152  17.373  0.00  0.00    +0.000 OA
BRANCH   9  15
ATOM     12  C   UNL     1       1.611   8.739  19.396  0.00  0.00    +0.000 A 
ATOM     13  C   UNL     1       2.215   8.610  18.142  0.00  0.00    +0.000 A 
ATOM     14  C   UNL     1       2.861   7.431  17.785  0.00  0.00    +0.000 A 
ATOM     15  C   UNL     1       2.932   6.386  18.708  0.00  0.00    +0.000 A 
ATOM     16  C   UNL     1       2.328   6.495  19.963  0.00  0.00    +0.000 A 
ATOM     17  C   UNL     1       1.668   7.680  20.307  0.00  0.00    +0.000 A 
BRANCH  12  19
ATOM     18  C   UNL     1       0.150  10.432  18.632  0.00  0.00    +0.000 C 
ATOM     19  O   UNL     1       1.041   9.958  19.633  0.00  0.00    +0.000 OA
ENDBRANCH  12  19
ENDBRANCH   9  15
ENDBRANCH   7   9
ENDBRANCH   1   7
BRANCH   1  20
ATOM     20  C   UNL     1       7.309   4.383  16.830  0.00  0.00    +0.000 C 
BRANCH  20  21
ATOM     21  C   UNL     1       7.138   4.624  15.344  0.00  0.00    +0.000 C 
ATOM     22  O   UNL     1       7.855   5.411  14.729  0.00  0.00    +0.000 OA
ATOM     23  N   UNL     1       6.137   3.895  14.747  0.00  0.00    +0.000 N 
ATOM     24  H   UNL     1       5.631   3.207  15.308  0.00  0.00    +0.000 HD
BRANCH  23  25
ATOM     25  C   UNL     1       5.857   3.979  13.329  0.00  0.00    +0.000 C 
ATOM     26  C   UNL     1       6.692   3.019  12.485  0.00  0.00    +0.000 C 
ATOM     27  C   UNL     1       5.945   2.985  11.157  0.00  0.00    +0.000 C 
ATOM     28  C   UNL     1       4.470   3.184  11.510  0.00  0.00    +0.000 C 
ATOM     29  C   UNL     1       4.430   3.560  12.990  0.00  0.00    +0.000 C 
ENDBRANCH  23  25
ENDBRANCH  20  21
ENDBRANCH   1  20
TORSDOF 8
ENDMDL
MODEL 8
REMARK VINA RESULT:      -7.1      2.844      3.724
REMARK  Name = 
REMARK  9 active torsions:
REMARK  status: ('A' for Active; 'I' for Inactive)
REMARK    1  A    between atoms: C_1  and  O_2
REMARK    2  A    between atoms: O_2  and  C_3
REMARK    3  A    between atoms: C_6  and  S_7
REMARK    4  A    between atoms: S_7  and  N_10
REMARK    5  A    between atoms: N_10  and  C_11
REMARK    6  A    between atoms: C_11  and  C_12
REMARK    7  A    between atoms: C_11  and  C_21
REMARK    8  A    between atoms: C_12  and  C_13
REMARK    9  A    between atoms: N_15  and  C_16
REMARK                            x       y       z     vdW  Elec       q    Type
REMARK                         _______ _______ _______ _____ _____    ______ ____
ROOT
ATOM      1  C   UNL     1       1.799   5.057  18.770  0.00  0.00    +0.000 C 
ENDROOT
BRANCH   1   2
ATOM      2  C   UNL     1       1.877   4.071  19.899  0.00  0.00    +0.000 A 
ATOM      3  C   UNL     1       0.938   3.458  20.706  0.00  0.00    +0.000 A 
ATOM      4  C   UNL     1       1.653   2.616  21.591  0.00  0.00    +0.000 A 
ATOM      5  C   UNL     1       2.982   2.768  21.273  0.00  0.00    +0.000 A 
ATOM      6  O   UNL     1       3.129   3.637  20.241  0.00  0.00    +0.000 OA
ENDBRANCH   1   2
BRANCH   1   7
ATOM      7  N   UNL     1       2.397   6.327  19.238  0.00  0.00    +0.000 NA
ATOM      8  H   UNL     1       2.450   6.426  20.253  0.00  0.00    +0.000 HD
BRANCH   7   9
ATOM      9  S   UNL     1       2.058   7.793  18.500  0.00  0.00    +0.000 S 
ATOM     10  O   UNL     1       1.013   7.574  17.527  0.00  0.00    +0.000 OA
ATOM     11  O   UNL     1       3.335   8.361  18.123  0.00  0.00    +0.000 OA
BRANCH   9  15
ATOM     12  C   UNL     1       0.276  10.199  21.929  0.00  0.00    +0.000 A 
ATOM     13  C   UNL     1       0.847   8.944  22.161  0.00  0.00    +0.000 A 
ATOM     14  C   UNL     1       1.431   8.229  21.120  0.00  0.00    +0.000 A 
ATOM     15  C   UNL     1       1.409   8.763  19.830  0.00  0.00    +0.000 A 
ATOM     16  C   UNL     1       0.849  10.019  19.582  0.00  0.00    +0.000 A 
ATOM     17  C   UNL     1       0.277  10.736  20.639  0.00  0.00    +0.000 A 
BRANCH  12  19
ATOM     18  C   UNL     1      -1.054  11.955  22.787  0.00  0.00    +0.000 C 
ATOM     19  O   UNL     1      -0.292  10.779  23.029  0.00  0.00    +0.000 OA
ENDBRANCH  12  19
ENDBRANCH   9  15
ENDBRANCH   7   9
ENDBRANCH   1   7
BRANCH   1  20
ATOM     20  C   UNL     1       2.370   4.498  17.470  0.00  0.00    +0.000 C 
BRANCH  20  21
ATOM     21  C   UNL     1       3.883   4.414  17.420  0.00  0.00    +0.000 C 
ATOM     22  O   UNL     1       4.463   3.378  17.101  0.00  0.00    +0.000 OA
ATOM     23  N   UNL     1       4.541   5.576  17.744  0.00  0.00    +0.000 N 
ATOM     24  H   UNL     1       3.990   6.416  17.927  0.00  0.00    +0.000 HD
BRANCH  23  25
ATOM     25  C   UNL     1       5.985   5.682  17.717  0.00  0.00    +0.000 C 
ATOM     26  C   UNL     1       6.487   7.077  17.353  0.00  0.00    +0.000 C 
ATOM     27  C   UNL     1       7.945   7.048  17.797  0.00  0.00    +0.000 C 
ATOM     28  C   UNL     1       7.988   6.114  19.008  0.00  0.00    +0.000 C 
ATOM     29  C   UNL     1       6.614   5.452  19.087  0.00  0.00    +0.000 C 
ENDBRANCH  23  25
ENDBRANCH  20  21
ENDBRANCH   1  20
TORSDOF 8
ENDMDL
MODEL 9
REMARK VINA RESULT:      -7.1      2.313      7.503
REMARK  Name = 
REMARK  9 active torsions:
REMARK  status: ('A' for Active; 'I' for Inactive)
REMARK    1  A    between atoms: C_1  and  O_2
REMARK    2  A    between atoms: O_2  and  C_3
REMARK    3  A    between atoms: C_6  and  S_7
REMARK    4  A    between atoms: S_7  and  N_10
REMARK    5  A    between atoms: N_10  and  C_11
REMARK    6  A    between atoms: C_11  and  C_12
REMARK    7  A    between atoms: C_11  and  C_21
REMARK    8  A    between atoms: C_12  and  C_13
REMARK    9  A    between atoms: N_15  and  C_16
REMARK                            x       y       z     vdW  Elec       q    Type
REMARK                         _______ _______ _______ _____ _____    ______ ____
ROOT
ATOM      1  C   UNL     1       3.806   5.393  19.016  0.00  0.00    +0.000 C 
ENDROOT
BRANCH   1   2
ATOM      2  C   UNL     1       2.815   4.527  19.737  0.00  0.00    +0.000 A 
ATOM      3  C   UNL     1       2.407   4.424  21.053  0.00  0.00    +0.000 A 
ATOM      4  C   UNL     1       1.423   3.407  21.094  0.00  0.00    +0.000 A 
ATOM      5  C   UNL     1       1.293   2.951  19.804  0.00  0.00    +0.000 A 
ATOM      6  O   UNL     1       2.121   3.631  18.971  0.00  0.00    +0.000 OA
ENDBRANCH   1   2
BRANCH   1   7
ATOM      7  N   UNL     1       5.019   4.581  18.770  0.00  0.00    +0.000 NA
ATOM      8  H   UNL     1       5.220   3.884  19.489  0.00  0.00    +0.000 HD
BRANCH   7   9
ATOM      9  S   UNL     1       6.428   5.251  18.159  0.00  0.00    +0.000 S 
ATOM     10  O   UNL     1       7.548   4.623  18.822  0.00  0.00    +0.000 OA
ATOM     11  O   UNL     1       6.240   6.686  18.188  0.00  0.00    +0.000 OA
BRANCH   9  15
ATOM     12  C   UNL     1       6.318   4.064  13.765  0.00  0.00    +0.000 A 
ATOM     13  C   UNL     1       7.271   4.974  14.234  0.00  0.00    +0.000 A 
ATOM     14  C   UNL     1       7.332   5.302  15.585  0.00  0.00    +0.000 A 
ATOM     15  C   UNL     1       6.405   4.740  16.465  0.00  0.00    +0.000 A 
ATOM     16  C   UNL     1       5.451   3.825  16.015  0.00  0.00    +0.000 A 
ATOM     17  C   UNL     1       5.408   3.490  14.656  0.00  0.00    +0.000 A 
BRANCH  12  19
ATOM     18  C   UNL     1       5.654   2.703  11.950  0.00  0.00    +0.000 C 
ATOM     19  O   UNL     1       6.344   3.856  12.415  0.00  0.00    +0.000 OA
ENDBRANCH  12  19
ENDBRANCH   9  15
ENDBRANCH   7   9
ENDBRANCH   1   7
BRANCH   1  20
ATOM     20  C   UNL     1       3.203   6.068  17.788  0.00  0.00    +0.000 C 
BRANCH  20  21
ATOM     21  C   UNL     1       2.850   7.531  17.971  0.00  0.00    +0.000 C 
ATOM     22  O   UNL     1       3.295   8.402  17.228  0.00  0.00    +0.000 OA
ATOM     23  N   UNL     1       1.995   7.796  19.014  0.00  0.00    +0.000 N 
ATOM     24  H   UNL     1       1.608   7.012  19.542  0.00  0.00    +0.000 HD
BRANCH  23  25
ATOM     25  C   UNL     1       1.528   9.134  19.313  0.00  0.00    +0.000 C 
ATOM     26  C   UNL     1       0.573   9.695  18.263  0.00  0.00    +0.000 C 
ATOM     27  C   UNL     1      -0.084  10.867  18.982  0.00  0.00    +0.000 C 
ATOM     28  C   UNL     1      -0.139  10.466  20.457  0.00  0.00    +0.000 C 
ATOM     29  C   UNL     1       0.689   9.189  20.585  0.00  0.00    +0.000 C 
ENDBRANCH  23  25
ENDBRANCH  20  21
ENDBRANCH   1  20
TORSDOF 8
ENDMDL
