MODEL 1
REMARK VINA RESULT:      -6.5      0.000      0.000
REMARK  Name = 
REMARK  6 active torsions:
REMARK  status: ('A' for Active; 'I' for Inactive)
REMARK    1  A    between atoms: C_1  and  C_2
REMARK    2  A    between atoms: C_2  and  C_3
REMARK    3  A    between atoms: C_2  and  N_4
REMARK    4  A    between atoms: C_8  and  C_10
REMARK    5  A    between atoms: C_13  and  C_14
REMARK    6  A    between atoms: C_14  and  N_15
REMARK                            x       y       z     vdW  Elec       q    Type
REMARK                         _______ _______ _______ _____ _____    ______ ____
ROOT
ATOM      1  C   UNL     1       1.463   9.260  19.635  0.00  0.00    +0.000 A 
ATOM      2  C   UNL     1       1.910   9.271  18.325  0.00  0.00    +0.000 A 
ATOM      3  C   UNL     1       2.196   7.961  17.855  0.00  0.00    +0.000 A 
ATOM      4  C   UNL     1       2.349   7.066  18.891  0.00  0.00    +0.000 A 
ATOM      5  S   UNL     1       1.873   7.773  20.387  0.00  0.00    +0.000 S 
ENDROOT
BRANCH   1  10
ATOM      6  N   UNL     1      -2.618  11.796  18.152  0.00  0.00    +0.000 NA
ATOM      7  C   UNL     1      -2.166  12.463  19.396  0.00  0.00    +0.000 C 
ATOM      8  C   UNL     1      -1.409  11.615  20.469  0.00  0.00    +0.000 C 
ATOM      9  N   UNL     1      -0.562  10.580  19.869  0.00  0.00    +0.000 N 
ATOM     10  C   UNL     1       0.711  10.278  20.371  0.00  0.00    +0.000 C 
ATOM     11  O   UNL     1       1.150  10.835  21.373  0.00  0.00    +0.000 OA
ATOM     12  C   UNL     1      -1.265   9.821  18.844  0.00  0.00    +0.000 C 
ATOM     13  C   UNL     1      -1.656  10.778  17.713  0.00  0.00    +0.000 C 
BRANCH   6  15
ATOM     14  C   UNL     1      -5.067  12.106  18.852  0.00  0.00    +0.000 C 
ATOM     15  C   UNL     1      -4.017  11.359  18.026  0.00  0.00    +0.000 C 
ATOM     16  C   UNL     1      -4.470  11.290  16.566  0.00  0.00    +0.000 C 
ENDBRANCH   6  15
ENDBRANCH   1  10
BRANCH   4  17
ATOM     17  C   UNL     1       2.792   5.635  18.817  0.00  0.00    +0.000 C 
BRANCH  17  18
ATOM     18  N   UNL     1       1.740   4.641  18.602  0.00  0.00    +0.000 NA
ATOM     19  C   UNL     1       1.122   4.085  19.813  0.00  0.00    +0.000 C 
ATOM     20  C   UNL     1       1.714   2.745  20.290  0.00  0.00    +0.000 C 
ATOM     21  O   UNL     1       1.755   1.782  19.229  0.00  0.00    +0.000 OA
ATOM     22  C   UNL     1       2.547   2.272  18.144  0.00  0.00    +0.000 C 
ATOM     23  C   UNL     1       1.999   3.601  17.600  0.00  0.00    +0.000 C 
ENDBRANCH  17  18
ENDBRANCH   4  17
TORSDOF 4
ENDMDL
MODEL 2
REMARK VINA RESULT:      -6.5      1.320      1.670
REMARK  Name = 
REMARK  6 active torsions:
REMARK  status: ('A' for Active; 'I' for Inactive)
REMARK    1  A    between atoms: C_1  and  C_2
REMARK    2  A    between atoms: C_2  and  C_3
REMARK    3  A    between atoms: C_2  and  N_4
REMARK    4  A    between atoms: C_8  and  C_10
REMARK    5  A    between atoms: C_13  and  C_14
REMARK    6  A    between atoms: C_14  and  N_15
REMARK                            x       y       z     vdW  Elec       q    Type
REMARK                         _______ _______ _______ _____ _____    ______ ____
ROOT
ATOM      1  C   UNL     1       1.375   9.595  19.557  0.00  0.00    +0.000 A 
ATOM      2  C   UNL     1       1.817   9.703  18.249  0.00  0.00    +0.000 A 
ATOM      3  C   UNL     1       2.082   8.431  17.676  0.00  0.00    +0.000 A 
ATOM      4  C   UNL     1       2.225   7.455  18.637  0.00  0.00    +0.000 A 
ATOM      5  S   UNL     1       1.766   8.048  20.187  0.00  0.00    +0.000 S 
ENDROOT
BRANCH   1  10
ATOM      6  N   UNL     1      -2.869  12.045  18.424  0.00  0.00    +0.000 NA
ATOM      7  C   UNL     1      -2.359  12.684  19.661  0.00  0.00    +0.000 C 
ATOM      8  C   UNL     1      -1.509  11.825  20.652  0.00  0.00    +0.000 C 
ATOM      9  N   UNL     1      -0.670  10.840  19.964  0.00  0.00    +0.000 N 
ATOM     10  C   UNL     1       0.640  10.563  20.375  0.00  0.00    +0.000 C 
ATOM     11  O   UNL     1       1.126  11.099  21.366  0.00  0.00    +0.000 OA
ATOM     12  C   UNL     1      -1.414  10.094  18.959  0.00  0.00    +0.000 C 
ATOM     13  C   UNL     1      -1.906  11.075  17.889  0.00  0.00    +0.000 C 
BRANCH   6  15
ATOM     14  C   UNL     1      -5.284  12.276  19.260  0.00  0.00    +0.000 C 
ATOM     15  C   UNL     1      -4.259  11.567  18.371  0.00  0.00    +0.000 C 
ATOM     16  C   UNL     1      -4.788  11.496  16.937  0.00  0.00    +0.000 C 
ENDBRANCH   6  15
ENDBRANCH   1  10
BRANCH   4  17
ATOM     17  C   UNL     1       2.647   6.027  18.448  0.00  0.00    +0.000 C 
BRANCH  17  18
ATOM     18  N   UNL     1       3.418   5.429  19.538  0.00  0.00    +0.000 NA
ATOM     19  C   UNL     1       4.877   5.418  19.366  0.00  0.00    +0.000 C 
ATOM     20  C   UNL     1       5.456   4.111  18.795  0.00  0.00    +0.000 C 
ATOM     21  O   UNL     1       5.003   2.969  19.535  0.00  0.00    +0.000 OA
ATOM     22  C   UNL     1       3.576   2.890  19.504  0.00  0.00    +0.000 C 
ATOM     23  C   UNL     1       2.928   4.158  20.083  0.00  0.00    +0.000 C 
ENDBRANCH  17  18
ENDBRANCH   4  17
TORSDOF 4
ENDMDL
MODEL 3
REMARK VINA RESULT:      -6.5      6.250      9.554
REMARK  Name = 
REMARK  6 active torsions:
REMARK  status: ('A' for Active; 'I' for Inactive)
REMARK    1  A    between atoms: C_1  and  C_2
REMARK    2  A    between atoms: C_2  and  C_3
REMARK    3  A    between atoms: C_2  and  N_4
REMARK    4  A    between atoms: C_8  and  C_10
REMARK    5  A    between atoms: C_13  and  C_14
REMARK    6  A    between atoms: C_14  and  N_15
REMARK                            x       y       z     vdW  Elec       q    Type
REMARK                         _______ _______ _______ _____ _____    ______ ____
ROOT
ATOM      1  C   UNL     1       7.236   5.887  17.461  0.00  0.00    +0.000 A 
ATOM      2  C   UNL     1       8.078   5.936  18.560  0.00  0.00    +0.000 A 
ATOM      3  C   UNL     1       8.293   7.270  18.999  0.00  0.00    +0.000 A 
ATOM      4  C   UNL     1       7.962   8.190  18.029  0.00  0.00    +0.000 A 
ATOM      5  S   UNL     1       7.145   7.430  16.717  0.00  0.00    +0.000 S 
ENDROOT
BRANCH   1  10
ATOM      6  N   UNL     1       3.204   3.677  19.498  0.00  0.00    +0.000 NA
ATOM      7  C   UNL     1       3.608   2.805  18.370  0.00  0.00    +0.000 C 
ATOM      8  C   UNL     1       4.328   3.451  17.143  0.00  0.00    +0.000 C 
ATOM      9  N   UNL     1       5.200   4.565  17.528  0.00  0.00    +0.000 N 
ATOM     10  C   UNL     1       6.454   4.765  16.937  0.00  0.00    +0.000 C 
ATOM     11  O   UNL     1       6.856   4.042  16.029  0.00  0.00    +0.000 OA
ATOM     12  C   UNL     1       4.537   5.493  18.432  0.00  0.00    +0.000 C 
ATOM     13  C   UNL     1       4.184   4.746  19.724  0.00  0.00    +0.000 C 
BRANCH   6  15
ATOM     14  C   UNL     1       0.723   3.080  19.767  0.00  0.00    +0.000 C 
ATOM     15  C   UNL     1       1.811   4.142  19.597  0.00  0.00    +0.000 C 
ATOM     16  C   UNL     1       1.641   5.224  20.665  0.00  0.00    +0.000 C 
ENDBRANCH   6  15
ENDBRANCH   1  10
BRANCH   4  17
ATOM     17  C   UNL     1       8.177   9.674  18.052  0.00  0.00    +0.000 C 
BRANCH  17  18
ATOM     18  N   UNL     1       9.430  10.138  18.648  0.00  0.00    +0.000 NA
ATOM     19  C   UNL     1       9.354  10.580  20.047  0.00  0.00    +0.000 C 
ATOM     20  C   UNL     1       9.182  12.098  20.243  0.00  0.00    +0.000 C 
ATOM     21  O   UNL     1      10.168  12.837  19.510  0.00  0.00    +0.000 OA
ATOM     22  C   UNL     1      10.073  12.542  18.114  0.00  0.00    +0.000 C 
ATOM     23  C   UNL     1      10.259  11.040  17.840  0.00  0.00    +0.000 C 
ENDBRANCH  17  18
ENDBRANCH   4  17
TORSDOF 4
ENDMDL
MODEL 4
REMARK VINA RESULT:      -6.2      2.786      3.951
REMARK  Name = 
REMARK  6 active torsions:
REMARK  status: ('A' for Active; 'I' for Inactive)
REMARK    1  A    between atoms: C_1  and  C_2
REMARK    2  A    between atoms: C_2  and  C_3
REMARK    3  A    between atoms: C_2  and  N_4
REMARK    4  A    between atoms: C_8  and  C_10
REMARK    5  A    between atoms: C_13  and  C_14
REMARK    6  A    between atoms: C_14  and  N_15
REMARK                            x       y       z     vdW  Elec       q    Type
REMARK                         _______ _______ _______ _____ _____    ______ ____
ROOT
ATOM      1  C   UNL     1       2.908   6.966  18.375  0.00  0.00    +0.000 A 
ATOM      2  C   UNL     1       4.156   6.679  18.900  0.00  0.00    +0.000 A 
ATOM      3  C   UNL     1       4.552   5.344  18.618  0.00  0.00    +0.000 A 
ATOM      4  C   UNL     1       3.481   4.556  18.261  0.00  0.00    +0.000 A 
ATOM      5  S   UNL     1       2.071   5.513  18.011  0.00  0.00    +0.000 S 
ENDROOT
BRANCH   1  10
ATOM      6  N   UNL     1      -0.421   9.522  21.145  0.00  0.00    +0.000 NA
ATOM      7  C   UNL     1      -0.365  10.226  19.842  0.00  0.00    +0.000 C 
ATOM      8  C   UNL     1       0.962  10.174  19.019  0.00  0.00    +0.000 C 
ATOM      9  N   UNL     1       1.664   8.896  19.167  0.00  0.00    +0.000 N 
ATOM     10  C   UNL     1       2.295   8.265  18.087  0.00  0.00    +0.000 C 
ATOM     11  O   UNL     1       2.330   8.784  16.975  0.00  0.00    +0.000 OA
ATOM     12  C   UNL     1       1.768   8.486  20.560  0.00  0.00    +0.000 C 
ATOM     13  C   UNL     1       0.354   8.276  21.112  0.00  0.00    +0.000 C 
BRANCH   6  15
ATOM     14  C   UNL     1      -1.323  11.296  22.765  0.00  0.00    +0.000 C 
ATOM     15  C   UNL     1      -0.239  10.281  22.392  0.00  0.00    +0.000 C 
ATOM     16  C   UNL     1       0.039   9.367  23.587  0.00  0.00    +0.000 C 
ENDBRANCH   6  15
ENDBRANCH   1  10
BRANCH   4  17
ATOM     17  C   UNL     1       3.462   3.074  18.028  0.00  0.00    +0.000 C 
BRANCH  17  18
ATOM     18  N   UNL     1       2.955   2.251  19.126  0.00  0.00    +0.000 NA
ATOM     19  C   UNL     1       1.520   1.940  19.089  0.00  0.00    +0.000 C 
ATOM     20  C   UNL     1       0.629   2.874  19.929  0.00  0.00    +0.000 C 
ATOM     21  O   UNL     1       1.110   2.989  21.275  0.00  0.00    +0.000 OA
ATOM     22  C   UNL     1       2.445   3.500  21.284  0.00  0.00    +0.000 C 
ATOM     23  C   UNL     1       3.399   2.601  20.481  0.00  0.00    +0.000 C 
ENDBRANCH  17  18
ENDBRANCH   4  17
TORSDOF 4
ENDMDL
MODEL 5
REMARK VINA RESULT:      -6.1      6.471      9.765
REMARK  Name = 
REMARK  6 active torsions:
REMARK  status: ('A' for Active; 'I' for Inactive)
REMARK    1  A    between atoms: C_1  and  C_2
REMARK    2  A    between atoms: C_2  and  C_3
REMARK    3  A    between atoms: C_2  and  N_4
REMARK    4  A    between atoms: C_8  and  C_10
REMARK    5  A    between atoms: C_13  and  C_14
REMARK    6  A    between atoms: C_14  and  N_15
REMARK                            x       y       z     vdW  Elec       q    Type
REMARK                         _______ _______ _______ _____ _____    ______ ____
ROOT
ATOM      1  C   UNL     1       7.024   6.780  17.516  0.00  0.00    +0.000 A 
ATOM      2  C   UNL     1       6.620   8.018  17.046  0.00  0.00    +0.000 A 
ATOM      3  C   UNL     1       7.528   9.045  17.421  0.00  0.00    +0.000 A 
ATOM      4  C   UNL     1       8.342   8.656  18.461  0.00  0.00    +0.000 A 
ATOM      5  S   UNL     1       8.174   6.971  18.774  0.00  0.00    +0.000 S 
ENDROOT
BRANCH   1  10
ATOM      6  N   UNL     1       3.350   3.838  19.289  0.00  0.00    +0.000 NA
ATOM      7  C   UNL     1       4.140   2.980  18.375  0.00  0.00    +0.000 C 
ATOM      8  C   UNL     1       4.884   3.649  17.175  0.00  0.00    +0.000 C 
ATOM      9  N   UNL     1       5.384   4.988  17.501  0.00  0.00    +0.000 N 
ATOM     10  C   UNL     1       6.636   5.441  17.065  0.00  0.00    +0.000 C 
ATOM     11  O   UNL     1       7.349   4.751  16.343  0.00  0.00    +0.000 OA
ATOM     12  C   UNL     1       4.372   5.807  18.153  0.00  0.00    +0.000 C 
ATOM     13  C   UNL     1       3.992   5.145  19.482  0.00  0.00    +0.000 C 
BRANCH   6  15
ATOM     14  C   UNL     1       1.163   2.700  18.581  0.00  0.00    +0.000 C 
ATOM     15  C   UNL     1       1.891   3.932  19.123  0.00  0.00    +0.000 C 
ATOM     16  C   UNL     1       1.197   4.418  20.397  0.00  0.00    +0.000 C 
ENDBRANCH   6  15
ENDBRANCH   1  10
BRANCH   4  17
ATOM     17  C   UNL     1       9.323   9.492  19.228  0.00  0.00    +0.000 C 
BRANCH  17  18
ATOM     18  N   UNL     1       9.346  10.920  18.909  0.00  0.00    +0.000 NA
ATOM     19  C   UNL     1      10.326  11.338  17.897  0.00  0.00    +0.000 C 
ATOM     20  C   UNL     1      11.659  11.867  18.460  0.00  0.00    +0.000 C 
ATOM     21  O   UNL     1      11.445  12.890  19.442  0.00  0.00    +0.000 OA
ATOM     22  C   UNL     1      10.660  12.383  20.524  0.00  0.00    +0.000 C 
ATOM     23  C   UNL     1       9.300  11.857  20.037  0.00  0.00    +0.000 C 
ENDBRANCH  17  18
ENDBRANCH   4  17
TORSDOF 4
ENDMDL
MODEL 6
REMARK VINA RESULT:      -6.1      1.959      2.426
REMARK  Name = 
REMARK  6 active torsions:
REMARK  status: ('A' for Active; 'I' for Inactive)
REMARK    1  A    between atoms: C_1  and  C_2
REMARK    2  A    between atoms: C_2  and  C_3
REMARK    3  A    between atoms: C_2  and  N_4
REMARK    4  A    between atoms: C_8  and  C_10
REMARK    5  A    between atoms: C_13  and  C_14
REMARK    6  A    between atoms: C_14  and  N_15
REMARK                            x       y       z     vdW  Elec       q    Type
REMARK                         _______ _______ _______ _____ _____    ______ ____
ROOT
ATOM      1  C   UNL     1       1.387   9.594  19.568  0.00  0.00    +0.000 A 
ATOM      2  C   UNL     1       1.844   9.809  18.279  0.00  0.00    +0.000 A 
ATOM      3  C   UNL     1       2.123   8.589  17.608  0.00  0.00    +0.000 A 
ATOM      4  C   UNL     1       2.261   7.539  18.489  0.00  0.00    +0.000 A 
ATOM      5  S   UNL     1       1.780   8.003  20.076  0.00  0.00    +0.000 S 
ENDROOT
BRANCH   1  10
ATOM      6  N   UNL     1      -2.843  12.127  18.577  0.00  0.00    +0.000 NA
ATOM      7  C   UNL     1      -2.354  12.659  19.871  0.00  0.00    +0.000 C 
ATOM      8  C   UNL     1      -1.519  11.722  20.801  0.00  0.00    +0.000 C 
ATOM      9  N   UNL     1      -0.667  10.798  20.045  0.00  0.00    +0.000 N 
ATOM     10  C   UNL     1       0.637  10.489  20.452  0.00  0.00    +0.000 C 
ATOM     11  O   UNL     1       1.106  10.941  21.493  0.00  0.00    +0.000 OA
ATOM     12  C   UNL     1      -1.393  10.138  18.970  0.00  0.00    +0.000 C 
ATOM     13  C   UNL     1      -1.870  11.206  17.978  0.00  0.00    +0.000 C 
BRANCH   6  15
ATOM     14  C   UNL     1      -5.281  12.320  19.354  0.00  0.00    +0.000 C 
ATOM     15  C   UNL     1      -4.232  11.653  18.462  0.00  0.00    +0.000 C 
ATOM     16  C   UNL     1      -4.720  11.651  17.012  0.00  0.00    +0.000 C 
ENDBRANCH   6  15
ENDBRANCH   1  10
BRANCH   4  17
ATOM     17  C   UNL     1       2.693   6.134  18.190  0.00  0.00    +0.000 C 
BRANCH  17  18
ATOM     18  N   UNL     1       4.134   5.883  18.198  0.00  0.00    +0.000 NA
ATOM     19  C   UNL     1       4.937   6.711  17.287  0.00  0.00    +0.000 C 
ATOM     20  C   UNL     1       5.252   6.063  15.926  0.00  0.00    +0.000 C 
ATOM     21  O   UNL     1       5.816   4.755  16.085  0.00  0.00    +0.000 OA
ATOM     22  C   UNL     1       4.911   3.907  16.797  0.00  0.00    +0.000 C 
ATOM     23  C   UNL     1       4.569   4.482  18.181  0.00  0.00    +0.000 C 
ENDBRANCH  17  18
ENDBRANCH   4  17
TORSDOF 4
ENDMDL
MODEL 7
REMARK VINA RESULT:      -6.1      1.689      2.077
REMARK  Name = 
REMARK  6 active torsions:
REMARK  status: ('A' for Active; 'I' for Inactive)
REMARK    1  A    between atoms: C_1  and  C_2
REMARK    2  A    between atoms: C_2  and  C_3
REMARK    3  A    between atoms: C_2  and  N_4
REMARK    4  A    between atoms: C_8  and  C_10
REMARK    5  A    between atoms: C_13  and  C_14
REMARK    6  A    between atoms: C_14  and  N_15
REMARK                            x       y       z     vdW  Elec       q    Type
REMARK                         _______ _______ _______ _____ _____    ______ ____
ROOT
ATOM      1  C   UNL     1       1.387   9.548  19.587  0.00  0.00    +0.000 A 
ATOM      2  C   UNL     1       1.882   9.678  18.300  0.00  0.00    +0.000 A 
ATOM      3  C   UNL     1       2.090   8.415  17.685  0.00  0.00    +0.000 A 
ATOM      4  C   UNL     1       2.139   7.396  18.611  0.00  0.00    +0.000 A 
ATOM      5  S   UNL     1       1.661   7.957  20.167  0.00  0.00    +0.000 S 
ENDROOT
BRANCH   1  10
ATOM      6  N   UNL     1      -2.815  12.096  18.516  0.00  0.00    +0.000 NA
ATOM      7  C   UNL     1      -2.277  12.717  19.750  0.00  0.00    +0.000 C 
ATOM      8  C   UNL     1      -1.435  11.835  20.727  0.00  0.00    +0.000 C 
ATOM      9  N   UNL     1      -0.626  10.835  20.024  0.00  0.00    +0.000 N 
ATOM     10  C   UNL     1       0.683  10.527  20.418  0.00  0.00    +0.000 C 
ATOM     11  O   UNL     1       1.192  11.048  21.406  0.00  0.00    +0.000 OA
ATOM     12  C   UNL     1      -1.397  10.110  19.024  0.00  0.00    +0.000 C 
ATOM     13  C   UNL     1      -1.879  11.108  17.965  0.00  0.00    +0.000 C 
BRANCH   6  15
ATOM     14  C   UNL     1      -5.244  12.480  19.247  0.00  0.00    +0.000 C 
ATOM     15  C   UNL     1      -4.216  11.648  18.476  0.00  0.00    +0.000 C 
ATOM     16  C   UNL     1      -4.708  11.424  17.045  0.00  0.00    +0.000 C 
ENDBRANCH   6  15
ENDBRANCH   1  10
BRANCH   4  17
ATOM     17  C   UNL     1       2.480   5.953  18.378  0.00  0.00    +0.000 C 
BRANCH  17  18
ATOM     18  N   UNL     1       3.742   5.689  17.686  0.00  0.00    +0.000 NA
ATOM     19  C   UNL     1       3.957   4.304  17.244  0.00  0.00    +0.000 C 
ATOM     20  C   UNL     1       4.784   3.434  18.209  0.00  0.00    +0.000 C 
ATOM     21  O   UNL     1       6.018   4.072  18.566  0.00  0.00    +0.000 OA
ATOM     22  C   UNL     1       5.763   5.332  19.191  0.00  0.00    +0.000 C 
ATOM     23  C   UNL     1       4.958   6.266  18.272  0.00  0.00    +0.000 C 
ENDBRANCH  17  18
ENDBRANCH   4  17
TORSDOF 4
ENDMDL
MODEL 8
REMARK VINA RESULT:      -6.0      2.943      3.833
REMARK  Name = 
REMARK  6 active torsions:
REMARK  status: ('A' for Active; 'I' for Inactive)
REMARK    1  A    between atoms: C_1  and  C_2
REMARK    2  A    between atoms: C_2  and  C_3
REMARK    3  A    between atoms: C_2  and  N_4
REMARK    4  A    between atoms: C_8  and  C_10
REMARK    5  A    between atoms: C_13  and  C_14
REMARK    6  A    between atoms: C_14  and  N_15
REMARK                            x       y       z     vdW  Elec       q    Type
REMARK                         _______ _______ _______ _____ _____    ______ ____
ROOT
ATOM      1  C   UNL     1       1.042   9.637  18.965  0.00  0.00    +0.000 A 
ATOM      2  C   UNL     1       1.761   9.264  17.841  0.00  0.00    +0.000 A 
ATOM      3  C   UNL     1       2.266   7.941  17.953  0.00  0.00    +0.000 A 
ATOM      4  C   UNL     1       2.273   7.504  19.259  0.00  0.00    +0.000 A 
ATOM      5  S   UNL     1       1.418   8.597  20.277  0.00  0.00    +0.000 S 
ENDROOT
BRANCH   1  10
ATOM      6  N   UNL     1       1.850  14.571  19.506  0.00  0.00    +0.000 NA
ATOM      7  C   UNL     1       0.410  14.369  19.795  0.00  0.00    +0.000 C 
ATOM      8  C   UNL     1      -0.335  13.183  19.103  0.00  0.00    +0.000 C 
ATOM      9  N   UNL     1       0.525  12.009  18.925  0.00  0.00    +0.000 N 
ATOM     10  C   UNL     1       0.054  10.705  19.127  0.00  0.00    +0.000 C 
ATOM     11  O   UNL     1      -1.120  10.487  19.413  0.00  0.00    +0.000 OA
ATOM     12  C   UNL     1       1.820  12.359  18.358  0.00  0.00    +0.000 C 
ATOM     13  C   UNL     1       2.544  13.288  19.338  0.00  0.00    +0.000 C 
BRANCH   6  15
ATOM     14  C   UNL     1       1.841  17.031  18.779  0.00  0.00    +0.000 C 
ATOM     15  C   UNL     1       2.261  15.582  18.520  0.00  0.00    +0.000 C 
ATOM     16  C   UNL     1       3.762  15.528  18.231  0.00  0.00    +0.000 C 
ENDBRANCH   6  15
ENDBRANCH   1  10
BRANCH   4  17
ATOM     17  C   UNL     1       2.856   6.232  19.803  0.00  0.00    +0.000 C 
BRANCH  17  18
ATOM     18  N   UNL     1       2.140   4.999  19.476  0.00  0.00    +0.000 NA
ATOM     19  C   UNL     1       1.237   4.483  20.514  0.00  0.00    +0.000 C 
ATOM     20  C   UNL     1       1.843   3.399  21.424  0.00  0.00    +0.000 C 
ATOM     21  O   UNL     1       2.427   2.337  20.658  0.00  0.00    +0.000 OA
ATOM     22  C   UNL     1       3.456   2.847  19.806  0.00  0.00    +0.000 C 
ATOM     23  C   UNL     1       2.916   3.923  18.850  0.00  0.00    +0.000 C 
ENDBRANCH  17  18
ENDBRANCH   4  17
TORSDOF 4
ENDMDL
MODEL 9
REMARK VINA RESULT:      -6.0      2.158      2.634
REMARK  Name = 
REMARK  6 active torsions:
REMARK  status: ('A' for Active; 'I' for Inactive)
REMARK    1  A    between atoms: C_1  and  C_2
REMARK    2  A    between atoms: C_2  and  C_3
REMARK    3  A    between atoms: C_2  and  N_4
REMARK    4  A    between atoms: C_8  and  C_10
REMARK    5  A    between atoms: C_13  and  C_14
REMARK    6  A    between atoms: C_14  and  N_15
REMARK                            x       y       z     vdW  Elec       q    Type
REMARK                         _______ _______ _______ _____ _____    ______ ____
ROOT
ATOM      1  C   UNL     1       1.334   8.950  19.885  0.00  0.00    +0.000 A 
ATOM      2  C   UNL     1       1.455   7.697  20.462  0.00  0.00    +0.000 A 
ATOM      3  C   UNL     1       2.433   6.905  19.804  0.00  0.00    +0.000 A 
ATOM      4  C   UNL     1       2.728   7.392  18.550  0.00  0.00    +0.000 A 
ATOM      5  S   UNL     1       2.019   8.943  18.312  0.00  0.00    +0.000 S 
ENDROOT
BRANCH   1  10
ATOM      6  N   UNL     1      -2.470  11.711  18.098  0.00  0.00    +0.000 NA
ATOM      7  C   UNL     1      -1.857  12.526  19.173  0.00  0.00    +0.000 C 
ATOM      8  C   UNL     1      -1.151  11.794  20.359  0.00  0.00    +0.000 C 
ATOM      9  N   UNL     1      -0.484  10.559  19.937  0.00  0.00    +0.000 N 
ATOM     10  C   UNL     1       0.768  10.181  20.440  0.00  0.00    +0.000 C 
ATOM     11  O   UNL     1       1.339  10.846  21.299  0.00  0.00    +0.000 OA
ATOM     12  C   UNL     1      -1.343   9.729  19.105  0.00  0.00    +0.000 C 
ATOM     13  C   UNL     1      -1.677  10.506  17.826  0.00  0.00    +0.000 C 
BRANCH   6  15
ATOM     14  C   UNL     1      -4.766  12.252  19.108  0.00  0.00    +0.000 C 
ATOM     15  C   UNL     1      -3.919  11.457  18.111  0.00  0.00    +0.000 C 
ATOM     16  C   UNL     1      -4.535  11.568  16.715  0.00  0.00    +0.000 C 
ENDBRANCH   6  15
ENDBRANCH   1  10
BRANCH   4  17
ATOM     17  C   UNL     1       3.594   6.766  17.497  0.00  0.00    +0.000 C 
BRANCH  17  18
ATOM     18  N   UNL     1       4.336   5.569  17.895  0.00  0.00    +0.000 NA
ATOM     19  C   UNL     1       5.723   5.785  18.328  0.00  0.00    +0.000 C 
ATOM     20  C   UNL     1       6.787   5.574  17.235  0.00  0.00    +0.000 C 
ATOM     21  O   UNL     1       6.629   4.306  16.585  0.00  0.00    +0.000 OA
ATOM     22  C   UNL     1       5.333   4.213  15.987  0.00  0.00    +0.000 C 
ATOM     23  C   UNL     1       4.216   4.391  17.028  0.00  0.00    +0.000 C 
ENDBRANCH  17  18
ENDBRANCH   4  17
TORSDOF 4
ENDMDL
