MODEL 1
REMARK VINA RESULT:      -9.7      0.000      0.000
REMARK  Name = 
REMARK  4 active torsions:
REMARK  status: ('A' for Active; 'I' for Inactive)
REMARK    1  A    between atoms: C_1  and  C_2
REMARK    2  A    between atoms: C_5  and  C_6
REMARK    3  A    between atoms: C_11  and  C_13
REMARK    4  A    between atoms: C_13  and  N_14
REMARK                            x       y       z     vdW  Elec       q    Type
REMARK                         _______ _______ _______ _____ _____    ______ ____
ROOT
ATOM      1  C   UNL     1       0.959   9.298  19.922  0.00  0.00    +0.000 A 
ATOM      2  C   UNL     1       1.309   9.723  18.653  0.00  0.00    +0.000 A 
ATOM      3  S   UNL     1       2.355   8.568  17.915  0.00  0.00    +0.000 S 
ATOM      4  C   UNL     1       2.191   7.577  19.291  0.00  0.00    +0.000 A 
ATOM      5  N   UNL     1       2.823   6.366  19.222  0.00  0.00    +0.000 N 
ATOM      6  C   UNL     1       2.547   5.362  20.135  0.00  0.00    +0.000 C 
ATOM      7  O   UNL     1       1.722   5.409  21.045  0.00  0.00    +0.000 OA
ATOM      8  N   UNL     1       1.482   8.062  20.271  0.00  0.00    +0.000 NA
ATOM      9  H   UNL     1       3.375   6.187  18.395  0.00  0.00    +0.000 HD
ENDROOT
BRANCH   1  14
ATOM     10  C   UNL     1      -2.407  12.318  23.531  0.00  0.00    +0.000 C 
ATOM     11  C   UNL     1      -1.549  11.505  22.612  0.00  0.00    +0.000 A 
ATOM     12  C   UNL     1      -0.869  10.371  23.066  0.00  0.00    +0.000 A 
ATOM     13  C   UNL     1      -0.053   9.631  22.200  0.00  0.00    +0.000 A 
ATOM     14  C   UNL     1       0.102  10.017  20.864  0.00  0.00    +0.000 A 
ATOM     15  C   UNL     1      -0.593  11.151  20.413  0.00  0.00    +0.000 A 
ATOM     16  C   UNL     1      -1.409  11.888  21.275  0.00  0.00    +0.000 A 
ENDBRANCH   1  14
BRANCH   6  17
ATOM     17  C   UNL     1       3.373   4.096  19.912  0.00  0.00    +0.000 C 
BRANCH  17  18
ATOM     18  N   UNL     1       4.345   4.278  18.844  0.00  0.00    +0.000 N 
ATOM     19  N   UNL     1       5.648   4.575  19.249  0.00  0.00    +0.000 N 
ATOM     20  C   UNL     1       6.682   4.785  18.376  0.00  0.00    +0.000 A 
ATOM     21  O   UNL     1       7.797   5.115  18.757  0.00  0.00    +0.000 OA
ATOM     22  C   UNL     1       6.384   4.610  16.940  0.00  0.00    +0.000 A 
ATOM     23  C   UNL     1       7.423   4.690  16.000  0.00  0.00    +0.000 A 
ATOM     24  C   UNL     1       7.149   4.521  14.640  0.00  0.00    +0.000 A 
ATOM     25  C   UNL     1       5.842   4.298  14.218  0.00  0.00    +0.000 A 
ATOM     26  C   UNL     1       4.804   4.223  15.153  0.00  0.00    +0.000 A 
ATOM     27  C   UNL     1       5.078   4.363  16.519  0.00  0.00    +0.000 A 
ATOM     28  C   UNL     1       3.988   4.213  17.509  0.00  0.00    +0.000 A 
ATOM     29  O   UNL     1       2.831   4.027  17.141  0.00  0.00    +0.000 OA
ATOM     30  H   UNL     1       5.861   4.639  20.243  0.00  0.00    +0.000 HD
ENDBRANCH  17  18
ENDBRANCH   6  17
TORSDOF 3
ENDMDL
MODEL 2
REMARK VINA RESULT:      -9.5      3.510      9.737
REMARK  Name = 
REMARK  4 active torsions:
REMARK  status: ('A' for Active; 'I' for Inactive)
REMARK    1  A    between atoms: C_1  and  C_2
REMARK    2  A    between atoms: C_5  and  C_6
REMARK    3  A    between atoms: C_11  and  C_13
REMARK    4  A    between atoms: C_13  and  N_14
REMARK                            x       y       z     vdW  Elec       q    Type
REMARK                         _______ _______ _______ _____ _____    ______ ____
ROOT
ATOM      1  C   UNL     1       3.362   5.933  18.271  0.00  0.00    +0.000 A 
ATOM      2  C   UNL     1       2.887   5.202  19.345  0.00  0.00    +0.000 A 
ATOM      3  S   UNL     1       1.961   6.220  20.385  0.00  0.00    +0.000 S 
ATOM      4  C   UNL     1       2.197   7.506  19.294  0.00  0.00    +0.000 A 
ATOM      5  N   UNL     1       1.559   8.673  19.615  0.00  0.00    +0.000 N 
ATOM      6  C   UNL     1       1.434   9.697  18.690  0.00  0.00    +0.000 C 
ATOM      7  O   UNL     1       1.821   9.679  17.524  0.00  0.00    +0.000 OA
ATOM      8  N   UNL     1       2.957   7.259  18.265  0.00  0.00    +0.000 NA
ATOM      9  H   UNL     1       1.054   8.690  20.489  0.00  0.00    +0.000 HD
ENDROOT
BRANCH   1  14
ATOM     10  C   UNL     1       6.645   4.096  13.875  0.00  0.00    +0.000 C 
ATOM     11  C   UNL     1       5.811   4.546  15.035  0.00  0.00    +0.000 A 
ATOM     12  C   UNL     1       5.226   3.625  15.910  0.00  0.00    +0.000 A 
ATOM     13  C   UNL     1       4.431   4.059  16.979  0.00  0.00    +0.000 A 
ATOM     14  C   UNL     1       4.202   5.424  17.188  0.00  0.00    +0.000 A 
ATOM     15  C   UNL     1       4.801   6.342  16.311  0.00  0.00    +0.000 A 
ATOM     16  C   UNL     1       5.596   5.911  15.247  0.00  0.00    +0.000 A 
ENDBRANCH   1  14
BRANCH   6  17
ATOM     17  C   UNL     1       0.716  10.928  19.243  0.00  0.00    +0.000 C 
BRANCH  17  18
ATOM     18  N   UNL     1      -0.654  11.006  18.757  0.00  0.00    +0.000 N 
ATOM     19  N   UNL     1      -0.920  10.324  17.568  0.00  0.00    +0.000 N 
ATOM     20  C   UNL     1      -2.151  10.301  16.968  0.00  0.00    +0.000 A 
ATOM     21  O   UNL     1      -2.337   9.756  15.889  0.00  0.00    +0.000 OA
ATOM     22  C   UNL     1      -3.249  10.985  17.680  0.00  0.00    +0.000 A 
ATOM     23  C   UNL     1      -4.559  10.896  17.185  0.00  0.00    +0.000 A 
ATOM     24  C   UNL     1      -5.604  11.537  17.856  0.00  0.00    +0.000 A 
ATOM     25  C   UNL     1      -5.339  12.281  19.002  0.00  0.00    +0.000 A 
ATOM     26  C   UNL     1      -4.034  12.375  19.495  0.00  0.00    +0.000 A 
ATOM     27  C   UNL     1      -2.988  11.711  18.841  0.00  0.00    +0.000 A 
ATOM     28  C   UNL     1      -1.620  11.755  19.405  0.00  0.00    +0.000 A 
ATOM     29  O   UNL     1      -1.380  12.419  20.410  0.00  0.00    +0.000 OA
ATOM     30  H   UNL     1      -0.171   9.807  17.110  0.00  0.00    +0.000 HD
ENDBRANCH  17  18
ENDBRANCH   6  17
TORSDOF 3
ENDMDL
MODEL 3
REMARK VINA RESULT:      -9.3      3.770      9.885
REMARK  Name = 
REMARK  4 active torsions:
REMARK  status: ('A' for Active; 'I' for Inactive)
REMARK    1  A    between atoms: C_1  and  C_2
REMARK    2  A    between atoms: C_5  and  C_6
REMARK    3  A    between atoms: C_11  and  C_13
REMARK    4  A    between atoms: C_13  and  N_14
REMARK                            x       y       z     vdW  Elec       q    Type
REMARK                         _______ _______ _______ _____ _____    ______ ____
ROOT
ATOM      1  C   UNL     1       3.026   6.395  18.587  0.00  0.00    +0.000 A 
ATOM      2  C   UNL     1       2.576   5.746  19.722  0.00  0.00    +0.000 A 
ATOM      3  S   UNL     1       1.657   6.834  20.695  0.00  0.00    +0.000 S 
ATOM      4  C   UNL     1       1.863   8.033  19.503  0.00  0.00    +0.000 A 
ATOM      5  N   UNL     1       1.218   9.216  19.742  0.00  0.00    +0.000 N 
ATOM      6  C   UNL     1       1.069  10.164  18.743  0.00  0.00    +0.000 C 
ATOM      7  O   UNL     1       1.437  10.058  17.575  0.00  0.00    +0.000 OA
ATOM      8  N   UNL     1       2.608   7.713  18.483  0.00  0.00    +0.000 NA
ATOM      9  H   UNL     1       0.728   9.298  20.621  0.00  0.00    +0.000 HD
ENDROOT
BRANCH   1  14
ATOM     10  C   UNL     1       6.306   3.898  14.526  0.00  0.00    +0.000 C 
ATOM     11  C   UNL     1       5.448   4.571  15.553  0.00  0.00    +0.000 A 
ATOM     12  C   UNL     1       5.433   5.962  15.689  0.00  0.00    +0.000 A 
ATOM     13  C   UNL     1       4.642   6.577  16.668  0.00  0.00    +0.000 A 
ATOM     14  C   UNL     1       3.853   5.809  17.532  0.00  0.00    +0.000 A 
ATOM     15  C   UNL     1       3.865   4.414  17.381  0.00  0.00    +0.000 A 
ATOM     16  C   UNL     1       4.651   3.800  16.404  0.00  0.00    +0.000 A 
ENDBRANCH   1  14
BRANCH   6  17
ATOM     17  C   UNL     1       0.348  11.428  19.210  0.00  0.00    +0.000 C 
BRANCH  17  18
ATOM     18  N   UNL     1      -1.019  11.476  18.710  0.00  0.00    +0.000 N 
ATOM     19  N   UNL     1      -1.206  11.020  17.403  0.00  0.00    +0.000 N 
ATOM     20  C   UNL     1      -2.423  11.004  16.775  0.00  0.00    +0.000 A 
ATOM     21  O   UNL     1      -2.546  10.668  15.605  0.00  0.00    +0.000 OA
ATOM     22  C   UNL     1      -3.588  11.432  17.575  0.00  0.00    +0.000 A 
ATOM     23  C   UNL     1      -4.880  11.324  17.035  0.00  0.00    +0.000 A 
ATOM     24  C   UNL     1      -5.987  11.722  17.789  0.00  0.00    +0.000 A 
ATOM     25  C   UNL     1      -5.806  12.246  19.065  0.00  0.00    +0.000 A 
ATOM     26  C   UNL     1      -4.520  12.360  19.603  0.00  0.00    +0.000 A 
ATOM     27  C   UNL     1      -3.409  11.935  18.863  0.00  0.00    +0.000 A 
ATOM     28  C   UNL     1      -2.057  11.991  19.463  0.00  0.00    +0.000 A 
ATOM     29  O   UNL     1      -1.891  12.463  20.585  0.00  0.00    +0.000 OA
ATOM     30  H   UNL     1      -0.407  10.674  16.875  0.00  0.00    +0.000 HD
ENDBRANCH  17  18
ENDBRANCH   6  17
TORSDOF 3
ENDMDL
MODEL 4
REMARK VINA RESULT:      -8.7      2.473      9.515
REMARK  Name = 
REMARK  4 active torsions:
REMARK  status: ('A' for Active; 'I' for Inactive)
REMARK    1  A    between atoms: C_1  and  C_2
REMARK    2  A    between atoms: C_5  and  C_6
REMARK    3  A    between atoms: C_11  and  C_13
REMARK    4  A    between atoms: C_13  and  N_14
REMARK                            x       y       z     vdW  Elec       q    Type
REMARK                         _______ _______ _______ _____ _____    ______ ____
ROOT
ATOM      1  C   UNL     1       3.365   4.746  18.408  0.00  0.00    +0.000 A 
ATOM      2  C   UNL     1       2.763   3.588  18.867  0.00  0.00    +0.000 A 
ATOM      3  S   UNL     1       1.816   3.932  20.266  0.00  0.00    +0.000 S 
ATOM      4  C   UNL     1       2.212   5.580  20.097  0.00  0.00    +0.000 A 
ATOM      5  N   UNL     1       1.617   6.423  20.995  0.00  0.00    +0.000 N 
ATOM      6  C   UNL     1       1.625   7.795  20.804  0.00  0.00    +0.000 C 
ATOM      7  O   UNL     1       2.104   8.395  19.844  0.00  0.00    +0.000 OA
ATOM      8  N   UNL     1       3.037   5.881  19.134  0.00  0.00    +0.000 NA
ATOM      9  H   UNL     1       1.044   5.996  21.710  0.00  0.00    +0.000 HD
ENDROOT
BRANCH   1  14
ATOM     10  C   UNL     1       6.992   4.984  13.906  0.00  0.00    +0.000 C 
ATOM     11  C   UNL     1       6.032   4.948  15.055  0.00  0.00    +0.000 A 
ATOM     12  C   UNL     1       5.481   6.121  15.579  0.00  0.00    +0.000 A 
ATOM     13  C   UNL     1       4.600   6.075  16.668  0.00  0.00    +0.000 A 
ATOM     14  C   UNL     1       4.259   4.852  17.256  0.00  0.00    +0.000 A 
ATOM     15  C   UNL     1       4.808   3.678  16.717  0.00  0.00    +0.000 A 
ATOM     16  C   UNL     1       5.683   3.723  15.630  0.00  0.00    +0.000 A 
ENDBRANCH   1  14
BRANCH   6  17
ATOM     17  C   UNL     1       0.936   8.568  21.928  0.00  0.00    +0.000 C 
BRANCH  17  18
ATOM     18  N   UNL     1       0.091   9.630  21.401  0.00  0.00    +0.000 N 
ATOM     19  N   UNL     1      -0.064   9.655  20.013  0.00  0.00    +0.000 N 
ATOM     20  C   UNL     1      -0.815  10.590  19.353  0.00  0.00    +0.000 A 
ATOM     21  O   UNL     1      -0.874  10.631  18.132  0.00  0.00    +0.000 OA
ATOM     22  C   UNL     1      -1.543  11.567  20.188  0.00  0.00    +0.000 A 
ATOM     23  C   UNL     1      -2.427  12.475  19.585  0.00  0.00    +0.000 A 
ATOM     24  C   UNL     1      -3.123  13.399  20.370  0.00  0.00    +0.000 A 
ATOM     25  C   UNL     1      -2.920  13.432  21.746  0.00  0.00    +0.000 A 
ATOM     26  C   UNL     1      -2.036  12.532  22.349  0.00  0.00    +0.000 A 
ATOM     27  C   UNL     1      -1.358  11.585  21.570  0.00  0.00    +0.000 A 
ATOM     28  C   UNL     1      -0.477  10.589  22.220  0.00  0.00    +0.000 A 
ATOM     29  O   UNL     1      -0.287  10.621  23.433  0.00  0.00    +0.000 OA
ATOM     30  H   UNL     1       0.396   8.945  19.446  0.00  0.00    +0.000 HD
ENDBRANCH  17  18
ENDBRANCH   6  17
TORSDOF 3
ENDMDL
MODEL 5
REMARK VINA RESULT:      -8.5      4.369     10.432
REMARK  Name = 
REMARK  4 active torsions:
REMARK  status: ('A' for Active; 'I' for Inactive)
REMARK    1  A    between atoms: C_1  and  C_2
REMARK    2  A    between atoms: C_5  and  C_6
REMARK    3  A    between atoms: C_11  and  C_13
REMARK    4  A    between atoms: C_13  and  N_14
REMARK                            x       y       z     vdW  Elec       q    Type
REMARK                         _______ _______ _______ _____ _____    ______ ____
ROOT
ATOM      1  C   UNL     1       1.959   7.768  19.706  0.00  0.00    +0.000 A 
ATOM      2  C   UNL     1       1.712   7.517  21.044  0.00  0.00    +0.000 A 
ATOM      3  S   UNL     1       0.817   8.820  21.731  0.00  0.00    +0.000 S 
ATOM      4  C   UNL     1       0.762   9.558  20.197  0.00  0.00    +0.000 A 
ATOM      5  N   UNL     1       0.040  10.718  20.128  0.00  0.00    +0.000 N 
ATOM      6  C   UNL     1      -0.319  11.266  18.907  0.00  0.00    +0.000 C 
ATOM      7  O   UNL     1      -0.085  10.792  17.797  0.00  0.00    +0.000 OA
ATOM      8  N   UNL     1       1.406   8.952  19.241  0.00  0.00    +0.000 NA
ATOM      9  H   UNL     1      -0.347  11.066  20.994  0.00  0.00    +0.000 HD
ENDROOT
BRANCH   1  14
ATOM     10  C   UNL     1       4.899   4.195  16.232  0.00  0.00    +0.000 C 
ATOM     11  C   UNL     1       4.131   5.143  17.102  0.00  0.00    +0.000 A 
ATOM     12  C   UNL     1       4.285   6.527  16.982  0.00  0.00    +0.000 A 
ATOM     13  C   UNL     1       3.577   7.401  17.817  0.00  0.00    +0.000 A 
ATOM     14  C   UNL     1       2.705   6.905  18.792  0.00  0.00    +0.000 A 
ATOM     15  C   UNL     1       2.548   5.514  18.899  0.00  0.00    +0.000 A 
ATOM     16  C   UNL     1       3.251   4.641  18.065  0.00  0.00    +0.000 A 
ENDBRANCH   1  14
BRANCH   6  17
ATOM     17  C   UNL     1      -1.097  12.575  19.036  0.00  0.00    +0.000 C 
BRANCH  17  18
ATOM     18  N   UNL     1      -2.534  12.346  18.993  0.00  0.00    +0.000 N 
ATOM     19  N   UNL     1      -3.046  11.916  17.767  0.00  0.00    +0.000 N 
ATOM     20  C   UNL     1      -4.375  11.663  17.550  0.00  0.00    +0.000 A 
ATOM     21  O   UNL     1      -4.806  11.358  16.447  0.00  0.00    +0.000 OA
ATOM     22  C   UNL     1      -5.273  11.793  18.714  0.00  0.00    +0.000 A 
ATOM     23  C   UNL     1      -6.624  11.430  18.593  0.00  0.00    +0.000 A 
ATOM     24  C   UNL     1      -7.480  11.546  19.692  0.00  0.00    +0.000 A 
ATOM     25  C   UNL     1      -6.996  12.043  20.899  0.00  0.00    +0.000 A 
ATOM     26  C   UNL     1      -5.652  12.410  21.020  0.00  0.00    +0.000 A 
ATOM     27  C   UNL     1      -4.784  12.268  19.930  0.00  0.00    +0.000 A 
ATOM     28  C   UNL     1      -3.348  12.591  20.084  0.00  0.00    +0.000 A 
ATOM     29  O   UNL     1      -2.919  13.040  21.144  0.00  0.00    +0.000 OA
ATOM     30  H   UNL     1      -2.413  11.775  16.983  0.00  0.00    +0.000 HD
ENDBRANCH  17  18
ENDBRANCH   6  17
TORSDOF 3
ENDMDL
MODEL 6
REMARK VINA RESULT:      -8.5      2.958      4.602
REMARK  Name = 
REMARK  4 active torsions:
REMARK  status: ('A' for Active; 'I' for Inactive)
REMARK    1  A    between atoms: C_1  and  C_2
REMARK    2  A    between atoms: C_5  and  C_6
REMARK    3  A    between atoms: C_11  and  C_13
REMARK    4  A    between atoms: C_13  and  N_14
REMARK                            x       y       z     vdW  Elec       q    Type
REMARK                         _______ _______ _______ _____ _____    ______ ____
ROOT
ATOM      1  C   UNL     1      -1.036  11.895  18.673  0.00  0.00    +0.000 A 
ATOM      2  C   UNL     1      -0.309  13.049  18.900  0.00  0.00    +0.000 A 
ATOM      3  S   UNL     1       1.375  12.682  18.950  0.00  0.00    +0.000 S 
ATOM      4  C   UNL     1       1.007  11.059  18.588  0.00  0.00    +0.000 A 
ATOM      5  N   UNL     1       2.085  10.234  18.424  0.00  0.00    +0.000 N 
ATOM      6  C   UNL     1       1.944   8.977  17.860  0.00  0.00    +0.000 C 
ATOM      7  O   UNL     1       0.906   8.483  17.425  0.00  0.00    +0.000 OA
ATOM      8  N   UNL     1      -0.259  10.759  18.501  0.00  0.00    +0.000 NA
ATOM      9  H   UNL     1       2.996  10.638  18.585  0.00  0.00    +0.000 HD
ENDROOT
BRANCH   1  14
ATOM     10  C   UNL     1      -6.782  11.500  18.113  0.00  0.00    +0.000 C 
ATOM     11  C   UNL     1      -5.298  11.594  18.294  0.00  0.00    +0.000 A 
ATOM     12  C   UNL     1      -4.740  12.215  19.416  0.00  0.00    +0.000 A 
ATOM     13  C   UNL     1      -3.350  12.315  19.562  0.00  0.00    +0.000 A 
ATOM     14  C   UNL     1      -2.493  11.799  18.585  0.00  0.00    +0.000 A 
ATOM     15  C   UNL     1      -3.060  11.166  17.467  0.00  0.00    +0.000 A 
ATOM     16  C   UNL     1      -4.445  11.064  17.321  0.00  0.00    +0.000 A 
ENDBRANCH   1  14
BRANCH   6  17
ATOM     17  C   UNL     1       3.256   8.195  17.787  0.00  0.00    +0.000 C 
BRANCH  17  18
ATOM     18  N   UNL     1       3.078   6.817  18.223  0.00  0.00    +0.000 N 
ATOM     19  N   UNL     1       2.295   6.635  19.365  0.00  0.00    +0.000 N 
ATOM     20  C   UNL     1       2.034   5.408  19.914  0.00  0.00    +0.000 A 
ATOM     21  O   UNL     1       1.404   5.284  20.956  0.00  0.00    +0.000 OA
ATOM     22  C   UNL     1       2.566   4.233  19.196  0.00  0.00    +0.000 A 
ATOM     23  C   UNL     1       2.233   2.941  19.635  0.00  0.00    +0.000 A 
ATOM     24  C   UNL     1       2.729   1.824  18.958  0.00  0.00    +0.000 A 
ATOM     25  C   UNL     1       3.572   1.994  17.863  0.00  0.00    +0.000 A 
ATOM     26  C   UNL     1       3.909   3.280  17.427  0.00  0.00    +0.000 A 
ATOM     27  C   UNL     1       3.390   4.403  18.085  0.00  0.00    +0.000 A 
ATOM     28  C   UNL     1       3.693   5.760  17.578  0.00  0.00    +0.000 A 
ATOM     29  O   UNL     1       4.444   5.915  16.619  0.00  0.00    +0.000 OA
ATOM     30  H   UNL     1       1.883   7.446  19.824  0.00  0.00    +0.000 HD
ENDBRANCH  17  18
ENDBRANCH   6  17
TORSDOF 3
ENDMDL
MODEL 7
REMARK VINA RESULT:      -8.3      3.221      9.413
REMARK  Name = 
REMARK  4 active torsions:
REMARK  status: ('A' for Active; 'I' for Inactive)
REMARK    1  A    between atoms: C_1  and  C_2
REMARK    2  A    between atoms: C_5  and  C_6
REMARK    3  A    between atoms: C_11  and  C_13
REMARK    4  A    between atoms: C_13  and  N_14
REMARK                            x       y       z     vdW  Elec       q    Type
REMARK                         _______ _______ _______ _____ _____    ______ ____
ROOT
ATOM      1  C   UNL     1       3.451   5.287  18.677  0.00  0.00    +0.000 A 
ATOM      2  C   UNL     1       3.088   4.265  19.535  0.00  0.00    +0.000 A 
ATOM      3  S   UNL     1       2.154   4.897  20.840  0.00  0.00    +0.000 S 
ATOM      4  C   UNL     1       2.240   6.439  20.122  0.00  0.00    +0.000 A 
ATOM      5  N   UNL     1       1.541   7.425  20.763  0.00  0.00    +0.000 N 
ATOM      6  C   UNL     1       1.295   8.642  20.148  0.00  0.00    +0.000 C 
ATOM      7  O   UNL     1       1.616   8.961  19.005  0.00  0.00    +0.000 OA
ATOM      8  N   UNL     1       2.955   6.532  19.037  0.00  0.00    +0.000 NA
ATOM      9  H   UNL     1       1.087   7.173  21.628  0.00  0.00    +0.000 HD
ENDROOT
BRANCH   1  14
ATOM     10  C   UNL     1       6.732   4.556  13.968  0.00  0.00    +0.000 C 
ATOM     11  C   UNL     1       5.863   4.771  15.169  0.00  0.00    +0.000 A 
ATOM     12  C   UNL     1       5.462   6.053  15.556  0.00  0.00    +0.000 A 
ATOM     13  C   UNL     1       4.666   6.242  16.694  0.00  0.00    +0.000 A 
ATOM     14  C   UNL     1       4.261   5.149  17.468  0.00  0.00    +0.000 A 
ATOM     15  C   UNL     1       4.658   3.864  17.066  0.00  0.00    +0.000 A 
ATOM     16  C   UNL     1       5.449   3.675  15.931  0.00  0.00    +0.000 A 
ENDBRANCH   1  14
BRANCH   6  17
ATOM     17  C   UNL     1       0.526   9.623  21.033  0.00  0.00    +0.000 C 
BRANCH  17  18
ATOM     18  N   UNL     1       0.363  10.913  20.378  0.00  0.00    +0.000 N 
ATOM     19  N   UNL     1      -0.633  10.980  19.401  0.00  0.00    +0.000 N 
ATOM     20  C   UNL     1      -0.912  12.112  18.683  0.00  0.00    +0.000 A 
ATOM     21  O   UNL     1      -1.740  12.122  17.782  0.00  0.00    +0.000 OA
ATOM     22  C   UNL     1      -0.151  13.327  19.036  0.00  0.00    +0.000 A 
ATOM     23  C   UNL     1      -0.471  14.550  18.426  0.00  0.00    +0.000 A 
ATOM     24  C   UNL     1       0.242  15.704  18.758  0.00  0.00    +0.000 A 
ATOM     25  C   UNL     1       1.285  15.635  19.677  0.00  0.00    +0.000 A 
ATOM     26  C   UNL     1       1.610  14.416  20.282  0.00  0.00    +0.000 A 
ATOM     27  C   UNL     1       0.879  13.262  19.973  0.00  0.00    +0.000 A 
ATOM     28  C   UNL     1       1.180  11.990  20.668  0.00  0.00    +0.000 A 
ATOM     29  O   UNL     1       2.107  11.922  21.472  0.00  0.00    +0.000 OA
ATOM     30  H   UNL     1      -1.193  10.154  19.201  0.00  0.00    +0.000 HD
ENDBRANCH  17  18
ENDBRANCH   6  17
TORSDOF 3
ENDMDL
MODEL 8
REMARK VINA RESULT:      -8.3      4.540     10.921
REMARK  Name = 
REMARK  4 active torsions:
REMARK  status: ('A' for Active; 'I' for Inactive)
REMARK    1  A    between atoms: C_1  and  C_2
REMARK    2  A    between atoms: C_5  and  C_6
REMARK    3  A    between atoms: C_11  and  C_13
REMARK    4  A    between atoms: C_13  and  N_14
REMARK                            x       y       z     vdW  Elec       q    Type
REMARK                         _______ _______ _______ _____ _____    ______ ____
ROOT
ATOM      1  C   UNL     1       1.359   8.407  20.273  0.00  0.00    +0.000 A 
ATOM      2  C   UNL     1       1.026   8.026  21.561  0.00  0.00    +0.000 A 
ATOM      3  S   UNL     1       0.025   9.226  22.289  0.00  0.00    +0.000 S 
ATOM      4  C   UNL     1       0.049  10.098  20.826  0.00  0.00    +0.000 A 
ATOM      5  N   UNL     1      -0.717  11.231  20.804  0.00  0.00    +0.000 N 
ATOM      6  C   UNL     1      -1.009  11.873  19.611  0.00  0.00    +0.000 C 
ATOM      7  O   UNL     1      -0.673  11.512  18.486  0.00  0.00    +0.000 OA
ATOM      8  N   UNL     1       0.789   9.606  19.872  0.00  0.00    +0.000 NA
ATOM      9  H   UNL     1      -1.182  11.483  21.663  0.00  0.00    +0.000 HD
ENDROOT
BRANCH   1  14
ATOM     10  C   UNL     1       4.794   5.337  16.773  0.00  0.00    +0.000 C 
ATOM     11  C   UNL     1       3.886   6.144  17.650  0.00  0.00    +0.000 A 
ATOM     12  C   UNL     1       3.478   7.430  17.285  0.00  0.00    +0.000 A 
ATOM     13  C   UNL     1       2.646   8.182  18.125  0.00  0.00    +0.000 A 
ATOM     14  C   UNL     1       2.209   7.660  19.347  0.00  0.00    +0.000 A 
ATOM     15  C   UNL     1       2.613   6.363  19.700  0.00  0.00    +0.000 A 
ATOM     16  C   UNL     1       3.441   5.612  18.864  0.00  0.00    +0.000 A 
ENDBRANCH   1  14
BRANCH   6  17
ATOM     17  C   UNL     1      -1.853  13.135  19.794  0.00  0.00    +0.000 C 
BRANCH  17  18
ATOM     18  N   UNL     1      -3.250  12.809  20.038  0.00  0.00    +0.000 N 
ATOM     19  N   UNL     1      -3.924  12.186  18.985  0.00  0.00    +0.000 N 
ATOM     20  C   UNL     1      -5.242  11.819  19.043  0.00  0.00    +0.000 A 
ATOM     21  O   UNL     1      -5.826  11.341  18.080  0.00  0.00    +0.000 OA
ATOM     22  C   UNL     1      -5.938  12.045  20.325  0.00  0.00    +0.000 A 
ATOM     23  C   UNL     1      -7.253  11.582  20.494  0.00  0.00    +0.000 A 
ATOM     24  C   UNL     1      -7.916  11.788  21.706  0.00  0.00    +0.000 A 
ATOM     25  C   UNL     1      -7.280  12.473  22.737  0.00  0.00    +0.000 A 
ATOM     26  C   UNL     1      -5.973  12.940  22.570  0.00  0.00    +0.000 A 
ATOM     27  C   UNL     1      -5.293  12.711  21.367  0.00  0.00    +0.000 A 
ATOM     28  C   UNL     1      -3.886  13.145  21.220  0.00  0.00    +0.000 A 
ATOM     29  O   UNL     1      -3.324  13.759  22.123  0.00  0.00    +0.000 OA
ATOM     30  H   UNL     1      -3.423  11.981  18.123  0.00  0.00    +0.000 HD
ENDBRANCH  17  18
ENDBRANCH   6  17
TORSDOF 3
ENDMDL
MODEL 9
REMARK VINA RESULT:      -8.2      0.866      2.207
REMARK  Name = 
REMARK  4 active torsions:
REMARK  status: ('A' for Active; 'I' for Inactive)
REMARK    1  A    between atoms: C_1  and  C_2
REMARK    2  A    between atoms: C_5  and  C_6
REMARK    3  A    between atoms: C_11  and  C_13
REMARK    4  A    between atoms: C_13  and  N_14
REMARK                            x       y       z     vdW  Elec       q    Type
REMARK                         _______ _______ _______ _____ _____    ______ ____
ROOT
ATOM      1  C   UNL     1       0.723   9.709  19.826  0.00  0.00    +0.000 A 
ATOM      2  C   UNL     1       1.107  10.007  18.531  0.00  0.00    +0.000 A 
ATOM      3  S   UNL     1       2.193   8.800  17.948  0.00  0.00    +0.000 S 
ATOM      4  C   UNL     1       1.998   7.954  19.413  0.00  0.00    +0.000 A 
ATOM      5  N   UNL     1       2.650   6.753  19.489  0.00  0.00    +0.000 N 
ATOM      6  C   UNL     1       2.358   5.843  20.492  0.00  0.00    +0.000 C 
ATOM      7  O   UNL     1       1.504   5.969  21.367  0.00  0.00    +0.000 OA
ATOM      8  N   UNL     1       1.252   8.524  20.316  0.00  0.00    +0.000 NA
ATOM      9  H   UNL     1       3.230   6.499  18.703  0.00  0.00    +0.000 HD
ENDROOT
BRANCH   1  14
ATOM     10  C   UNL     1      -2.828  12.703  23.277  0.00  0.00    +0.000 C 
ATOM     11  C   UNL     1      -1.900  11.959  22.365  0.00  0.00    +0.000 A 
ATOM     12  C   UNL     1      -1.860  12.227  20.994  0.00  0.00    +0.000 A 
ATOM     13  C   UNL     1      -1.003  11.509  20.149  0.00  0.00    +0.000 A 
ATOM     14  C   UNL     1      -0.173  10.506  20.662  0.00  0.00    +0.000 A 
ATOM     15  C   UNL     1      -0.212  10.251  22.043  0.00  0.00    +0.000 A 
ATOM     16  C   UNL     1      -1.064  10.967  22.886  0.00  0.00    +0.000 A 
ENDBRANCH   1  14
BRANCH   6  17
ATOM     17  C   UNL     1       3.209   4.575  20.426  0.00  0.00    +0.000 C 
BRANCH  17  18
ATOM     18  N   UNL     1       3.802   4.402  19.108  0.00  0.00    +0.000 N 
ATOM     19  N   UNL     1       2.954   3.899  18.118  0.00  0.00    +0.000 N 
ATOM     20  C   UNL     1       3.352   3.668  16.828  0.00  0.00    +0.000 A 
ATOM     21  O   UNL     1       2.608   3.159  16.001  0.00  0.00    +0.000 OA
ATOM     22  C   UNL     1       4.736   4.047  16.482  0.00  0.00    +0.000 A 
ATOM     23  C   UNL     1       5.171   3.951  15.151  0.00  0.00    +0.000 A 
ATOM     24  C   UNL     1       6.478   4.313  14.815  0.00  0.00    +0.000 A 
ATOM     25  C   UNL     1       7.354   4.745  15.806  0.00  0.00    +0.000 A 
ATOM     26  C   UNL     1       6.926   4.836  17.134  0.00  0.00    +0.000 A 
ATOM     27  C   UNL     1       5.607   4.502  17.471  0.00  0.00    +0.000 A 
ATOM     28  C   UNL     1       5.138   4.668  18.864  0.00  0.00    +0.000 A 
ATOM     29  O   UNL     1       5.911   5.039  19.744  0.00  0.00    +0.000 OA
ATOM     30  H   UNL     1       1.984   3.692  18.349  0.00  0.00    +0.000 HD
ENDBRANCH  17  18
ENDBRANCH   6  17
TORSDOF 3
ENDMDL
