MODEL 1
REMARK VINA RESULT:      -7.9      0.000      0.000
REMARK  Name = 
REMARK  8 active torsions:
REMARK  status: ('A' for Active; 'I' for Inactive)
REMARK    1  A    between atoms: N_1  and  C_2
REMARK    2  A    between atoms: C_2  and  C_3
REMARK    3  A    between atoms: C_2  and  C_30
REMARK    4  A    between atoms: C_3  and  N_4
REMARK    5  A    between atoms: C_7  and  C_8
REMARK    6  A    between atoms: N_15  and  C_16
REMARK    7  A    between atoms: C_16  and  C_17
REMARK    8  A    between atoms: C_23  and  C_24
REMARK                            x       y       z     vdW  Elec       q    Type
REMARK                         _______ _______ _______ _____ _____    ______ ____
ROOT
ATOM      1  N   UNL     1       1.863   8.447  19.143  0.00  0.00    +0.000 N 
ATOM      2  C   UNL     1       1.625   7.373  19.989  0.00  0.00    +0.000 A 
ATOM      3  O   UNL     1       1.003   7.471  21.046  0.00  0.00    +0.000 OA
ATOM      4  C   UNL     1       2.193   6.064  19.570  0.00  0.00    +0.000 A 
ATOM      5  C   UNL     1       3.031   6.049  18.528  0.00  0.00    +0.000 A 
ATOM      6  N   UNL     1       3.310   7.173  17.784  0.00  0.00    +0.000 N 
ATOM      7  C   UNL     1       2.662   8.388  18.001  0.00  0.00    +0.000 A 
ATOM      8  O   UNL     1       2.806   9.349  17.243  0.00  0.00    +0.000 OA
ENDROOT
BRANCH   4   9
ATOM      9  C   UNL     1       1.878   4.808  20.251  0.00  0.00    +0.000 A 
ATOM     10  C   UNL     1       2.488   4.467  21.463  0.00  0.00    +0.000 A 
ATOM     11  C   UNL     1       2.226   3.230  22.057  0.00  0.00    +0.000 A 
ATOM     12  C   UNL     1       1.355   2.329  21.442  0.00  0.00    +0.000 A 
ATOM     13  C   UNL     1       0.742   2.663  20.236  0.00  0.00    +0.000 A 
ATOM     14  C   UNL     1       1.003   3.898  19.641  0.00  0.00    +0.000 A 
ENDBRANCH   4   9
BRANCH   1  15
ATOM     15  C   UNL     1       1.312   9.752  19.535  0.00  0.00    +0.000 C 
BRANCH  15  16
ATOM     16  C   UNL     1      -0.158   9.983  19.086  0.00  0.00    +0.000 C 
BRANCH  16  17
ATOM     17  C   UNL     1      -0.889  10.896  20.064  0.00  0.00    +0.000 A 
ATOM     18  C   UNL     1      -0.604  10.838  21.438  0.00  0.00    +0.000 A 
ATOM     19  C   UNL     1      -1.269  11.669  22.346  0.00  0.00    +0.000 A 
ATOM     20  C   UNL     1      -2.231  12.571  21.895  0.00  0.00    +0.000 A 
ATOM     21  C   UNL     1      -2.523  12.646  20.537  0.00  0.00    +0.000 A 
ATOM     22  C   UNL     1      -1.858  11.818  19.629  0.00  0.00    +0.000 A 
ENDBRANCH  16  17
BRANCH  16  23
ATOM     23  N   UNL     1      -0.264  10.515  17.717  0.00  0.00    +0.000 NA
ATOM     24  H   UNL     1      -0.671   9.802  17.116  0.00  0.00    +0.000 HD
ATOM     25  H   UNL     1       0.673  10.665  17.343  0.00  0.00    +0.000 HD
ENDBRANCH  16  23
ENDBRANCH  15  16
ENDBRANCH   1  15
BRANCH   6  26
ATOM     26  C   UNL     1       4.307   7.079  16.714  0.00  0.00    +0.000 C 
BRANCH  26  27
ATOM     27  C   UNL     1       5.669   6.501  17.055  0.00  0.00    +0.000 A 
ATOM     28  C   UNL     1       6.653   7.252  17.722  0.00  0.00    +0.000 A 
ATOM     29  F   UNL     1       6.458   8.545  18.016  0.00  0.00    +0.000 F 
ATOM     30  C   UNL     1       7.875   6.702  18.100  0.00  0.00    +0.000 A 
ATOM     31  C   UNL     1       8.149   5.367  17.840  0.00  0.00    +0.000 A 
ATOM     32  C   UNL     1       7.209   4.599  17.162  0.00  0.00    +0.000 A 
ATOM     33  C   UNL     1       5.976   5.148  16.740  0.00  0.00    +0.000 A 
BRANCH  33  34
ATOM     34  C   UNL     1       5.073   4.218  15.948  0.00  0.00    +0.000 C 
ATOM     35  F   UNL     1       3.864   3.962  16.512  0.00  0.00    +0.000 F 
ATOM     36  F   UNL     1       4.793   4.724  14.711  0.00  0.00    +0.000 F 
ATOM     37  F   UNL     1       5.643   3.002  15.728  0.00  0.00    +0.000 F 
ENDBRANCH  33  34
ENDBRANCH  26  27
ENDBRANCH   6  26
TORSDOF 8
ENDMDL
MODEL 2
REMARK VINA RESULT:      -7.8      2.674      6.184
REMARK  Name = 
REMARK  8 active torsions:
REMARK  status: ('A' for Active; 'I' for Inactive)
REMARK    1  A    between atoms: N_1  and  C_2
REMARK    2  A    between atoms: C_2  and  C_3
REMARK    3  A    between atoms: C_2  and  C_30
REMARK    4  A    between atoms: C_3  and  N_4
REMARK    5  A    between atoms: C_7  and  C_8
REMARK    6  A    between atoms: N_15  and  C_16
REMARK    7  A    between atoms: C_16  and  C_17
REMARK    8  A    between atoms: C_23  and  C_24
REMARK                            x       y       z     vdW  Elec       q    Type
REMARK                         _______ _______ _______ _____ _____    ______ ____
ROOT
ATOM      1  N   UNL     1       4.615   6.195  17.596  0.00  0.00    +0.000 N 
ATOM      2  C   UNL     1       4.980   6.129  16.259  0.00  0.00    +0.000 A 
ATOM      3  O   UNL     1       4.987   7.106  15.512  0.00  0.00    +0.000 OA
ATOM      4  C   UNL     1       5.345   4.783  15.740  0.00  0.00    +0.000 A 
ATOM      5  C   UNL     1       5.124   3.726  16.527  0.00  0.00    +0.000 A 
ATOM      6  N   UNL     1       4.662   3.848  17.819  0.00  0.00    +0.000 N 
ATOM      7  C   UNL     1       4.486   5.086  18.433  0.00  0.00    +0.000 A 
ATOM      8  O   UNL     1       4.214   5.189  19.630  0.00  0.00    +0.000 OA
ENDROOT
BRANCH   4   9
ATOM      9  C   UNL     1       5.925   4.576  14.413  0.00  0.00    +0.000 A 
ATOM     10  C   UNL     1       5.314   3.733  13.477  0.00  0.00    +0.000 A 
ATOM     11  C   UNL     1       5.924   3.494  12.244  0.00  0.00    +0.000 A 
ATOM     12  C   UNL     1       7.147   4.093  11.940  0.00  0.00    +0.000 A 
ATOM     13  C   UNL     1       7.760   4.937  12.866  0.00  0.00    +0.000 A 
ATOM     14  C   UNL     1       7.153   5.176  14.099  0.00  0.00    +0.000 A 
ENDBRANCH   4   9
BRANCH   1  15
ATOM     15  C   UNL     1       4.250   7.513  18.134  0.00  0.00    +0.000 C 
BRANCH  15  16
ATOM     16  C   UNL     1       2.783   7.936  17.839  0.00  0.00    +0.000 C 
BRANCH  16  17
ATOM     17  C   UNL     1       2.001   8.127  19.134  0.00  0.00    +0.000 A 
ATOM     18  C   UNL     1       1.315   9.327  19.378  0.00  0.00    +0.000 A 
ATOM     19  C   UNL     1       0.595   9.515  20.562  0.00  0.00    +0.000 A 
ATOM     20  C   UNL     1       0.550   8.506  21.524  0.00  0.00    +0.000 A 
ATOM     21  C   UNL     1       1.220   7.308  21.296  0.00  0.00    +0.000 A 
ATOM     22  C   UNL     1       1.938   7.118  20.112  0.00  0.00    +0.000 A 
ENDBRANCH  16  17
BRANCH  16  23
ATOM     23  N   UNL     1       2.691   9.147  17.006  0.00  0.00    +0.000 NA
ATOM     24  H   UNL     1       2.283   8.899  16.107  0.00  0.00    +0.000 HD
ATOM     25  H   UNL     1       3.632   9.472  16.783  0.00  0.00    +0.000 HD
ENDBRANCH  16  23
ENDBRANCH  15  16
ENDBRANCH   1  15
BRANCH   6  26
ATOM     26  C   UNL     1       4.368   2.628  18.578  0.00  0.00    +0.000 C 
BRANCH  26  27
ATOM     27  C   UNL     1       3.266   2.685  19.621  0.00  0.00    +0.000 A 
ATOM     28  C   UNL     1       3.496   2.354  20.968  0.00  0.00    +0.000 A 
ATOM     29  F   UNL     1       4.687   1.894  21.377  0.00  0.00    +0.000 F 
ATOM     30  C   UNL     1       2.506   2.474  21.940  0.00  0.00    +0.000 A 
ATOM     31  C   UNL     1       1.249   2.952  21.600  0.00  0.00    +0.000 A 
ATOM     32  C   UNL     1       0.978   3.268  20.273  0.00  0.00    +0.000 A 
ATOM     33  C   UNL     1       1.959   3.121  19.265  0.00  0.00    +0.000 A 
BRANCH  33  34
ATOM     34  C   UNL     1       1.508   3.433  17.849  0.00  0.00    +0.000 C 
ATOM     35  F   UNL     1       2.122   2.716  16.872  0.00  0.00    +0.000 F 
ATOM     36  F   UNL     1       0.173   3.196  17.685  0.00  0.00    +0.000 F 
ATOM     37  F   UNL     1       1.692   4.740  17.520  0.00  0.00    +0.000 F 
ENDBRANCH  33  34
ENDBRANCH  26  27
ENDBRANCH   6  26
TORSDOF 8
ENDMDL
MODEL 3
REMARK VINA RESULT:      -7.8      1.093      1.538
REMARK  Name = 
REMARK  8 active torsions:
REMARK  status: ('A' for Active; 'I' for Inactive)
REMARK    1  A    between atoms: N_1  and  C_2
REMARK    2  A    between atoms: C_2  and  C_3
REMARK    3  A    between atoms: C_2  and  C_30
REMARK    4  A    between atoms: C_3  and  N_4
REMARK    5  A    between atoms: C_7  and  C_8
REMARK    6  A    between atoms: N_15  and  C_16
REMARK    7  A    between atoms: C_16  and  C_17
REMARK    8  A    between atoms: C_23  and  C_24
REMARK                            x       y       z     vdW  Elec       q    Type
REMARK                         _______ _______ _______ _____ _____    ______ ____
ROOT
ATOM      1  N   UNL     1       1.827   8.420  19.066  0.00  0.00    +0.000 N 
ATOM      2  C   UNL     1       1.588   7.350  19.917  0.00  0.00    +0.000 A 
ATOM      3  O   UNL     1       0.934   7.445  20.954  0.00  0.00    +0.000 OA
ATOM      4  C   UNL     1       2.196   6.049  19.527  0.00  0.00    +0.000 A 
ATOM      5  C   UNL     1       3.063   6.042  18.511  0.00  0.00    +0.000 A 
ATOM      6  N   UNL     1       3.339   7.165  17.763  0.00  0.00    +0.000 N 
ATOM      7  C   UNL     1       2.659   8.368  17.948  0.00  0.00    +0.000 A 
ATOM      8  O   UNL     1       2.804   9.324  17.185  0.00  0.00    +0.000 OA
ENDROOT
BRANCH   4   9
ATOM      9  C   UNL     1       1.888   4.794  20.212  0.00  0.00    +0.000 A 
ATOM     10  C   UNL     1       2.477   4.474  21.440  0.00  0.00    +0.000 A 
ATOM     11  C   UNL     1       2.224   3.237  22.039  0.00  0.00    +0.000 A 
ATOM     12  C   UNL     1       1.384   2.316  21.414  0.00  0.00    +0.000 A 
ATOM     13  C   UNL     1       0.790   2.629  20.192  0.00  0.00    +0.000 A 
ATOM     14  C   UNL     1       1.043   3.863  19.592  0.00  0.00    +0.000 A 
ENDBRANCH   4   9
BRANCH   1  15
ATOM     15  C   UNL     1       1.237   9.718  19.428  0.00  0.00    +0.000 C 
BRANCH  15  16
ATOM     16  C   UNL     1       0.772  10.567  18.212  0.00  0.00    +0.000 C 
BRANCH  16  17
ATOM     17  C   UNL     1      -0.747  10.690  18.183  0.00  0.00    +0.000 A 
ATOM     18  C   UNL     1      -1.513   9.833  17.376  0.00  0.00    +0.000 A 
ATOM     19  C   UNL     1      -2.907   9.936  17.339  0.00  0.00    +0.000 A 
ATOM     20  C   UNL     1      -3.560  10.899  18.107  0.00  0.00    +0.000 A 
ATOM     21  C   UNL     1      -2.817  11.754  18.917  0.00  0.00    +0.000 A 
ATOM     22  C   UNL     1      -1.424  11.649  18.956  0.00  0.00    +0.000 A 
ENDBRANCH  16  17
BRANCH  16  23
ATOM     23  N   UNL     1       1.392  11.902  18.174  0.00  0.00    +0.000 NA
ATOM     24  H   UNL     1       2.298  11.833  17.716  0.00  0.00    +0.000 HD
ATOM     25  H   UNL     1       1.605  12.199  19.127  0.00  0.00    +0.000 HD
ENDBRANCH  16  23
ENDBRANCH  15  16
ENDBRANCH   1  15
BRANCH   6  26
ATOM     26  C   UNL     1       4.368   7.082  16.722  0.00  0.00    +0.000 C 
BRANCH  26  27
ATOM     27  C   UNL     1       5.711   6.476  17.092  0.00  0.00    +0.000 A 
ATOM     28  C   UNL     1       6.693   7.205  17.784  0.00  0.00    +0.000 A 
ATOM     29  F   UNL     1       6.516   8.501  18.080  0.00  0.00    +0.000 F 
ATOM     30  C   UNL     1       7.896   6.631  18.188  0.00  0.00    +0.000 A 
ATOM     31  C   UNL     1       8.150   5.292  17.929  0.00  0.00    +0.000 A 
ATOM     32  C   UNL     1       7.211   4.545  17.226  0.00  0.00    +0.000 A 
ATOM     33  C   UNL     1       5.999   5.119  16.778  0.00  0.00    +0.000 A 
BRANCH  33  34
ATOM     34  C   UNL     1       5.097   4.209  15.961  0.00  0.00    +0.000 C 
ATOM     35  F   UNL     1       3.882   3.949  16.512  0.00  0.00    +0.000 F 
ATOM     36  F   UNL     1       4.828   4.742  14.733  0.00  0.00    +0.000 F 
ATOM     37  F   UNL     1       5.662   2.996  15.721  0.00  0.00    +0.000 F 
ENDBRANCH  33  34
ENDBRANCH  26  27
ENDBRANCH   6  26
TORSDOF 8
ENDMDL
MODEL 4
REMARK VINA RESULT:      -7.7      2.680      6.122
REMARK  Name = 
REMARK  8 active torsions:
REMARK  status: ('A' for Active; 'I' for Inactive)
REMARK    1  A    between atoms: N_1  and  C_2
REMARK    2  A    between atoms: C_2  and  C_3
REMARK    3  A    between atoms: C_2  and  C_30
REMARK    4  A    between atoms: C_3  and  N_4
REMARK    5  A    between atoms: C_7  and  C_8
REMARK    6  A    between atoms: N_15  and  C_16
REMARK    7  A    between atoms: C_16  and  C_17
REMARK    8  A    between atoms: C_23  and  C_24
REMARK                            x       y       z     vdW  Elec       q    Type
REMARK                         _______ _______ _______ _____ _____    ______ ____
ROOT
ATOM      1  N   UNL     1       4.669   6.172  17.604  0.00  0.00    +0.000 N 
ATOM      2  C   UNL     1       5.057   6.094  16.274  0.00  0.00    +0.000 A 
ATOM      3  O   UNL     1       5.079   7.065  15.519  0.00  0.00    +0.000 OA
ATOM      4  C   UNL     1       5.428   4.743  15.773  0.00  0.00    +0.000 A 
ATOM      5  C   UNL     1       5.190   3.693  16.565  0.00  0.00    +0.000 A 
ATOM      6  N   UNL     1       4.706   3.826  17.848  0.00  0.00    +0.000 N 
ATOM      7  C   UNL     1       4.522   5.071  18.448  0.00  0.00    +0.000 A 
ATOM      8  O   UNL     1       4.230   5.184  19.639  0.00  0.00    +0.000 OA
ENDROOT
BRANCH   4   9
ATOM      9  C   UNL     1       6.030   4.523  14.458  0.00  0.00    +0.000 A 
ATOM     10  C   UNL     1       7.222   5.156  14.091  0.00  0.00    +0.000 A 
ATOM     11  C   UNL     1       7.739   4.988  12.804  0.00  0.00    +0.000 A 
ATOM     12  C   UNL     1       7.066   4.189  11.878  0.00  0.00    +0.000 A 
ATOM     13  C   UNL     1       5.880   3.552  12.238  0.00  0.00    +0.000 A 
ATOM     14  C   UNL     1       5.361   3.720  13.523  0.00  0.00    +0.000 A 
ENDBRANCH   4   9
BRANCH   1  15
ATOM     15  C   UNL     1       4.297   7.496  18.124  0.00  0.00    +0.000 C 
BRANCH  15  16
ATOM     16  C   UNL     1       2.833   7.914  17.811  0.00  0.00    +0.000 C 
BRANCH  16  17
ATOM     17  C   UNL     1       2.033   8.097  19.096  0.00  0.00    +0.000 A 
ATOM     18  C   UNL     1       1.990   7.075  20.057  0.00  0.00    +0.000 A 
ATOM     19  C   UNL     1       1.258   7.230  21.239  0.00  0.00    +0.000 A 
ATOM     20  C   UNL     1       0.554   8.409  21.478  0.00  0.00    +0.000 A 
ATOM     21  C   UNL     1       0.589   9.435  20.539  0.00  0.00    +0.000 A 
ATOM     22  C   UNL     1       1.322   9.282  19.359  0.00  0.00    +0.000 A 
ENDBRANCH  16  17
BRANCH  16  23
ATOM     23  N   UNL     1       2.748   9.128  16.981  0.00  0.00    +0.000 NA
ATOM     24  H   UNL     1       2.855   8.867  16.003  0.00  0.00    +0.000 HD
ATOM     25  H   UNL     1       3.551   9.725  17.179  0.00  0.00    +0.000 HD
ENDBRANCH  16  23
ENDBRANCH  15  16
ENDBRANCH   1  15
BRANCH   6  26
ATOM     26  C   UNL     1       4.396   2.614  18.611  0.00  0.00    +0.000 C 
BRANCH  26  27
ATOM     27  C   UNL     1       3.276   2.682  19.635  0.00  0.00    +0.000 A 
ATOM     28  C   UNL     1       3.481   2.356  20.987  0.00  0.00    +0.000 A 
ATOM     29  F   UNL     1       4.662   1.892  21.419  0.00  0.00    +0.000 F 
ATOM     30  C   UNL     1       2.475   2.487  21.941  0.00  0.00    +0.000 A 
ATOM     31  C   UNL     1       1.227   2.971  21.577  0.00  0.00    +0.000 A 
ATOM     32  C   UNL     1       0.981   3.282  20.244  0.00  0.00    +0.000 A 
ATOM     33  C   UNL     1       1.978   3.124  19.254  0.00  0.00    +0.000 A 
BRANCH  33  34
ATOM     34  C   UNL     1       1.553   3.432  17.829  0.00  0.00    +0.000 C 
ATOM     35  F   UNL     1       2.140   2.668  16.870  0.00  0.00    +0.000 F 
ATOM     36  F   UNL     1       0.210   3.256  17.658  0.00  0.00    +0.000 F 
ATOM     37  F   UNL     1       1.804   4.723  17.479  0.00  0.00    +0.000 F 
ENDBRANCH  33  34
ENDBRANCH  26  27
ENDBRANCH   6  26
TORSDOF 8
ENDMDL
MODEL 5
REMARK VINA RESULT:      -7.7      0.104      1.158
REMARK  Name = 
REMARK  8 active torsions:
REMARK  status: ('A' for Active; 'I' for Inactive)
REMARK    1  A    between atoms: N_1  and  C_2
REMARK    2  A    between atoms: C_2  and  C_3
REMARK    3  A    between atoms: C_2  and  C_30
REMARK    4  A    between atoms: C_3  and  N_4
REMARK    5  A    between atoms: C_7  and  C_8
REMARK    6  A    between atoms: N_15  and  C_16
REMARK    7  A    between atoms: C_16  and  C_17
REMARK    8  A    between atoms: C_23  and  C_24
REMARK                            x       y       z     vdW  Elec       q    Type
REMARK                         _______ _______ _______ _____ _____    ______ ____
ROOT
ATOM      1  N   UNL     1       1.896   8.393  19.103  0.00  0.00    +0.000 N 
ATOM      2  C   UNL     1       1.660   7.308  19.934  0.00  0.00    +0.000 A 
ATOM      3  O   UNL     1       1.027   7.388  20.985  0.00  0.00    +0.000 OA
ATOM      4  C   UNL     1       2.247   6.009  19.506  0.00  0.00    +0.000 A 
ATOM      5  C   UNL     1       3.095   6.015  18.473  0.00  0.00    +0.000 A 
ATOM      6  N   UNL     1       3.369   7.151  17.745  0.00  0.00    +0.000 N 
ATOM      7  C   UNL     1       2.707   8.356  17.969  0.00  0.00    +0.000 A 
ATOM      8  O   UNL     1       2.848   9.327  17.223  0.00  0.00    +0.000 OA
ENDROOT
BRANCH   4   9
ATOM      9  C   UNL     1       1.937   4.743  20.169  0.00  0.00    +0.000 A 
ATOM     10  C   UNL     1       0.973   3.870  19.654  0.00  0.00    +0.000 A 
ATOM     11  C   UNL     1       0.643   2.701  20.345  0.00  0.00    +0.000 A 
ATOM     12  C   UNL     1       1.273   2.401  21.553  0.00  0.00    +0.000 A 
ATOM     13  C   UNL     1       2.238   3.263  22.070  0.00  0.00    +0.000 A 
ATOM     14  C   UNL     1       2.568   4.432  21.383  0.00  0.00    +0.000 A 
ENDBRANCH   4   9
BRANCH   1  15
ATOM     15  C   UNL     1       1.327   9.689  19.503  0.00  0.00    +0.000 C 
BRANCH  15  16
ATOM     16  C   UNL     1      -0.148   9.901  19.061  0.00  0.00    +0.000 C 
BRANCH  16  17
ATOM     17  C   UNL     1      -0.870  10.851  20.010  0.00  0.00    +0.000 A 
ATOM     18  C   UNL     1      -1.805  11.773  19.514  0.00  0.00    +0.000 A 
ATOM     19  C   UNL     1      -2.473  12.652  20.374  0.00  0.00    +0.000 A 
ATOM     20  C   UNL     1      -2.216  12.623  21.744  0.00  0.00    +0.000 A 
ATOM     21  C   UNL     1      -1.295  11.712  22.253  0.00  0.00    +0.000 A 
ATOM     22  C   UNL     1      -0.630  10.832  21.395  0.00  0.00    +0.000 A 
ENDBRANCH  16  17
BRANCH  16  23
ATOM     23  N   UNL     1      -0.268  10.378  17.673  0.00  0.00    +0.000 NA
ATOM     24  H   UNL     1      -0.258  11.396  17.672  0.00  0.00    +0.000 HD
ATOM     25  H   UNL     1      -1.189  10.128  17.312  0.00  0.00    +0.000 HD
ENDBRANCH  16  23
ENDBRANCH  15  16
ENDBRANCH   1  15
BRANCH   6  26
ATOM     26  C   UNL     1       4.378   7.079  16.684  0.00  0.00    +0.000 C 
BRANCH  26  27
ATOM     27  C   UNL     1       5.732   6.480  17.024  0.00  0.00    +0.000 A 
ATOM     28  C   UNL     1       6.714   7.204  17.721  0.00  0.00    +0.000 A 
ATOM     29  F   UNL     1       6.527   8.491  18.048  0.00  0.00    +0.000 F 
ATOM     30  C   UNL     1       7.928   6.634  18.098  0.00  0.00    +0.000 A 
ATOM     31  C   UNL     1       8.194   5.305  17.806  0.00  0.00    +0.000 A 
ATOM     32  C   UNL     1       7.255   4.563  17.097  0.00  0.00    +0.000 A 
ATOM     33  C   UNL     1       6.031   5.133  16.676  0.00  0.00    +0.000 A 
BRANCH  33  34
ATOM     34  C   UNL     1       5.129   4.232  15.850  0.00  0.00    +0.000 C 
ATOM     35  F   UNL     1       3.910   3.976  16.392  0.00  0.00    +0.000 F 
ATOM     36  F   UNL     1       4.872   4.772  14.622  0.00  0.00    +0.000 F 
ATOM     37  F   UNL     1       5.689   3.017  15.608  0.00  0.00    +0.000 F 
ENDBRANCH  33  34
ENDBRANCH  26  27
ENDBRANCH   6  26
TORSDOF 8
ENDMDL
MODEL 6
REMARK VINA RESULT:      -7.6      2.683      6.135
REMARK  Name = 
REMARK  8 active torsions:
REMARK  status: ('A' for Active; 'I' for Inactive)
REMARK    1  A    between atoms: N_1  and  C_2
REMARK    2  A    between atoms: C_2  and  C_3
REMARK    3  A    between atoms: C_2  and  C_30
REMARK    4  A    between atoms: C_3  and  N_4
REMARK    5  A    between atoms: C_7  and  C_8
REMARK    6  A    between atoms: N_15  and  C_16
REMARK    7  A    between atoms: C_16  and  C_17
REMARK    8  A    between atoms: C_23  and  C_24
REMARK                            x       y       z     vdW  Elec       q    Type
REMARK                         _______ _______ _______ _____ _____    ______ ____
ROOT
ATOM      1  N   UNL     1       4.653   6.158  17.603  0.00  0.00    +0.000 N 
ATOM      2  C   UNL     1       5.053   6.087  16.276  0.00  0.00    +0.000 A 
ATOM      3  O   UNL     1       5.089   7.064  15.529  0.00  0.00    +0.000 OA
ATOM      4  C   UNL     1       5.422   4.738  15.768  0.00  0.00    +0.000 A 
ATOM      5  C   UNL     1       5.170   3.684  16.550  0.00  0.00    +0.000 A 
ATOM      6  N   UNL     1       4.674   3.810  17.829  0.00  0.00    +0.000 N 
ATOM      7  C   UNL     1       4.491   5.051  18.437  0.00  0.00    +0.000 A 
ATOM      8  O   UNL     1       4.187   5.157  19.626  0.00  0.00    +0.000 OA
ENDROOT
BRANCH   4   9
ATOM      9  C   UNL     1       6.036   4.525  14.458  0.00  0.00    +0.000 A 
ATOM     10  C   UNL     1       7.226   5.168  14.100  0.00  0.00    +0.000 A 
ATOM     11  C   UNL     1       7.754   5.006  12.817  0.00  0.00    +0.000 A 
ATOM     12  C   UNL     1       7.095   4.202  11.886  0.00  0.00    +0.000 A 
ATOM     13  C   UNL     1       5.911   3.555  12.236  0.00  0.00    +0.000 A 
ATOM     14  C   UNL     1       5.381   3.717  13.517  0.00  0.00    +0.000 A 
ENDBRANCH   4   9
BRANCH   1  15
ATOM     15  C   UNL     1       4.284   7.480  18.129  0.00  0.00    +0.000 C 
BRANCH  15  16
ATOM     16  C   UNL     1       2.819   7.900  17.823  0.00  0.00    +0.000 C 
BRANCH  16  17
ATOM     17  C   UNL     1       2.027   8.093  19.112  0.00  0.00    +0.000 A 
ATOM     18  C   UNL     1       1.335   9.292  19.346  0.00  0.00    +0.000 A 
ATOM     19  C   UNL     1       0.606   9.482  20.525  0.00  0.00    +0.000 A 
ATOM     20  C   UNL     1       0.559   8.478  21.491  0.00  0.00    +0.000 A 
ATOM     21  C   UNL     1       1.236   7.281  21.273  0.00  0.00    +0.000 A 
ATOM     22  C   UNL     1       1.962   7.089  20.094  0.00  0.00    +0.000 A 
ENDBRANCH  16  17
BRANCH  16  23
ATOM     23  N   UNL     1       2.731   9.108  16.986  0.00  0.00    +0.000 NA
ATOM     24  H   UNL     1       1.759   9.261  16.727  0.00  0.00    +0.000 HD
ATOM     25  H   UNL     1       3.212   8.938  16.102  0.00  0.00    +0.000 HD
ENDBRANCH  16  23
ENDBRANCH  15  16
ENDBRANCH   1  15
BRANCH   6  26
ATOM     26  C   UNL     1       4.349   2.594  18.580  0.00  0.00    +0.000 C 
BRANCH  26  27
ATOM     27  C   UNL     1       3.250   2.672  19.625  0.00  0.00    +0.000 A 
ATOM     28  C   UNL     1       3.479   2.356  20.975  0.00  0.00    +0.000 A 
ATOM     29  F   UNL     1       4.668   1.892  21.387  0.00  0.00    +0.000 F 
ATOM     30  C   UNL     1       2.492   2.496  21.947  0.00  0.00    +0.000 A 
ATOM     31  C   UNL     1       1.239   2.980  21.604  0.00  0.00    +0.000 A 
ATOM     32  C   UNL     1       0.968   3.282  20.273  0.00  0.00    +0.000 A 
ATOM     33  C   UNL     1       1.946   3.115  19.266  0.00  0.00    +0.000 A 
BRANCH  33  34
ATOM     34  C   UNL     1       1.494   3.414  17.847  0.00  0.00    +0.000 C 
ATOM     35  F   UNL     1       0.163   3.257  17.616  0.00  0.00    +0.000 F 
ATOM     36  F   UNL     1       1.771   4.703  17.494  0.00  0.00    +0.000 F 
ATOM     37  F   UNL     1       2.123   2.636  16.925  0.00  0.00    +0.000 F 
ENDBRANCH  33  34
ENDBRANCH  26  27
ENDBRANCH   6  26
TORSDOF 8
ENDMDL
MODEL 7
REMARK VINA RESULT:      -7.6      1.094      1.854
REMARK  Name = 
REMARK  8 active torsions:
REMARK  status: ('A' for Active; 'I' for Inactive)
REMARK    1  A    between atoms: N_1  and  C_2
REMARK    2  A    between atoms: C_2  and  C_3
REMARK    3  A    between atoms: C_2  and  C_30
REMARK    4  A    between atoms: C_3  and  N_4
REMARK    5  A    between atoms: C_7  and  C_8
REMARK    6  A    between atoms: N_15  and  C_16
REMARK    7  A    between atoms: C_16  and  C_17
REMARK    8  A    between atoms: C_23  and  C_24
REMARK                            x       y       z     vdW  Elec       q    Type
REMARK                         _______ _______ _______ _____ _____    ______ ____
ROOT
ATOM      1  N   UNL     1       1.840   8.360  19.044  0.00  0.00    +0.000 N 
ATOM      2  C   UNL     1       1.611   7.275  19.879  0.00  0.00    +0.000 A 
ATOM      3  O   UNL     1       0.950   7.347  20.913  0.00  0.00    +0.000 OA
ATOM      4  C   UNL     1       2.241   5.989  19.477  0.00  0.00    +0.000 A 
ATOM      5  C   UNL     1       3.115   6.008  18.466  0.00  0.00    +0.000 A 
ATOM      6  N   UNL     1       3.379   7.144  17.734  0.00  0.00    +0.000 N 
ATOM      7  C   UNL     1       2.680   8.334  17.931  0.00  0.00    +0.000 A 
ATOM      8  O   UNL     1       2.815   9.302  17.181  0.00  0.00    +0.000 OA
ENDROOT
BRANCH   4   9
ATOM      9  C   UNL     1       1.948   4.720  20.144  0.00  0.00    +0.000 A 
ATOM     10  C   UNL     1       1.030   3.812  19.605  0.00  0.00    +0.000 A 
ATOM     11  C   UNL     1       0.712   2.641  20.297  0.00  0.00    +0.000 A 
ATOM     12  C   UNL     1       1.308   2.373  21.530  0.00  0.00    +0.000 A 
ATOM     13  C   UNL     1       2.227   3.271  22.071  0.00  0.00    +0.000 A 
ATOM     14  C   UNL     1       2.545   4.442  21.382  0.00  0.00    +0.000 A 
ENDBRANCH   4   9
BRANCH   1  15
ATOM     15  C   UNL     1       1.228   9.643  19.419  0.00  0.00    +0.000 C 
BRANCH  15  16
ATOM     16  C   UNL     1       0.780  10.512  18.210  0.00  0.00    +0.000 C 
BRANCH  16  17
ATOM     17  C   UNL     1      -0.737  10.659  18.178  0.00  0.00    +0.000 A 
ATOM     18  C   UNL     1      -1.515   9.816  17.368  0.00  0.00    +0.000 A 
ATOM     19  C   UNL     1      -2.908   9.943  17.329  0.00  0.00    +0.000 A 
ATOM     20  C   UNL     1      -3.546  10.915  18.097  0.00  0.00    +0.000 A 
ATOM     21  C   UNL     1      -2.791  11.756  18.910  0.00  0.00    +0.000 A 
ATOM     22  C   UNL     1      -1.400  11.629  18.952  0.00  0.00    +0.000 A 
ENDBRANCH  16  17
BRANCH  16  23
ATOM     23  N   UNL     1       1.421  11.837  18.186  0.00  0.00    +0.000 NA
ATOM     24  H   UNL     1       1.425  12.219  19.130  0.00  0.00    +0.000 HD
ATOM     25  H   UNL     1       0.840  12.480  17.649  0.00  0.00    +0.000 HD
ENDBRANCH  16  23
ENDBRANCH  15  16
ENDBRANCH   1  15
BRANCH   6  26
ATOM     26  C   UNL     1       4.416   7.090  16.700  0.00  0.00    +0.000 C 
BRANCH  26  27
ATOM     27  C   UNL     1       5.754   6.470  17.061  0.00  0.00    +0.000 A 
ATOM     28  C   UNL     1       6.735   7.176  17.778  0.00  0.00    +0.000 A 
ATOM     29  F   UNL     1       6.561   8.464  18.108  0.00  0.00    +0.000 F 
ATOM     30  C   UNL     1       7.933   6.586  18.174  0.00  0.00    +0.000 A 
ATOM     31  C   UNL     1       8.184   5.254  17.881  0.00  0.00    +0.000 A 
ATOM     32  C   UNL     1       7.246   4.529  17.153  0.00  0.00    +0.000 A 
ATOM     33  C   UNL     1       6.039   5.120  16.713  0.00  0.00    +0.000 A 
BRANCH  33  34
ATOM     34  C   UNL     1       5.138   4.236  15.867  0.00  0.00    +0.000 C 
ATOM     35  F   UNL     1       4.810   4.740  14.648  0.00  0.00    +0.000 F 
ATOM     36  F   UNL     1       5.719   3.027  15.613  0.00  0.00    +0.000 F 
ATOM     37  F   UNL     1       3.958   3.956  16.482  0.00  0.00    +0.000 F 
ENDBRANCH  33  34
ENDBRANCH  26  27
ENDBRANCH   6  26
TORSDOF 8
ENDMDL
MODEL 8
REMARK VINA RESULT:      -7.5      0.715      1.101
REMARK  Name = 
REMARK  8 active torsions:
REMARK  status: ('A' for Active; 'I' for Inactive)
REMARK    1  A    between atoms: N_1  and  C_2
REMARK    2  A    between atoms: C_2  and  C_3
REMARK    3  A    between atoms: C_2  and  C_30
REMARK    4  A    between atoms: C_3  and  N_4
REMARK    5  A    between atoms: C_7  and  C_8
REMARK    6  A    between atoms: N_15  and  C_16
REMARK    7  A    between atoms: C_16  and  C_17
REMARK    8  A    between atoms: C_23  and  C_24
REMARK                            x       y       z     vdW  Elec       q    Type
REMARK                         _______ _______ _______ _____ _____    ______ ____
ROOT
ATOM      1  N   UNL     1       1.907   8.497  19.101  0.00  0.00    +0.000 N 
ATOM      2  C   UNL     1       1.655   7.436  19.959  0.00  0.00    +0.000 A 
ATOM      3  O   UNL     1       1.037   7.554  21.015  0.00  0.00    +0.000 OA
ATOM      4  C   UNL     1       2.204   6.114  19.553  0.00  0.00    +0.000 A 
ATOM      5  C   UNL     1       3.040   6.076  18.510  0.00  0.00    +0.000 A 
ATOM      6  N   UNL     1       3.333   7.189  17.753  0.00  0.00    +0.000 N 
ATOM      7  C   UNL     1       2.703   8.415  17.958  0.00  0.00    +0.000 A 
ATOM      8  O   UNL     1       2.859   9.365  17.190  0.00  0.00    +0.000 OA
ENDROOT
BRANCH   4   9
ATOM      9  C   UNL     1       1.872   4.871  20.247  0.00  0.00    +0.000 A 
ATOM     10  C   UNL     1       2.517   4.508  21.434  0.00  0.00    +0.000 A 
ATOM     11  C   UNL     1       2.235   3.281  22.040  0.00  0.00    +0.000 A 
ATOM     12  C   UNL     1       1.310   2.411  21.462  0.00  0.00    +0.000 A 
ATOM     13  C   UNL     1       0.660   2.768  20.282  0.00  0.00    +0.000 A 
ATOM     14  C   UNL     1       0.941   3.992  19.675  0.00  0.00    +0.000 A 
ENDBRANCH   4   9
BRANCH   1  15
ATOM     15  C   UNL     1       1.375   9.815  19.479  0.00  0.00    +0.000 C 
BRANCH  15  16
ATOM     16  C   UNL     1      -0.075  10.081  18.988  0.00  0.00    +0.000 C 
BRANCH  16  17
ATOM     17  C   UNL     1      -0.530  11.485  19.369  0.00  0.00    +0.000 A 
ATOM     18  C   UNL     1      -1.529  11.669  20.338  0.00  0.00    +0.000 A 
ATOM     19  C   UNL     1      -1.956  12.952  20.695  0.00  0.00    +0.000 A 
ATOM     20  C   UNL     1      -1.394  14.073  20.087  0.00  0.00    +0.000 A 
ATOM     21  C   UNL     1      -0.399  13.910  19.127  0.00  0.00    +0.000 A 
ATOM     22  C   UNL     1       0.030  12.628  18.772  0.00  0.00    +0.000 A 
ENDBRANCH  16  17
BRANCH  16  23
ATOM     23  N   UNL     1      -0.240   9.867  17.540  0.00  0.00    +0.000 NA
ATOM     24  H   UNL     1      -0.912  10.542  17.181  0.00  0.00    +0.000 HD
ATOM     25  H   UNL     1      -0.675   8.958  17.383  0.00  0.00    +0.000 HD
ENDBRANCH  16  23
ENDBRANCH  15  16
ENDBRANCH   1  15
BRANCH   6  26
ATOM     26  C   UNL     1       4.327   7.069  16.683  0.00  0.00    +0.000 C 
BRANCH  26  27
ATOM     27  C   UNL     1       5.680   6.471  17.028  0.00  0.00    +0.000 A 
ATOM     28  C   UNL     1       6.667   7.203  17.710  0.00  0.00    +0.000 A 
ATOM     29  F   UNL     1       6.484   8.495  18.019  0.00  0.00    +0.000 F 
ATOM     30  C   UNL     1       7.880   6.636  18.091  0.00  0.00    +0.000 A 
ATOM     31  C   UNL     1       8.142   5.301  17.818  0.00  0.00    +0.000 A 
ATOM     32  C   UNL     1       7.198   4.552  17.124  0.00  0.00    +0.000 A 
ATOM     33  C   UNL     1       5.974   5.119  16.699  0.00  0.00    +0.000 A 
BRANCH  33  34
ATOM     34  C   UNL     1       5.068   4.208  15.888  0.00  0.00    +0.000 C 
ATOM     35  F   UNL     1       4.735   4.670  14.654  0.00  0.00    +0.000 F 
ATOM     36  F   UNL     1       5.644   2.990  15.674  0.00  0.00    +0.000 F 
ATOM     37  F   UNL     1       3.889   3.953  16.518  0.00  0.00    +0.000 F 
ENDBRANCH  33  34
ENDBRANCH  26  27
ENDBRANCH   6  26
TORSDOF 8
ENDMDL
MODEL 9
REMARK VINA RESULT:      -7.2      4.410      9.658
REMARK  Name = 
REMARK  8 active torsions:
REMARK  status: ('A' for Active; 'I' for Inactive)
REMARK    1  A    between atoms: N_1  and  C_2
REMARK    2  A    between atoms: C_2  and  C_3
REMARK    3  A    between atoms: C_2  and  C_30
REMARK    4  A    between atoms: C_3  and  N_4
REMARK    5  A    between atoms: C_7  and  C_8
REMARK    6  A    between atoms: N_15  and  C_16
REMARK    7  A    between atoms: C_16  and  C_17
REMARK    8  A    between atoms: C_23  and  C_24
REMARK                            x       y       z     vdW  Elec       q    Type
REMARK                         _______ _______ _______ _____ _____    ______ ____
ROOT
ATOM      1  N   UNL     1       0.819   9.544  19.700  0.00  0.00    +0.000 N 
ATOM      2  C   UNL     1      -0.022   9.778  18.621  0.00  0.00    +0.000 A 
ATOM      3  O   UNL     1       0.234   9.412  17.474  0.00  0.00    +0.000 OA
ATOM      4  C   UNL     1      -1.269  10.536  18.908  0.00  0.00    +0.000 A 
ATOM      5  C   UNL     1      -1.402  11.088  20.118  0.00  0.00    +0.000 A 
ATOM      6  N   UNL     1      -0.479  10.904  21.123  0.00  0.00    +0.000 N 
ATOM      7  C   UNL     1       0.612  10.047  20.984  0.00  0.00    +0.000 A 
ATOM      8  O   UNL     1       1.351   9.773  21.930  0.00  0.00    +0.000 OA
ENDROOT
BRANCH   4   9
ATOM      9  C   UNL     1      -2.339  10.703  17.926  0.00  0.00    +0.000 A 
ATOM     10  C   UNL     1      -2.235  10.161  16.640  0.00  0.00    +0.000 A 
ATOM     11  C   UNL     1      -3.238  10.396  15.696  0.00  0.00    +0.000 A 
ATOM     12  C   UNL     1      -4.346  11.174  16.031  0.00  0.00    +0.000 A 
ATOM     13  C   UNL     1      -4.458  11.715  17.311  0.00  0.00    +0.000 A 
ATOM     14  C   UNL     1      -3.458  11.482  18.255  0.00  0.00    +0.000 A 
ENDBRANCH   4   9
BRANCH   1  15
ATOM     15  C   UNL     1       2.059   8.796  19.442  0.00  0.00    +0.000 C 
BRANCH  15  16
ATOM     16  C   UNL     1       1.896   7.252  19.508  0.00  0.00    +0.000 C 
BRANCH  16  17
ATOM     17  C   UNL     1       2.851   6.562  18.540  0.00  0.00    +0.000 A 
ATOM     18  C   UNL     1       2.890   5.161  18.460  0.00  0.00    +0.000 A 
ATOM     19  C   UNL     1       3.763   4.516  17.577  0.00  0.00    +0.000 A 
ATOM     20  C   UNL     1       4.613   5.261  16.761  0.00  0.00    +0.000 A 
ATOM     21  C   UNL     1       4.584   6.651  16.823  0.00  0.00    +0.000 A 
ATOM     22  C   UNL     1       3.710   7.297  17.703  0.00  0.00    +0.000 A 
ENDBRANCH  16  17
BRANCH  16  23
ATOM     23  N   UNL     1       2.072   6.713  20.867  0.00  0.00    +0.000 NA
ATOM     24  H   UNL     1       1.679   7.372  21.537  0.00  0.00    +0.000 HD
ATOM     25  H   UNL     1       3.067   6.682  21.088  0.00  0.00    +0.000 HD
ENDBRANCH  16  23
ENDBRANCH  15  16
ENDBRANCH   1  15
BRANCH   6  26
ATOM     26  C   UNL     1      -0.666  11.619  22.389  0.00  0.00    +0.000 C 
BRANCH  26  27
ATOM     27  C   UNL     1      -0.929  13.113  22.334  0.00  0.00    +0.000 A 
ATOM     28  C   UNL     1       0.074  14.035  21.988  0.00  0.00    +0.000 A 
ATOM     29  F   UNL     1       1.335  13.640  21.767  0.00  0.00    +0.000 F 
ATOM     30  C   UNL     1      -0.183  15.399  21.865  0.00  0.00    +0.000 A 
ATOM     31  C   UNL     1      -1.466  15.887  22.068  0.00  0.00    +0.000 A 
ATOM     32  C   UNL     1      -2.479  15.007  22.434  0.00  0.00    +0.000 A 
ATOM     33  C   UNL     1      -2.231  13.625  22.596  0.00  0.00    +0.000 A 
BRANCH  33  34
ATOM     34  C   UNL     1      -3.409  12.790  23.068  0.00  0.00    +0.000 C 
ATOM     35  F   UNL     1      -3.099  11.774  23.915  0.00  0.00    +0.000 F 
ATOM     36  F   UNL     1      -4.324  13.550  23.738  0.00  0.00    +0.000 F 
ATOM     37  F   UNL     1      -4.088  12.219  22.037  0.00  0.00    +0.000 F 
ENDBRANCH  33  34
ENDBRANCH  26  27
ENDBRANCH   6  26
TORSDOF 8
ENDMDL
