MODEL 1
REMARK VINA RESULT:      -7.4      0.000      0.000
REMARK  Name = 
REMARK  0 active torsions:
REMARK  status: ('A' for Active; 'I' for Inactive)
REMARK                            x       y       z     vdW  Elec       q    Type
REMARK                         _______ _______ _______ _____ _____    ______ ____
ROOT
ATOM      1  O   UNL     1       6.570   5.221  19.820  0.00  0.00    +0.000 OA
ATOM      2  C   UNL     1       5.644   4.953  19.059  0.00  0.00    +0.000 C 
ATOM      3  C   UNL     1       4.224   4.855  19.538  0.00  0.00    +0.000 C 
ATOM      4  C   UNL     1       3.325   4.125  18.538  0.00  0.00    +0.000 C 
ATOM      5  C   UNL     1       1.849   4.349  18.937  0.00  0.00    +0.000 C 
ATOM      6  C   UNL     1       1.146   3.035  18.624  0.00  0.00    +0.000 C 
ATOM      7  C   UNL     1       2.179   1.999  19.016  0.00  0.00    +0.000 C 
ATOM      8  C   UNL     1       3.494   2.582  18.517  0.00  0.00    +0.000 C 
ATOM      9  O   UNL     1       3.488   4.643  17.204  0.00  0.00    +0.000 OA
ATOM     10  C   UNL     1       4.786   4.637  16.769  0.00  0.00    +0.000 A 
ATOM     11  C   UNL     1       4.990   4.482  15.398  0.00  0.00    +0.000 A 
ATOM     12  C   UNL     1       6.291   4.433  14.887  0.00  0.00    +0.000 A 
ATOM     13  C   UNL     1       7.387   4.568  15.743  0.00  0.00    +0.000 A 
ATOM     14  C   UNL     1       7.184   4.749  17.111  0.00  0.00    +0.000 A 
ATOM     15  C   UNL     1       5.881   4.773  17.618  0.00  0.00    +0.000 A 
ENDROOT
TORSDOF 0
ENDMDL
MODEL 2
REMARK VINA RESULT:      -7.2      1.710      5.059
REMARK  Name = 
REMARK  0 active torsions:
REMARK  status: ('A' for Active; 'I' for Inactive)
REMARK                            x       y       z     vdW  Elec       q    Type
REMARK                         _______ _______ _______ _____ _____    ______ ____
ROOT
ATOM      1  O   UNL     1       3.498   2.289  17.714  0.00  0.00    +0.000 OA
ATOM      2  C   UNL     1       3.785   3.470  17.886  0.00  0.00    +0.000 C 
ATOM      3  C   UNL     1       4.883   4.143  17.113  0.00  0.00    +0.000 C 
ATOM      4  C   UNL     1       5.332   5.453  17.763  0.00  0.00    +0.000 C 
ATOM      5  C   UNL     1       6.209   6.234  16.760  0.00  0.00    +0.000 C 
ATOM      6  C   UNL     1       7.287   6.899  17.604  0.00  0.00    +0.000 C 
ATOM      7  C   UNL     1       7.596   5.844  18.647  0.00  0.00    +0.000 C 
ATOM      8  C   UNL     1       6.230   5.282  19.017  0.00  0.00    +0.000 C 
ATOM      9  O   UNL     1       4.208   6.292  18.090  0.00  0.00    +0.000 OA
ATOM     10  C   UNL     1       3.269   5.672  18.869  0.00  0.00    +0.000 A 
ATOM     11  C   UNL     1       2.541   6.480  19.742  0.00  0.00    +0.000 A 
ATOM     12  C   UNL     1       1.588   5.910  20.591  0.00  0.00    +0.000 A 
ATOM     13  C   UNL     1       1.342   4.535  20.547  0.00  0.00    +0.000 A 
ATOM     14  C   UNL     1       2.051   3.729  19.657  0.00  0.00    +0.000 A 
ATOM     15  C   UNL     1       3.019   4.303  18.826  0.00  0.00    +0.000 A 
ENDROOT
TORSDOF 0
ENDMDL
MODEL 3
REMARK VINA RESULT:      -7.1      1.282      4.765
REMARK  Name = 
REMARK  0 active torsions:
REMARK  status: ('A' for Active; 'I' for Inactive)
REMARK                            x       y       z     vdW  Elec       q    Type
REMARK                         _______ _______ _______ _____ _____    ______ ____
ROOT
ATOM      1  O   UNL     1       2.175   6.677  17.839  0.00  0.00    +0.000 OA
ATOM      2  C   UNL     1       3.039   5.845  18.100  0.00  0.00    +0.000 C 
ATOM      3  C   UNL     1       4.497   6.200  18.151  0.00  0.00    +0.000 C 
ATOM      4  C   UNL     1       5.397   4.965  18.084  0.00  0.00    +0.000 C 
ATOM      5  C   UNL     1       6.838   5.375  18.466  0.00  0.00    +0.000 C 
ATOM      6  C   UNL     1       7.742   4.542  17.569  0.00  0.00    +0.000 C 
ATOM      7  C   UNL     1       6.986   4.520  16.256  0.00  0.00    +0.000 C 
ATOM      8  C   UNL     1       5.532   4.335  16.672  0.00  0.00    +0.000 C 
ATOM      9  O   UNL     1       4.979   3.955  19.021  0.00  0.00    +0.000 OA
ATOM     10  C   UNL     1       3.666   3.593  18.888  0.00  0.00    +0.000 A 
ATOM     11  C   UNL     1       3.336   2.282  19.227  0.00  0.00    +0.000 A 
ATOM     12  C   UNL     1       2.019   1.834  19.085  0.00  0.00    +0.000 A 
ATOM     13  C   UNL     1       1.026   2.706  18.630  0.00  0.00    +0.000 A 
ATOM     14  C   UNL     1       1.350   4.025  18.314  0.00  0.00    +0.000 A 
ATOM     15  C   UNL     1       2.673   4.460  18.437  0.00  0.00    +0.000 A 
ENDROOT
TORSDOF 0
ENDMDL
MODEL 4
REMARK VINA RESULT:      -7.0      1.551      2.975
REMARK  Name = 
REMARK  0 active torsions:
REMARK  status: ('A' for Active; 'I' for Inactive)
REMARK                            x       y       z     vdW  Elec       q    Type
REMARK                         _______ _______ _______ _____ _____    ______ ____
ROOT
ATOM      1  O   UNL     1       4.667   4.182  15.515  0.00  0.00    +0.000 OA
ATOM      2  C   UNL     1       4.807   4.148  16.734  0.00  0.00    +0.000 C 
ATOM      3  C   UNL     1       3.986   3.239  17.604  0.00  0.00    +0.000 C 
ATOM      4  C   UNL     1       4.032   3.651  19.077  0.00  0.00    +0.000 C 
ATOM      5  C   UNL     1       3.450   2.504  19.934  0.00  0.00    +0.000 C 
ATOM      6  C   UNL     1       2.688   3.192  21.058  0.00  0.00    +0.000 C 
ATOM      7  C   UNL     1       2.063   4.383  20.360  0.00  0.00    +0.000 C 
ATOM      8  C   UNL     1       3.162   4.885  19.433  0.00  0.00    +0.000 C 
ATOM      9  O   UNL     1       5.383   3.872  19.522  0.00  0.00    +0.000 OA
ATOM     10  C   UNL     1       6.073   4.773  18.756  0.00  0.00    +0.000 A 
ATOM     11  C   UNL     1       7.056   5.524  19.398  0.00  0.00    +0.000 A 
ATOM     12  C   UNL     1       7.777   6.486  18.684  0.00  0.00    +0.000 A 
ATOM     13  C   UNL     1       7.535   6.677  17.322  0.00  0.00    +0.000 A 
ATOM     14  C   UNL     1       6.570   5.908  16.672  0.00  0.00    +0.000 A 
ATOM     15  C   UNL     1       5.836   4.963  17.397  0.00  0.00    +0.000 A 
ENDROOT
TORSDOF 0
ENDMDL
MODEL 5
REMARK VINA RESULT:      -7.0      1.231      4.737
REMARK  Name = 
REMARK  0 active torsions:
REMARK  status: ('A' for Active; 'I' for Inactive)
REMARK                            x       y       z     vdW  Elec       q    Type
REMARK                         _______ _______ _______ _____ _____    ______ ____
ROOT
ATOM      1  O   UNL     1       2.327   6.859  18.098  0.00  0.00    +0.000 OA
ATOM      2  C   UNL     1       3.165   5.977  17.935  0.00  0.00    +0.000 C 
ATOM      3  C   UNL     1       4.587   6.288  17.563  0.00  0.00    +0.000 C 
ATOM      4  C   UNL     1       5.325   5.063  17.020  0.00  0.00    +0.000 C 
ATOM      5  C   UNL     1       6.838   5.372  16.973  0.00  0.00    +0.000 C 
ATOM      6  C   UNL     1       7.348   4.684  15.714  0.00  0.00    +0.000 C 
ATOM      7  C   UNL     1       6.216   4.900  14.731  0.00  0.00    +0.000 C 
ATOM      8  C   UNL     1       4.959   4.678  15.562  0.00  0.00    +0.000 C 
ATOM      9  O   UNL     1       5.151   3.919  17.876  0.00  0.00    +0.000 OA
ATOM     10  C   UNL     1       3.839   3.612  18.122  0.00  0.00    +0.000 A 
ATOM     11  C   UNL     1       3.537   2.270  18.345  0.00  0.00    +0.000 A 
ATOM     12  C   UNL     1       2.213   1.880  18.570  0.00  0.00    +0.000 A 
ATOM     13  C   UNL     1       1.195   2.837  18.601  0.00  0.00    +0.000 A 
ATOM     14  C   UNL     1       1.500   4.183  18.403  0.00  0.00    +0.000 A 
ATOM     15  C   UNL     1       2.823   4.563  18.155  0.00  0.00    +0.000 A 
ENDROOT
TORSDOF 0
ENDMDL
MODEL 6
REMARK VINA RESULT:      -6.9      1.754      4.720
REMARK  Name = 
REMARK  0 active torsions:
REMARK  status: ('A' for Active; 'I' for Inactive)
REMARK                            x       y       z     vdW  Elec       q    Type
REMARK                         _______ _______ _______ _____ _____    ______ ____
ROOT
ATOM      1  O   UNL     1       2.809   2.428  19.586  0.00  0.00    +0.000 OA
ATOM      2  C   UNL     1       3.253   3.339  18.892  0.00  0.00    +0.000 C 
ATOM      3  C   UNL     1       4.146   3.077  17.713  0.00  0.00    +0.000 C 
ATOM      4  C   UNL     1       4.893   4.334  17.263  0.00  0.00    +0.000 C 
ATOM      5  C   UNL     1       5.522   4.072  15.876  0.00  0.00    +0.000 C 
ATOM      6  C   UNL     1       6.858   4.800  15.898  0.00  0.00    +0.000 C 
ATOM      7  C   UNL     1       7.343   4.569  17.314  0.00  0.00    +0.000 C 
ATOM      8  C   UNL     1       6.091   4.736  18.164  0.00  0.00    +0.000 C 
ATOM      9  O   UNL     1       4.003   5.457  17.122  0.00  0.00    +0.000 OA
ATOM     10  C   UNL     1       3.267   5.718  18.246  0.00  0.00    +0.000 A 
ATOM     11  C   UNL     1       2.907   7.047  18.468  0.00  0.00    +0.000 A 
ATOM     12  C   UNL     1       2.184   7.392  19.614  0.00  0.00    +0.000 A 
ATOM     13  C   UNL     1       1.796   6.405  20.524  0.00  0.00    +0.000 A 
ATOM     14  C   UNL     1       2.135   5.072  20.290  0.00  0.00    +0.000 A 
ATOM     15  C   UNL     1       2.877   4.737  19.154  0.00  0.00    +0.000 A 
ENDROOT
TORSDOF 0
ENDMDL
MODEL 7
REMARK VINA RESULT:      -6.9      1.646      1.976
REMARK  Name = 
REMARK  0 active torsions:
REMARK  status: ('A' for Active; 'I' for Inactive)
REMARK                            x       y       z     vdW  Elec       q    Type
REMARK                         _______ _______ _______ _____ _____    ______ ____
ROOT
ATOM      1  O   UNL     1       3.450   7.761  17.927  0.00  0.00    +0.000 OA
ATOM      2  C   UNL     1       3.439   6.543  17.775  0.00  0.00    +0.000 C 
ATOM      3  C   UNL     1       2.249   5.705  18.148  0.00  0.00    +0.000 C 
ATOM      4  C   UNL     1       2.599   4.220  18.261  0.00  0.00    +0.000 C 
ATOM      5  C   UNL     1       1.290   3.401  18.320  0.00  0.00    +0.000 C 
ATOM      6  C   UNL     1       1.575   2.260  19.286  0.00  0.00    +0.000 C 
ATOM      7  C   UNL     1       2.430   2.923  20.347  0.00  0.00    +0.000 C 
ATOM      8  C   UNL     1       3.363   3.829  19.554  0.00  0.00    +0.000 C 
ATOM      9  O   UNL     1       3.337   3.762  17.113  0.00  0.00    +0.000 OA
ATOM     10  C   UNL     1       4.463   4.497  16.855  0.00  0.00    +0.000 A 
ATOM     11  C   UNL     1       5.529   3.827  16.256  0.00  0.00    +0.000 A 
ATOM     12  C   UNL     1       6.722   4.508  15.994  0.00  0.00    +0.000 A 
ATOM     13  C   UNL     1       6.839   5.865  16.304  0.00  0.00    +0.000 A 
ATOM     14  C   UNL     1       5.764   6.542  16.879  0.00  0.00    +0.000 A 
ATOM     15  C   UNL     1       4.582   5.850  17.160  0.00  0.00    +0.000 A 
ENDROOT
TORSDOF 0
ENDMDL
MODEL 8
REMARK VINA RESULT:      -6.8      1.311      4.698
REMARK  Name = 
REMARK  0 active torsions:
REMARK  status: ('A' for Active; 'I' for Inactive)
REMARK                            x       y       z     vdW  Elec       q    Type
REMARK                         _______ _______ _______ _____ _____    ______ ____
ROOT
ATOM      1  O   UNL     1       2.683   6.670  19.726  0.00  0.00    +0.000 OA
ATOM      2  C   UNL     1       3.332   5.735  19.266  0.00  0.00    +0.000 C 
ATOM      3  C   UNL     1       4.758   5.898  18.823  0.00  0.00    +0.000 C 
ATOM      4  C   UNL     1       5.221   4.749  17.925  0.00  0.00    +0.000 C 
ATOM      5  C   UNL     1       6.759   4.813  17.784  0.00  0.00    +0.000 C 
ATOM      6  C   UNL     1       7.047   4.394  16.350  0.00  0.00    +0.000 C 
ATOM      7  C   UNL     1       5.909   5.030  15.578  0.00  0.00    +0.000 C 
ATOM      8  C   UNL     1       4.693   4.810  16.467  0.00  0.00    +0.000 C 
ATOM      9  O   UNL     1       4.899   3.468  18.498  0.00  0.00    +0.000 OA
ATOM     10  C   UNL     1       3.574   3.324  18.809  0.00  0.00    +0.000 A 
ATOM     11  C   UNL     1       3.047   2.035  18.739  0.00  0.00    +0.000 A 
ATOM     12  C   UNL     1       1.693   1.818  19.012  0.00  0.00    +0.000 A 
ATOM     13  C   UNL     1       0.872   2.886  19.382  0.00  0.00    +0.000 A 
ATOM     14  C   UNL     1       1.403   4.172  19.477  0.00  0.00    +0.000 A 
ATOM     15  C   UNL     1       2.753   4.385  19.181  0.00  0.00    +0.000 A 
ENDROOT
TORSDOF 0
ENDMDL
MODEL 9
REMARK VINA RESULT:      -6.8      1.495      4.774
REMARK  Name = 
REMARK  0 active torsions:
REMARK  status: ('A' for Active; 'I' for Inactive)
REMARK                            x       y       z     vdW  Elec       q    Type
REMARK                         _______ _______ _______ _____ _____    ______ ____
ROOT
ATOM      1  O   UNL     1       2.361   7.205  18.227  0.00  0.00    +0.000 OA
ATOM      2  C   UNL     1       3.234   6.342  18.201  0.00  0.00    +0.000 C 
ATOM      3  C   UNL     1       4.540   6.552  17.490  0.00  0.00    +0.000 C 
ATOM      4  C   UNL     1       5.282   5.238  17.240  0.00  0.00    +0.000 C 
ATOM      5  C   UNL     1       6.733   5.556  16.814  0.00  0.00    +0.000 C 
ATOM      6  C   UNL     1       7.084   4.504  15.771  0.00  0.00    +0.000 C 
ATOM      7  C   UNL     1       5.788   4.350  15.001  0.00  0.00    +0.000 C 
ATOM      8  C   UNL     1       4.713   4.381  16.078  0.00  0.00    +0.000 C 
ATOM      9  O   UNL     1       5.355   4.437  18.434  0.00  0.00    +0.000 OA
ATOM     10  C   UNL     1       4.135   4.192  19.007  0.00  0.00    +0.000 A 
ATOM     11  C   UNL     1       3.994   2.992  19.701  0.00  0.00    +0.000 A 
ATOM     12  C   UNL     1       2.766   2.661  20.282  0.00  0.00    +0.000 A 
ATOM     13  C   UNL     1       1.688   3.545  20.194  0.00  0.00    +0.000 A 
ATOM     14  C   UNL     1       1.835   4.759  19.522  0.00  0.00    +0.000 A 
ATOM     15  C   UNL     1       3.059   5.072  18.923  0.00  0.00    +0.000 A 
ENDROOT
TORSDOF 0
ENDMDL
