MODEL 1
REMARK VINA RESULT:      -7.4      0.000      0.000
REMARK  Name = 
REMARK  5 active torsions:
REMARK  status: ('A' for Active; 'I' for Inactive)
REMARK    1  A    between atoms: N_2  and  C_4
REMARK    2  A    between atoms: C_7  and  C_8
REMARK    3  A    between atoms: C_8  and  N_9
REMARK    4  A    between atoms: C_11  and  C_12
REMARK    5  A    between atoms: C_12  and  N_13
REMARK                            x       y       z     vdW  Elec       q    Type
REMARK                         _______ _______ _______ _____ _____    ______ ____
ROOT
ATOM      1  N   UNL     1       1.322   9.536  18.662  0.00  0.00    +0.000 N 
ATOM      2  C   UNL     1       1.431   8.538  19.588  0.00  0.00    +0.000 A 
ATOM      3  C   UNL     1       2.312   7.643  19.018  0.00  0.00    +0.000 A 
ATOM      4  N   UNL     1       2.667   8.104  17.773  0.00  0.00    +0.000 NA
ATOM      5  N   UNL     1       2.053   9.262  17.566  0.00  0.00    +0.000 NA
ENDROOT
BRANCH   1   6
ATOM      6  C   UNL     1       0.755  10.860  18.849  0.00  0.00    +0.000 C 
BRANCH   6  10
ATOM      7  C   UNL     1      -3.479  11.104  18.052  0.00  0.00    +0.000 A 
ATOM      8  C   UNL     1      -2.893  11.972  18.981  0.00  0.00    +0.000 A 
ATOM      9  C   UNL     1      -1.524  11.874  19.248  0.00  0.00    +0.000 A 
ATOM     10  C   UNL     1      -0.733  10.913  18.597  0.00  0.00    +0.000 A 
ATOM     11  C   UNL     1      -1.337  10.049  17.669  0.00  0.00    +0.000 A 
ATOM     12  C   UNL     1      -2.705  10.140  17.394  0.00  0.00    +0.000 A 
BRANCH   7  14
ATOM     13  O   UNL     1      -5.694  10.533  18.447  0.00  0.00    +0.000 OA
ATOM     14  N   UNL     1      -4.914  11.213  17.762  0.00  0.00    +0.000 N 
ATOM     15  O   UNL     1      -5.264  11.983  16.855  0.00  0.00    +0.000 OA
ENDBRANCH   7  14
ENDBRANCH   6  10
ENDBRANCH   1   6
BRANCH   3  16
ATOM     16  C   UNL     1       2.905   6.401  19.572  0.00  0.00    +0.000 C 
BRANCH  16  17
ATOM     17  N   UNL     1       3.140   5.430  18.519  0.00  0.00    +0.000 N 
ATOM     18  C   UNL     1       2.186   4.576  18.012  0.00  0.00    +0.000 A 
ATOM     19  C   UNL     1       2.803   3.742  17.104  0.00  0.00    +0.000 A 
ATOM     20  C   UNL     1       4.159   4.146  17.010  0.00  0.00    +0.000 A 
ATOM     21  C   UNL     1       5.281   3.735  16.295  0.00  0.00    +0.000 A 
ATOM     22  N   UNL     1       6.442   4.412  16.423  0.00  0.00    +0.000 NA
ATOM     23  C   UNL     1       6.463   5.463  17.268  0.00  0.00    +0.000 A 
ATOM     24  N   UNL     1       5.465   5.932  18.044  0.00  0.00    +0.000 NA
ATOM     25  C   UNL     1       4.332   5.225  17.868  0.00  0.00    +0.000 A 
ENDBRANCH  16  17
ENDBRANCH   3  16
TORSDOF 5
ENDMDL
MODEL 2
REMARK VINA RESULT:      -7.4      4.691      8.928
REMARK  Name = 
REMARK  5 active torsions:
REMARK  status: ('A' for Active; 'I' for Inactive)
REMARK    1  A    between atoms: N_2  and  C_4
REMARK    2  A    between atoms: C_7  and  C_8
REMARK    3  A    between atoms: C_8  and  N_9
REMARK    4  A    between atoms: C_11  and  C_12
REMARK    5  A    between atoms: C_12  and  N_13
REMARK                            x       y       z     vdW  Elec       q    Type
REMARK                         _______ _______ _______ _____ _____    ______ ____
ROOT
ATOM      1  N   UNL     1       3.183   4.548  19.589  0.00  0.00    +0.000 N 
ATOM      2  C   UNL     1       3.252   5.895  19.802  0.00  0.00    +0.000 A 
ATOM      3  C   UNL     1       2.042   6.209  20.383  0.00  0.00    +0.000 A 
ATOM      4  N   UNL     1       1.281   5.067  20.463  0.00  0.00    +0.000 NA
ATOM      5  N   UNL     1       1.989   4.058  19.973  0.00  0.00    +0.000 NA
ENDROOT
BRANCH   1   6
ATOM      6  C   UNL     1       4.273   3.644  19.266  0.00  0.00    +0.000 C 
BRANCH   6  10
ATOM      7  C   UNL     1       6.348   4.546  15.592  0.00  0.00    +0.000 A 
ATOM      8  C   UNL     1       7.002   4.704  16.819  0.00  0.00    +0.000 A 
ATOM      9  C   UNL     1       6.318   4.428  18.006  0.00  0.00    +0.000 A 
ATOM     10  C   UNL     1       4.980   3.998  17.980  0.00  0.00    +0.000 A 
ATOM     11  C   UNL     1       4.337   3.847  16.740  0.00  0.00    +0.000 A 
ATOM     12  C   UNL     1       5.015   4.119  15.547  0.00  0.00    +0.000 A 
BRANCH   7  14
ATOM     13  O   UNL     1       8.030   5.608  14.396  0.00  0.00    +0.000 OA
ATOM     14  N   UNL     1       7.069   4.824  14.344  0.00  0.00    +0.000 N 
ATOM     15  O   UNL     1       6.682   4.256  13.312  0.00  0.00    +0.000 OA
ENDBRANCH   7  14
ENDBRANCH   6  10
ENDBRANCH   1   6
BRANCH   3  16
ATOM     16  C   UNL     1       1.549   7.497  20.931  0.00  0.00    +0.000 C 
BRANCH  16  17
ATOM     17  N   UNL     1       1.399   8.480  19.875  0.00  0.00    +0.000 N 
ATOM     18  C   UNL     1       1.978   8.388  18.629  0.00  0.00    +0.000 A 
ATOM     19  C   UNL     1       1.693   9.548  17.941  0.00  0.00    +0.000 A 
ATOM     20  C   UNL     1       0.861  10.340  18.773  0.00  0.00    +0.000 A 
ATOM     21  C   UNL     1       0.239  11.582  18.678  0.00  0.00    +0.000 A 
ATOM     22  N   UNL     1      -0.551  12.015  19.684  0.00  0.00    +0.000 NA
ATOM     23  C   UNL     1      -0.687  11.214  20.760  0.00  0.00    +0.000 A 
ATOM     24  N   UNL     1      -0.108  10.018  20.991  0.00  0.00    +0.000 NA
ATOM     25  C   UNL     1       0.659   9.634  19.953  0.00  0.00    +0.000 A 
ENDBRANCH  16  17
ENDBRANCH   3  16
TORSDOF 5
ENDMDL
MODEL 3
REMARK VINA RESULT:      -7.3      4.540      9.054
REMARK  Name = 
REMARK  5 active torsions:
REMARK  status: ('A' for Active; 'I' for Inactive)
REMARK    1  A    between atoms: N_2  and  C_4
REMARK    2  A    between atoms: C_7  and  C_8
REMARK    3  A    between atoms: C_8  and  N_9
REMARK    4  A    between atoms: C_11  and  C_12
REMARK    5  A    between atoms: C_12  and  N_13
REMARK                            x       y       z     vdW  Elec       q    Type
REMARK                         _______ _______ _______ _____ _____    ______ ____
ROOT
ATOM      1  N   UNL     1       2.987   6.605  19.024  0.00  0.00    +0.000 N 
ATOM      2  C   UNL     1       2.933   7.542  18.031  0.00  0.00    +0.000 A 
ATOM      3  C   UNL     1       2.125   8.534  18.547  0.00  0.00    +0.000 A 
ATOM      4  N   UNL     1       1.695   8.151  19.794  0.00  0.00    +0.000 NA
ATOM      5  N   UNL     1       2.227   6.968  20.074  0.00  0.00    +0.000 NA
ENDROOT
BRANCH   1   6
ATOM      6  C   UNL     1       3.911   5.491  19.141  0.00  0.00    +0.000 C 
BRANCH   6  10
ATOM      7  C   UNL     1       6.191   4.921  15.523  0.00  0.00    +0.000 A 
ATOM      8  C   UNL     1       4.999   4.213  15.715  0.00  0.00    +0.000 A 
ATOM      9  C   UNL     1       4.275   4.388  16.898  0.00  0.00    +0.000 A 
ATOM     10  C   UNL     1       4.734   5.264  17.896  0.00  0.00    +0.000 A 
ATOM     11  C   UNL     1       5.933   5.966  17.689  0.00  0.00    +0.000 A 
ATOM     12  C   UNL     1       6.663   5.798  16.507  0.00  0.00    +0.000 A 
BRANCH   7  14
ATOM     13  O   UNL     1       6.582   3.846  13.503  0.00  0.00    +0.000 OA
ATOM     14  N   UNL     1       6.945   4.746  14.276  0.00  0.00    +0.000 N 
ATOM     15  O   UNL     1       7.898   5.512  14.064  0.00  0.00    +0.000 OA
ENDBRANCH   7  14
ENDBRANCH   6  10
ENDBRANCH   1   6
BRANCH   3  16
ATOM     16  C   UNL     1       1.762   9.859  17.985  0.00  0.00    +0.000 C 
BRANCH  16  17
ATOM     17  N   UNL     1       0.412  10.226  18.370  0.00  0.00    +0.000 N 
ATOM     18  C   UNL     1      -0.730   9.793  17.735  0.00  0.00    +0.000 A 
ATOM     19  C   UNL     1      -1.807  10.428  18.317  0.00  0.00    +0.000 A 
ATOM     20  C   UNL     1      -1.306  11.221  19.381  0.00  0.00    +0.000 A 
ATOM     21  C   UNL     1      -1.850  12.077  20.336  0.00  0.00    +0.000 A 
ATOM     22  N   UNL     1      -1.048  12.644  21.262  0.00  0.00    +0.000 NA
ATOM     23  C   UNL     1       0.270  12.361  21.204  0.00  0.00    +0.000 A 
ATOM     24  N   UNL     1       0.921  11.589  20.311  0.00  0.00    +0.000 NA
ATOM     25  C   UNL     1       0.071  11.044  19.419  0.00  0.00    +0.000 A 
ENDBRANCH  16  17
ENDBRANCH   3  16
TORSDOF 5
ENDMDL
MODEL 4
REMARK VINA RESULT:      -7.3      4.902      9.162
REMARK  Name = 
REMARK  5 active torsions:
REMARK  status: ('A' for Active; 'I' for Inactive)
REMARK    1  A    between atoms: N_2  and  C_4
REMARK    2  A    between atoms: C_7  and  C_8
REMARK    3  A    between atoms: C_8  and  N_9
REMARK    4  A    between atoms: C_11  and  C_12
REMARK    5  A    between atoms: C_12  and  N_13
REMARK                            x       y       z     vdW  Elec       q    Type
REMARK                         _______ _______ _______ _____ _____    ______ ____
ROOT
ATOM      1  N   UNL     1       3.894   4.700  18.557  0.00  0.00    +0.000 N 
ATOM      2  C   UNL     1       3.897   5.881  19.242  0.00  0.00    +0.000 A 
ATOM      3  C   UNL     1       2.571   6.093  19.557  0.00  0.00    +0.000 A 
ATOM      4  N   UNL     1       1.823   5.071  19.025  0.00  0.00    +0.000 NA
ATOM      5  N   UNL     1       2.642   4.226  18.415  0.00  0.00    +0.000 NA
ENDROOT
BRANCH   1   6
ATOM      6  C   UNL     1       5.034   3.859  18.234  0.00  0.00    +0.000 C 
BRANCH   6  10
ATOM      7  C   UNL     1       6.983   4.798  14.501  0.00  0.00    +0.000 A 
ATOM      8  C   UNL     1       7.478   5.327  15.698  0.00  0.00    +0.000 A 
ATOM      9  C   UNL     1       6.830   5.035  16.902  0.00  0.00    +0.000 A 
ATOM     10  C   UNL     1       5.687   4.218  16.921  0.00  0.00    +0.000 A 
ATOM     11  C   UNL     1       5.202   3.696  15.710  0.00  0.00    +0.000 A 
ATOM     12  C   UNL     1       5.845   3.983  14.502  0.00  0.00    +0.000 A 
BRANCH   7  14
ATOM     13  O   UNL     1       7.261   4.529  12.212  0.00  0.00    +0.000 OA
ATOM     14  N   UNL     1       7.670   5.095  13.238  0.00  0.00    +0.000 N 
ATOM     15  O   UNL     1       8.613   5.899  13.268  0.00  0.00    +0.000 OA
ENDBRANCH   7  14
ENDBRANCH   6  10
ENDBRANCH   1   6
BRANCH   3  16
ATOM     16  C   UNL     1       1.941   7.159  20.375  0.00  0.00    +0.000 C 
BRANCH  16  17
ATOM     17  N   UNL     1       1.639   8.320  19.559  0.00  0.00    +0.000 N 
ATOM     18  C   UNL     1       2.091   8.515  18.273  0.00  0.00    +0.000 A 
ATOM     19  C   UNL     1       1.685   9.768  17.865  0.00  0.00    +0.000 A 
ATOM     20  C   UNL     1       0.907  10.323  18.913  0.00  0.00    +0.000 A 
ATOM     21  C   UNL     1       0.222  11.516  19.130  0.00  0.00    +0.000 A 
ATOM     22  N   UNL     1      -0.480  11.688  20.271  0.00  0.00    +0.000 NA
ATOM     23  C   UNL     1      -0.468  10.681  21.169  0.00  0.00    +0.000 A 
ATOM     24  N   UNL     1       0.185   9.504  21.097  0.00  0.00    +0.000 NA
ATOM     25  C   UNL     1       0.859   9.385  19.938  0.00  0.00    +0.000 A 
ENDBRANCH  16  17
ENDBRANCH   3  16
TORSDOF 5
ENDMDL
MODEL 5
REMARK VINA RESULT:      -7.3      4.916      9.230
REMARK  Name = 
REMARK  5 active torsions:
REMARK  status: ('A' for Active; 'I' for Inactive)
REMARK    1  A    between atoms: N_2  and  C_4
REMARK    2  A    between atoms: C_7  and  C_8
REMARK    3  A    between atoms: C_8  and  N_9
REMARK    4  A    between atoms: C_11  and  C_12
REMARK    5  A    between atoms: C_12  and  N_13
REMARK                            x       y       z     vdW  Elec       q    Type
REMARK                         _______ _______ _______ _____ _____    ______ ____
ROOT
ATOM      1  N   UNL     1       3.727   4.556  18.080  0.00  0.00    +0.000 N 
ATOM      2  C   UNL     1       3.903   5.630  18.905  0.00  0.00    +0.000 A 
ATOM      3  C   UNL     1       2.622   6.061  19.179  0.00  0.00    +0.000 A 
ATOM      4  N   UNL     1       1.734   5.271  18.490  0.00  0.00    +0.000 NA
ATOM      5  N   UNL     1       2.421   4.355  17.820  0.00  0.00    +0.000 NA
ENDROOT
BRANCH   1   6
ATOM      6  C   UNL     1       4.708   3.551  17.712  0.00  0.00    +0.000 C 
BRANCH   6  10
ATOM      7  C   UNL     1       7.023   4.768  14.280  0.00  0.00    +0.000 A 
ATOM      8  C   UNL     1       5.777   4.155  14.099  0.00  0.00    +0.000 A 
ATOM      9  C   UNL     1       5.042   3.746  15.215  0.00  0.00    +0.000 A 
ATOM     10  C   UNL     1       5.541   3.940  16.514  0.00  0.00    +0.000 A 
ATOM     11  C   UNL     1       6.793   4.555  16.678  0.00  0.00    +0.000 A 
ATOM     12  C   UNL     1       7.535   4.969  15.568  0.00  0.00    +0.000 A 
BRANCH   7  14
ATOM     13  O   UNL     1       8.734   5.992  13.299  0.00  0.00    +0.000 OA
ATOM     14  N   UNL     1       7.791   5.208  13.109  0.00  0.00    +0.000 N 
ATOM     15  O   UNL     1       7.458   4.766  11.999  0.00  0.00    +0.000 OA
ENDBRANCH   7  14
ENDBRANCH   6  10
ENDBRANCH   1   6
BRANCH   3  16
ATOM     16  C   UNL     1       2.147   7.131  20.091  0.00  0.00    +0.000 C 
BRANCH  16  17
ATOM     17  N   UNL     1       1.835   8.337  19.347  0.00  0.00    +0.000 N 
ATOM     18  C   UNL     1       2.330   8.639  18.098  0.00  0.00    +0.000 A 
ATOM     19  C   UNL     1       1.893   9.903  17.762  0.00  0.00    +0.000 A 
ATOM     20  C   UNL     1       1.054  10.354  18.813  0.00  0.00    +0.000 A 
ATOM     21  C   UNL     1       0.317  11.504  19.084  0.00  0.00    +0.000 A 
ATOM     22  N   UNL     1      -0.436  11.569  20.204  0.00  0.00    +0.000 NA
ATOM     23  C   UNL     1      -0.422  10.502  21.028  0.00  0.00    +0.000 A 
ATOM     24  N   UNL     1       0.277   9.356  20.902  0.00  0.00    +0.000 NA
ATOM     25  C   UNL     1       1.001   9.344  19.766  0.00  0.00    +0.000 A 
ENDBRANCH  16  17
ENDBRANCH   3  16
TORSDOF 5
ENDMDL
MODEL 6
REMARK VINA RESULT:      -7.3      1.167      1.464
REMARK  Name = 
REMARK  5 active torsions:
REMARK  status: ('A' for Active; 'I' for Inactive)
REMARK    1  A    between atoms: N_2  and  C_4
REMARK    2  A    between atoms: C_7  and  C_8
REMARK    3  A    between atoms: C_8  and  N_9
REMARK    4  A    between atoms: C_11  and  C_12
REMARK    5  A    between atoms: C_12  and  N_13
REMARK                            x       y       z     vdW  Elec       q    Type
REMARK                         _______ _______ _______ _____ _____    ______ ____
ROOT
ATOM      1  N   UNL     1       1.489   9.102  19.432  0.00  0.00    +0.000 N 
ATOM      2  C   UNL     1       2.057   7.900  19.122  0.00  0.00    +0.000 A 
ATOM      3  C   UNL     1       1.799   7.110  20.223  0.00  0.00    +0.000 A 
ATOM      4  N   UNL     1       1.131   7.861  21.158  0.00  0.00    +0.000 NA
ATOM      5  N   UNL     1       0.948   9.078  20.665  0.00  0.00    +0.000 NA
ENDROOT
BRANCH   1   6
ATOM      6  C   UNL     1       1.210  10.209  18.534  0.00  0.00    +0.000 C 
BRANCH   6  10
ATOM      7  C   UNL     1      -2.960  11.266  18.194  0.00  0.00    +0.000 A 
ATOM      8  C   UNL     1      -2.114  12.021  19.015  0.00  0.00    +0.000 A 
ATOM      9  C   UNL     1      -0.768  11.660  19.136  0.00  0.00    +0.000 A 
ATOM     10  C   UNL     1      -0.259  10.549  18.444  0.00  0.00    +0.000 A 
ATOM     11  C   UNL     1      -1.121   9.801  17.625  0.00  0.00    +0.000 A 
ATOM     12  C   UNL     1      -2.468  10.155  17.498  0.00  0.00    +0.000 A 
BRANCH   7  14
ATOM     13  O   UNL     1      -4.818  11.805  16.911  0.00  0.00    +0.000 OA
ATOM     14  N   UNL     1      -4.370  11.650  18.058  0.00  0.00    +0.000 N 
ATOM     15  O   UNL     1      -5.033  11.792  19.096  0.00  0.00    +0.000 OA
ENDBRANCH   7  14
ENDBRANCH   6  10
ENDBRANCH   1   6
BRANCH   3  16
ATOM     16  C   UNL     1       2.080   5.671  20.454  0.00  0.00    +0.000 C 
BRANCH  16  17
ATOM     17  N   UNL     1       2.483   5.022  19.220  0.00  0.00    +0.000 N 
ATOM     18  C   UNL     1       1.620   4.419  18.333  0.00  0.00    +0.000 A 
ATOM     19  C   UNL     1       2.374   3.830  17.340  0.00  0.00    +0.000 A 
ATOM     20  C   UNL     1       3.733   4.143  17.599  0.00  0.00    +0.000 A 
ATOM     21  C   UNL     1       4.958   3.868  16.995  0.00  0.00    +0.000 A 
ATOM     22  N   UNL     1       6.091   4.393  17.510  0.00  0.00    +0.000 NA
ATOM     23  C   UNL     1       5.979   5.159  18.614  0.00  0.00    +0.000 A 
ATOM     24  N   UNL     1       4.866   5.463  19.312  0.00  0.00    +0.000 NA
ATOM     25  C   UNL     1       3.769   4.921  18.749  0.00  0.00    +0.000 A 
ENDBRANCH  16  17
ENDBRANCH   3  16
TORSDOF 5
ENDMDL
MODEL 7
REMARK VINA RESULT:      -7.3      1.616      2.873
REMARK  Name = 
REMARK  5 active torsions:
REMARK  status: ('A' for Active; 'I' for Inactive)
REMARK    1  A    between atoms: N_2  and  C_4
REMARK    2  A    between atoms: C_7  and  C_8
REMARK    3  A    between atoms: C_8  and  N_9
REMARK    4  A    between atoms: C_11  and  C_12
REMARK    5  A    between atoms: C_12  and  N_13
REMARK                            x       y       z     vdW  Elec       q    Type
REMARK                         _______ _______ _______ _____ _____    ______ ____
ROOT
ATOM      1  N   UNL     1       1.626   9.010  18.782  0.00  0.00    +0.000 N 
ATOM      2  C   UNL     1       2.091   7.857  19.346  0.00  0.00    +0.000 A 
ATOM      3  C   UNL     1       2.973   7.356  18.411  0.00  0.00    +0.000 A 
ATOM      4  N   UNL     1       2.979   8.189  17.319  0.00  0.00    +0.000 NA
ATOM      5  N   UNL     1       2.150   9.196  17.556  0.00  0.00    +0.000 NA
ENDROOT
BRANCH   1   6
ATOM      6  C   UNL     1       0.895  10.083  19.434  0.00  0.00    +0.000 C 
BRANCH   6  10
ATOM      7  C   UNL     1      -2.819  11.061  17.468  0.00  0.00    +0.000 A 
ATOM      8  C   UNL     1      -2.101   9.925  17.077  0.00  0.00    +0.000 A 
ATOM      9  C   UNL     1      -0.889   9.625  17.705  0.00  0.00    +0.000 A 
ATOM     10  C   UNL     1      -0.384  10.453  18.721  0.00  0.00    +0.000 A 
ATOM     11  C   UNL     1      -1.115  11.590  19.101  0.00  0.00    +0.000 A 
ATOM     12  C   UNL     1      -2.330  11.898  18.479  0.00  0.00    +0.000 A 
BRANCH   7  14
ATOM     13  O   UNL     1      -4.232  11.047  15.626  0.00  0.00    +0.000 OA
ATOM     14  N   UNL     1      -4.098  11.371  16.817  0.00  0.00    +0.000 N 
ATOM     15  O   UNL     1      -4.971  11.932  17.495  0.00  0.00    +0.000 OA
ENDBRANCH   7  14
ENDBRANCH   6  10
ENDBRANCH   1   6
BRANCH   3  16
ATOM     16  C   UNL     1       3.868   6.174  18.478  0.00  0.00    +0.000 C 
BRANCH  16  17
ATOM     17  N   UNL     1       3.100   4.945  18.416  0.00  0.00    +0.000 N 
ATOM     18  C   UNL     1       2.798   4.266  17.257  0.00  0.00    +0.000 A 
ATOM     19  C   UNL     1       1.976   3.209  17.586  0.00  0.00    +0.000 A 
ATOM     20  C   UNL     1       1.829   3.210  18.996  0.00  0.00    +0.000 A 
ATOM     21  C   UNL     1       1.155   2.432  19.934  0.00  0.00    +0.000 A 
ATOM     22  N   UNL     1       1.286   2.706  21.250  0.00  0.00    +0.000 NA
ATOM     23  C   UNL     1       2.067   3.750  21.596  0.00  0.00    +0.000 A 
ATOM     24  N   UNL     1       2.733   4.599  20.789  0.00  0.00    +0.000 NA
ATOM     25  C   UNL     1       2.572   4.274  19.492  0.00  0.00    +0.000 A 
ENDBRANCH  16  17
ENDBRANCH   3  16
TORSDOF 5
ENDMDL
MODEL 8
REMARK VINA RESULT:      -7.2      3.947      8.834
REMARK  Name = 
REMARK  5 active torsions:
REMARK  status: ('A' for Active; 'I' for Inactive)
REMARK    1  A    between atoms: N_2  and  C_4
REMARK    2  A    between atoms: C_7  and  C_8
REMARK    3  A    between atoms: C_8  and  N_9
REMARK    4  A    between atoms: C_11  and  C_12
REMARK    5  A    between atoms: C_12  and  N_13
REMARK                            x       y       z     vdW  Elec       q    Type
REMARK                         _______ _______ _______ _____ _____    ______ ____
ROOT
ATOM      1  N   UNL     1       1.146   8.849  19.753  0.00  0.00    +0.000 N 
ATOM      2  C   UNL     1       0.916   9.673  18.689  0.00  0.00    +0.000 A 
ATOM      3  C   UNL     1      -0.106  10.496  19.114  0.00  0.00    +0.000 A 
ATOM      4  N   UNL     1      -0.478  10.120  20.382  0.00  0.00    +0.000 NA
ATOM      5  N   UNL     1       0.294   9.111  20.762  0.00  0.00    +0.000 NA
ENDROOT
BRANCH   1   6
ATOM      6  C   UNL     1       2.291   7.981  19.971  0.00  0.00    +0.000 C 
BRANCH   6  10
ATOM      7  C   UNL     1       1.652   3.842  18.935  0.00  0.00    +0.000 A 
ATOM      8  C   UNL     1       2.034   4.757  17.947  0.00  0.00    +0.000 A 
ATOM      9  C   UNL     1       2.220   6.101  18.286  0.00  0.00    +0.000 A 
ATOM     10  C   UNL     1       2.025   6.540  19.606  0.00  0.00    +0.000 A 
ATOM     11  C   UNL     1       1.642   5.609  20.585  0.00  0.00    +0.000 A 
ATOM     12  C   UNL     1       1.454   4.263  20.255  0.00  0.00    +0.000 A 
BRANCH   7  14
ATOM     13  O   UNL     1       2.485   1.732  18.440  0.00  0.00    +0.000 OA
ATOM     14  N   UNL     1       1.468   2.429  18.582  0.00  0.00    +0.000 N 
ATOM     15  O   UNL     1       0.307   2.012  18.452  0.00  0.00    +0.000 OA
ENDBRANCH   7  14
ENDBRANCH   6  10
ENDBRANCH   1   6
BRANCH   3  16
ATOM     16  C   UNL     1      -0.737  11.660  18.444  0.00  0.00    +0.000 C 
BRANCH  16  17
ATOM     17  N   UNL     1      -2.011  11.286  17.858  0.00  0.00    +0.000 N 
ATOM     18  C   UNL     1      -2.158  10.547  16.707  0.00  0.00    +0.000 A 
ATOM     19  C   UNL     1      -3.504  10.481  16.413  0.00  0.00    +0.000 A 
ATOM     20  C   UNL     1      -4.198  11.148  17.455  0.00  0.00    +0.000 A 
ATOM     21  C   UNL     1      -5.529  11.427  17.755  0.00  0.00    +0.000 A 
ATOM     22  N   UNL     1      -5.837  12.064  18.905  0.00  0.00    +0.000 NA
ATOM     23  C   UNL     1      -4.818  12.421  19.714  0.00  0.00    +0.000 A 
ATOM     24  N   UNL     1      -3.496  12.249  19.518  0.00  0.00    +0.000 NA
ATOM     25  C   UNL     1      -3.249  11.602  18.363  0.00  0.00    +0.000 A 
ENDBRANCH  16  17
ENDBRANCH   3  16
TORSDOF 5
ENDMDL
MODEL 9
REMARK VINA RESULT:      -7.2      4.473      9.029
REMARK  Name = 
REMARK  5 active torsions:
REMARK  status: ('A' for Active; 'I' for Inactive)
REMARK    1  A    between atoms: N_2  and  C_4
REMARK    2  A    between atoms: C_7  and  C_8
REMARK    3  A    between atoms: C_8  and  N_9
REMARK    4  A    between atoms: C_11  and  C_12
REMARK    5  A    between atoms: C_12  and  N_13
REMARK                            x       y       z     vdW  Elec       q    Type
REMARK                         _______ _______ _______ _____ _____    ______ ____
ROOT
ATOM      1  N   UNL     1       2.598   6.855  19.151  0.00  0.00    +0.000 N 
ATOM      2  C   UNL     1       2.466   7.727  18.109  0.00  0.00    +0.000 A 
ATOM      3  C   UNL     1       1.795   8.803  18.653  0.00  0.00    +0.000 A 
ATOM      4  N   UNL     1       1.515   8.529  19.969  0.00  0.00    +0.000 NA
ATOM      5  N   UNL     1       2.010   7.334  20.262  0.00  0.00    +0.000 NA
ENDROOT
BRANCH   1   6
ATOM      6  C   UNL     1       3.464   5.690  19.227  0.00  0.00    +0.000 C 
BRANCH   6  10
ATOM      7  C   UNL     1       5.908   5.030  15.733  0.00  0.00    +0.000 A 
ATOM      8  C   UNL     1       6.130   6.154  16.538  0.00  0.00    +0.000 A 
ATOM      9  C   UNL     1       5.322   6.372  17.657  0.00  0.00    +0.000 A 
ATOM     10  C   UNL     1       4.288   5.477  17.980  0.00  0.00    +0.000 A 
ATOM     11  C   UNL     1       4.077   4.355  17.162  0.00  0.00    +0.000 A 
ATOM     12  C   UNL     1       4.882   4.129  16.041  0.00  0.00    +0.000 A 
BRANCH   7  14
ATOM     13  O   UNL     1       7.827   5.431  14.490  0.00  0.00    +0.000 OA
ATOM     14  N   UNL     1       6.763   4.795  14.564  0.00  0.00    +0.000 N 
ATOM     15  O   UNL     1       6.378   3.971  13.721  0.00  0.00    +0.000 OA
ENDBRANCH   7  14
ENDBRANCH   6  10
ENDBRANCH   1   6
BRANCH   3  16
ATOM     16  C   UNL     1       1.436  10.110  18.049  0.00  0.00    +0.000 C 
BRANCH  16  17
ATOM     17  N   UNL     1       0.049  10.438  18.322  0.00  0.00    +0.000 N 
ATOM     18  C   UNL     1      -1.030   9.885  17.672  0.00  0.00    +0.000 A 
ATOM     19  C   UNL     1      -2.169  10.512  18.129  0.00  0.00    +0.000 A 
ATOM     20  C   UNL     1      -1.772  11.430  19.135  0.00  0.00    +0.000 A 
ATOM     21  C   UNL     1      -2.413  12.343  19.969  0.00  0.00    +0.000 A 
ATOM     22  N   UNL     1      -1.695  13.039  20.877  0.00  0.00    +0.000 NA
ATOM     23  C   UNL     1      -0.365  12.824  20.919  0.00  0.00    +0.000 A 
ATOM     24  N   UNL     1       0.375  12.007  20.143  0.00  0.00    +0.000 NA
ATOM     25  C   UNL     1      -0.392  11.334  19.265  0.00  0.00    +0.000 A 
ENDBRANCH  16  17
ENDBRANCH   3  16
TORSDOF 5
ENDMDL
