MODEL 1
REMARK VINA RESULT:      -6.5      0.000      0.000
REMARK  Name = 
REMARK  17 active torsions:
REMARK  status: ('A' for Active; 'I' for Inactive)
REMARK    1  A    between atoms: C_1  and  C_2
REMARK    2  A    between atoms: C_2  and  C_3
REMARK    3  A    between atoms: C_3  and  C_4
REMARK    4  A    between atoms: C_4  and  C_5
REMARK    5  A    between atoms: C_5  and  C_6
REMARK    6  A    between atoms: C_6  and  C_7
REMARK    7  A    between atoms: C_7  and  C_8
REMARK    8  A    between atoms: C_8  and  C_9
REMARK    9  A    between atoms: C_9  and  C_10
REMARK   10  A    between atoms: C_10  and  C_11
REMARK   11  A    between atoms: C_11  and  C_12
REMARK   12  A    between atoms: C_12  and  C_13
REMARK   13  A    between atoms: C_13  and  C_14
REMARK   14  A    between atoms: C_14  and  N_15
REMARK   15  A    between atoms: N_15  and  C_16
REMARK   16  A    between atoms: C_22  and  O_23
REMARK   17  A    between atoms: O_23  and  C_24
REMARK                            x       y       z     vdW  Elec       q    Type
REMARK                         _______ _______ _______ _____ _____    ______ ____
ROOT
ATOM      1  C   UNL     1       1.654   3.755  21.285  0.00  0.00    +0.000 C 
ENDROOT
BRANCH   1   2
ATOM      2  N   UNL     1       2.473   4.969  21.247  0.00  0.00    +0.000 NA
ATOM      3  H   UNL     1       3.443   4.706  21.065  0.00  0.00    +0.000 HD
BRANCH   2   4
ATOM      4  C   UNL     1       2.020   5.930  20.225  0.00  0.00    +0.000 C 
ATOM      5  C   UNL     1       3.131   6.213  19.207  0.00  0.00    +0.000 C 
ATOM      6  C   UNL     1       2.669   7.217  18.126  0.00  0.00    +0.000 C 
ATOM      7  C   UNL     1       1.973   8.440  18.680  0.00  0.00    +0.000 A 
ATOM      8  C   UNL     1       1.830   9.623  17.940  0.00  0.00    +0.000 A 
ATOM      9  C   UNL     1       1.212  10.750  18.515  0.00  0.00    +0.000 A 
ATOM     10  C   UNL     1       0.722  10.730  19.818  0.00  0.00    +0.000 A 
ATOM     11  C   UNL     1       0.835   9.552  20.534  0.00  0.00    +0.000 A 
ATOM     12  C   UNL     1       1.436   8.427  19.962  0.00  0.00    +0.000 A 
ATOM     13  C   UNL     1       1.640   7.255  20.893  0.00  0.00    +0.000 C 
BRANCH  10  14
ATOM     14  O   UNL     1       0.167  11.875  20.322  0.00  0.00    +0.000 OA
ATOM     15  C   UNL     1      -1.265  11.953  20.295  0.00  0.00    +0.000 C 
ENDBRANCH  10  14
ENDBRANCH   2   4
ENDBRANCH   1   2
BRANCH   1  16
ATOM     16  C   UNL     1       2.166   2.674  20.347  0.00  0.00    +0.000 C 
BRANCH  16  17
ATOM     17  C   UNL     1       1.270   2.644  19.110  0.00  0.00    +0.000 C 
BRANCH  17  18
ATOM     18  C   UNL     1       2.127   2.584  17.866  0.00  0.00    +0.000 C 
BRANCH  18  19
ATOM     19  C   UNL     1       3.583   2.821  18.217  0.00  0.00    +0.000 C 
BRANCH  19  20
ATOM     20  C   UNL     1       4.414   2.826  16.949  0.00  0.00    +0.000 C 
BRANCH  20  21
ATOM     21  C   UNL     1       4.631   4.251  16.479  0.00  0.00    +0.000 C 
BRANCH  21  22
ATOM     22  C   UNL     1       6.091   4.628  16.630  0.00  0.00    +0.000 C 
BRANCH  22  23
ATOM     23  C   UNL     1       6.693   4.914  15.267  0.00  0.00    +0.000 C 
BRANCH  23  24
ATOM     24  C   UNL     1       5.683   4.595  14.179  0.00  0.00    +0.000 C 
BRANCH  24  25
ATOM     25  C   UNL     1       6.289   3.626  13.179  0.00  0.00    +0.000 C 
BRANCH  25  26
ATOM     26  C   UNL     1       5.255   3.243  12.135  0.00  0.00    +0.000 C 
BRANCH  26  28
ATOM     27  C   UNL     1       7.235   1.992  11.285  0.00  0.00    +0.000 C 
ATOM     28  C   UNL     1       5.721   2.028  11.346  0.00  0.00    +0.000 C 
ENDBRANCH  26  28
ENDBRANCH  25  26
ENDBRANCH  24  25
ENDBRANCH  23  24
ENDBRANCH  22  23
ENDBRANCH  21  22
ENDBRANCH  20  21
ENDBRANCH  19  20
ENDBRANCH  18  19
ENDBRANCH  17  18
ENDBRANCH  16  17
ENDBRANCH   1  16
TORSDOF 15
ENDMDL
MODEL 2
REMARK VINA RESULT:      -6.5      6.419      9.774
REMARK  Name = 
REMARK  17 active torsions:
REMARK  status: ('A' for Active; 'I' for Inactive)
REMARK    1  A    between atoms: C_1  and  C_2
REMARK    2  A    between atoms: C_2  and  C_3
REMARK    3  A    between atoms: C_3  and  C_4
REMARK    4  A    between atoms: C_4  and  C_5
REMARK    5  A    between atoms: C_5  and  C_6
REMARK    6  A    between atoms: C_6  and  C_7
REMARK    7  A    between atoms: C_7  and  C_8
REMARK    8  A    between atoms: C_8  and  C_9
REMARK    9  A    between atoms: C_9  and  C_10
REMARK   10  A    between atoms: C_10  and  C_11
REMARK   11  A    between atoms: C_11  and  C_12
REMARK   12  A    between atoms: C_12  and  C_13
REMARK   13  A    between atoms: C_13  and  C_14
REMARK   14  A    between atoms: C_14  and  N_15
REMARK   15  A    between atoms: N_15  and  C_16
REMARK   16  A    between atoms: C_22  and  O_23
REMARK   17  A    between atoms: O_23  and  C_24
REMARK                            x       y       z     vdW  Elec       q    Type
REMARK                         _______ _______ _______ _____ _____    ______ ____
ROOT
ATOM      1  C   UNL     1       7.901   7.677  17.958  0.00  0.00    +0.000 C 
ENDROOT
BRANCH   1   2
ATOM      2  N   UNL     1       7.648   6.943  16.716  0.00  0.00    +0.000 NA
ATOM      3  H   UNL     1       8.540   6.632  16.330  0.00  0.00    +0.000 HD
BRANCH   2   4
ATOM      4  C   UNL     1       6.761   5.782  16.911  0.00  0.00    +0.000 C 
ATOM      5  C   UNL     1       5.882   5.549  15.677  0.00  0.00    +0.000 C 
ATOM      6  C   UNL     1       4.948   4.331  15.865  0.00  0.00    +0.000 C 
ATOM      7  C   UNL     1       4.220   4.315  17.190  0.00  0.00    +0.000 A 
ATOM      8  C   UNL     1       3.066   3.546  17.404  0.00  0.00    +0.000 A 
ATOM      9  C   UNL     1       2.397   3.597  18.642  0.00  0.00    +0.000 A 
ATOM     10  C   UNL     1       2.853   4.397  19.686  0.00  0.00    +0.000 A 
ATOM     11  C   UNL     1       4.010   5.128  19.484  0.00  0.00    +0.000 A 
ATOM     12  C   UNL     1       4.684   5.070  18.261  0.00  0.00    +0.000 A 
ATOM     13  C   UNL     1       5.840   6.030  18.109  0.00  0.00    +0.000 C 
BRANCH  10  14
ATOM     14  O   UNL     1       2.130   4.424  20.849  0.00  0.00    +0.000 OA
ATOM     15  C   UNL     1       1.716   3.153  21.369  0.00  0.00    +0.000 C 
ENDBRANCH  10  14
ENDBRANCH   2   4
ENDBRANCH   1   2
BRANCH   1  16
ATOM     16  C   UNL     1       8.027   9.176  17.738  0.00  0.00    +0.000 C 
BRANCH  16  17
ATOM     17  C   UNL     1       8.929   9.749  18.829  0.00  0.00    +0.000 C 
BRANCH  17  18
ATOM     18  C   UNL     1       9.553  11.039  18.343  0.00  0.00    +0.000 C 
BRANCH  18  19
ATOM     19  C   UNL     1      10.982  11.152  18.837  0.00  0.00    +0.000 C 
BRANCH  19  20
ATOM     20  C   UNL     1      11.508  12.543  18.544  0.00  0.00    +0.000 C 
BRANCH  20  21
ATOM     21  C   UNL     1      10.834  13.099  17.305  0.00  0.00    +0.000 C 
BRANCH  21  22
ATOM     22  C   UNL     1      10.584  14.585  17.474  0.00  0.00    +0.000 C 
BRANCH  22  23
ATOM     23  C   UNL     1      10.554  14.938  18.950  0.00  0.00    +0.000 C 
BRANCH  23  24
ATOM     24  C   UNL     1       9.145  15.331  19.357  0.00  0.00    +0.000 C 
BRANCH  24  25
ATOM     25  C   UNL     1       8.477  14.178  20.085  0.00  0.00    +0.000 C 
BRANCH  25  26
ATOM     26  C   UNL     1       8.136  14.590  21.507  0.00  0.00    +0.000 C 
BRANCH  26  28
ATOM     27  C   UNL     1       9.493  12.526  21.830  0.00  0.00    +0.000 C 
ATOM     28  C   UNL     1       8.929  13.759  22.505  0.00  0.00    +0.000 C 
ENDBRANCH  26  28
ENDBRANCH  25  26
ENDBRANCH  24  25
ENDBRANCH  23  24
ENDBRANCH  22  23
ENDBRANCH  21  22
ENDBRANCH  20  21
ENDBRANCH  19  20
ENDBRANCH  18  19
ENDBRANCH  17  18
ENDBRANCH  16  17
ENDBRANCH   1  16
TORSDOF 15
ENDMDL
MODEL 3
REMARK VINA RESULT:      -6.3      1.685      3.246
REMARK  Name = 
REMARK  17 active torsions:
REMARK  status: ('A' for Active; 'I' for Inactive)
REMARK    1  A    between atoms: C_1  and  C_2
REMARK    2  A    between atoms: C_2  and  C_3
REMARK    3  A    between atoms: C_3  and  C_4
REMARK    4  A    between atoms: C_4  and  C_5
REMARK    5  A    between atoms: C_5  and  C_6
REMARK    6  A    between atoms: C_6  and  C_7
REMARK    7  A    between atoms: C_7  and  C_8
REMARK    8  A    between atoms: C_8  and  C_9
REMARK    9  A    between atoms: C_9  and  C_10
REMARK   10  A    between atoms: C_10  and  C_11
REMARK   11  A    between atoms: C_11  and  C_12
REMARK   12  A    between atoms: C_12  and  C_13
REMARK   13  A    between atoms: C_13  and  C_14
REMARK   14  A    between atoms: C_14  and  N_15
REMARK   15  A    between atoms: N_15  and  C_16
REMARK   16  A    between atoms: C_22  and  O_23
REMARK   17  A    between atoms: O_23  and  C_24
REMARK                            x       y       z     vdW  Elec       q    Type
REMARK                         _______ _______ _______ _____ _____    ______ ____
ROOT
ATOM      1  C   UNL     1       1.352   5.699  20.538  0.00  0.00    +0.000 C 
ENDROOT
BRANCH   1   2
ATOM      2  N   UNL     1       2.206   6.865  20.299  0.00  0.00    +0.000 NA
ATOM      3  H   UNL     1       2.368   6.954  19.296  0.00  0.00    +0.000 HD
BRANCH   2   4
ATOM      4  C   UNL     1       1.623   8.114  20.820  0.00  0.00    +0.000 C 
ATOM      5  C   UNL     1       0.282   7.848  21.514  0.00  0.00    +0.000 C 
ATOM      6  C   UNL     1      -0.341   9.149  22.069  0.00  0.00    +0.000 C 
ATOM      7  C   UNL     1      -0.340  10.298  21.086  0.00  0.00    +0.000 A 
ATOM      8  C   UNL     1      -1.180  11.412  21.231  0.00  0.00    +0.000 A 
ATOM      9  C   UNL     1      -1.174  12.438  20.267  0.00  0.00    +0.000 A 
ATOM     10  C   UNL     1      -0.341  12.387  19.152  0.00  0.00    +0.000 A 
ATOM     11  C   UNL     1       0.510  11.304  19.028  0.00  0.00    +0.000 A 
ATOM     12  C   UNL     1       0.516  10.290  19.991  0.00  0.00    +0.000 A 
ATOM     13  C   UNL     1       1.373   9.090  19.666  0.00  0.00    +0.000 C 
BRANCH  10  14
ATOM     14  O   UNL     1      -0.417  13.403  18.237  0.00  0.00    +0.000 OA
ATOM     15  C   UNL     1      -0.135  14.722  18.727  0.00  0.00    +0.000 C 
ENDBRANCH  10  14
ENDBRANCH   2   4
ENDBRANCH   1   2
BRANCH   1  16
ATOM     16  C   UNL     1       2.103   4.544  21.180  0.00  0.00    +0.000 C 
BRANCH  16  17
ATOM     17  C   UNL     1       1.443   3.238  20.742  0.00  0.00    +0.000 C 
BRANCH  17  18
ATOM     18  C   UNL     1       1.886   2.894  19.337  0.00  0.00    +0.000 C 
BRANCH  18  19
ATOM     19  C   UNL     1       3.305   2.358  19.348  0.00  0.00    +0.000 C 
BRANCH  19  20
ATOM     20  C   UNL     1       4.195   3.270  18.527  0.00  0.00    +0.000 C 
BRANCH  20  21
ATOM     21  C   UNL     1       3.373   3.973  17.464  0.00  0.00    +0.000 C 
BRANCH  21  22
ATOM     22  C   UNL     1       3.707   5.451  17.447  0.00  0.00    +0.000 C 
BRANCH  22  23
ATOM     23  C   UNL     1       4.894   5.723  18.352  0.00  0.00    +0.000 C 
BRANCH  23  24
ATOM     24  C   UNL     1       6.012   6.371  17.556  0.00  0.00    +0.000 C 
BRANCH  24  25
ATOM     25  C   UNL     1       7.252   5.495  17.598  0.00  0.00    +0.000 C 
BRANCH  25  26
ATOM     26  C   UNL     1       7.162   4.416  16.533  0.00  0.00    +0.000 C 
BRANCH  26  28
ATOM     27  C   UNL     1       6.080   3.913  14.347  0.00  0.00    +0.000 C 
ATOM     28  C   UNL     1       6.661   5.003  15.223  0.00  0.00    +0.000 C 
ENDBRANCH  26  28
ENDBRANCH  25  26
ENDBRANCH  24  25
ENDBRANCH  23  24
ENDBRANCH  22  23
ENDBRANCH  21  22
ENDBRANCH  20  21
ENDBRANCH  19  20
ENDBRANCH  18  19
ENDBRANCH  17  18
ENDBRANCH  16  17
ENDBRANCH   1  16
TORSDOF 15
ENDMDL
MODEL 4
REMARK VINA RESULT:      -6.3      6.510      8.476
REMARK  Name = 
REMARK  17 active torsions:
REMARK  status: ('A' for Active; 'I' for Inactive)
REMARK    1  A    between atoms: C_1  and  C_2
REMARK    2  A    between atoms: C_2  and  C_3
REMARK    3  A    between atoms: C_3  and  C_4
REMARK    4  A    between atoms: C_4  and  C_5
REMARK    5  A    between atoms: C_5  and  C_6
REMARK    6  A    between atoms: C_6  and  C_7
REMARK    7  A    between atoms: C_7  and  C_8
REMARK    8  A    between atoms: C_8  and  C_9
REMARK    9  A    between atoms: C_9  and  C_10
REMARK   10  A    between atoms: C_10  and  C_11
REMARK   11  A    between atoms: C_11  and  C_12
REMARK   12  A    between atoms: C_12  and  C_13
REMARK   13  A    between atoms: C_13  and  C_14
REMARK   14  A    between atoms: C_14  and  N_15
REMARK   15  A    between atoms: N_15  and  C_16
REMARK   16  A    between atoms: C_22  and  O_23
REMARK   17  A    between atoms: O_23  and  C_24
REMARK                            x       y       z     vdW  Elec       q    Type
REMARK                         _______ _______ _______ _____ _____    ______ ____
ROOT
ATOM      1  C   UNL     1       8.169   8.180  18.195  0.00  0.00    +0.000 C 
ENDROOT
BRANCH   1   2
ATOM      2  N   UNL     1       7.974   9.553  17.723  0.00  0.00    +0.000 NA
ATOM      3  H   UNL     1       7.080   9.898  18.075  0.00  0.00    +0.000 HD
BRANCH   2   4
ATOM      4  C   UNL     1       9.057  10.459  18.145  0.00  0.00    +0.000 C 
ATOM      5  C   UNL     1       9.305  10.352  19.654  0.00  0.00    +0.000 C 
ATOM      6  C   UNL     1      10.441  11.295  20.113  0.00  0.00    +0.000 C 
ATOM      7  C   UNL     1      10.325  12.703  19.575  0.00  0.00    +0.000 A 
ATOM      8  C   UNL     1      10.998  13.787  20.158  0.00  0.00    +0.000 A 
ATOM      9  C   UNL     1      10.825  15.089  19.647  0.00  0.00    +0.000 A 
ATOM     10  C   UNL     1       9.995  15.342  18.559  0.00  0.00    +0.000 A 
ATOM     11  C   UNL     1       9.359  14.267  17.965  0.00  0.00    +0.000 A 
ATOM     12  C   UNL     1       9.539  12.972  18.461  0.00  0.00    +0.000 A 
ATOM     13  C   UNL     1       8.672  11.907  17.830  0.00  0.00    +0.000 C 
BRANCH  10  14
ATOM     14  O   UNL     1       9.846  16.637  18.141  0.00  0.00    +0.000 OA
ATOM     15  C   UNL     1      11.002  17.253  17.555  0.00  0.00    +0.000 C 
ENDBRANCH  10  14
ENDBRANCH   2   4
ENDBRANCH   1   2
BRANCH   1  16
ATOM     16  C   UNL     1       7.124   7.219  17.650  0.00  0.00    +0.000 C 
BRANCH  16  17
ATOM     17  C   UNL     1       7.265   5.887  18.384  0.00  0.00    +0.000 C 
BRANCH  17  18
ATOM     18  C   UNL     1       7.428   4.770  17.377  0.00  0.00    +0.000 C 
BRANCH  18  19
ATOM     19  C   UNL     1       7.136   5.275  15.978  0.00  0.00    +0.000 C 
BRANCH  19  20
ATOM     20  C   UNL     1       6.148   4.345  15.302  0.00  0.00    +0.000 C 
BRANCH  20  21
ATOM     21  C   UNL     1       5.437   3.503  16.343  0.00  0.00    +0.000 C 
BRANCH  21  22
ATOM     22  C   UNL     1       4.068   4.086  16.633  0.00  0.00    +0.000 C 
BRANCH  22  23
ATOM     23  C   UNL     1       3.345   3.223  17.650  0.00  0.00    +0.000 C 
BRANCH  23  24
ATOM     24  C   UNL     1       1.980   3.815  17.952  0.00  0.00    +0.000 C 
BRANCH  24  25
ATOM     25  C   UNL     1       1.100   2.773  18.619  0.00  0.00    +0.000 C 
BRANCH  25  26
ATOM     26  C   UNL     1       0.609   3.288  19.960  0.00  0.00    +0.000 C 
BRANCH  26  28
ATOM     27  C   UNL     1       2.316   2.847  21.721  0.00  0.00    +0.000 C 
ATOM     28  C   UNL     1       1.763   3.877  20.757  0.00  0.00    +0.000 C 
ENDBRANCH  26  28
ENDBRANCH  25  26
ENDBRANCH  24  25
ENDBRANCH  23  24
ENDBRANCH  22  23
ENDBRANCH  21  22
ENDBRANCH  20  21
ENDBRANCH  19  20
ENDBRANCH  18  19
ENDBRANCH  17  18
ENDBRANCH  16  17
ENDBRANCH   1  16
TORSDOF 15
ENDMDL
MODEL 5
REMARK VINA RESULT:      -6.1      1.820      3.202
REMARK  Name = 
REMARK  17 active torsions:
REMARK  status: ('A' for Active; 'I' for Inactive)
REMARK    1  A    between atoms: C_1  and  C_2
REMARK    2  A    between atoms: C_2  and  C_3
REMARK    3  A    between atoms: C_3  and  C_4
REMARK    4  A    between atoms: C_4  and  C_5
REMARK    5  A    between atoms: C_5  and  C_6
REMARK    6  A    between atoms: C_6  and  C_7
REMARK    7  A    between atoms: C_7  and  C_8
REMARK    8  A    between atoms: C_8  and  C_9
REMARK    9  A    between atoms: C_9  and  C_10
REMARK   10  A    between atoms: C_10  and  C_11
REMARK   11  A    between atoms: C_11  and  C_12
REMARK   12  A    between atoms: C_12  and  C_13
REMARK   13  A    between atoms: C_13  and  C_14
REMARK   14  A    between atoms: C_14  and  N_15
REMARK   15  A    between atoms: N_15  and  C_16
REMARK   16  A    between atoms: C_22  and  O_23
REMARK   17  A    between atoms: O_23  and  C_24
REMARK                            x       y       z     vdW  Elec       q    Type
REMARK                         _______ _______ _______ _____ _____    ______ ____
ROOT
ATOM      1  C   UNL     1       1.065   3.449  20.477  0.00  0.00    +0.000 C 
ENDROOT
BRANCH   1   2
ATOM      2  N   UNL     1       1.843   4.628  20.868  0.00  0.00    +0.000 NA
ATOM      3  H   UNL     1       2.834   4.427  20.732  0.00  0.00    +0.000 HD
BRANCH   2   4
ATOM      4  C   UNL     1       1.473   5.833  20.104  0.00  0.00    +0.000 C 
ATOM      5  C   UNL     1       2.542   6.171  19.059  0.00  0.00    +0.000 C 
ATOM      6  C   UNL     1       2.166   7.432  18.246  0.00  0.00    +0.000 C 
ATOM      7  C   UNL     1       1.702   8.593  19.096  0.00  0.00    +0.000 A 
ATOM      8  C   UNL     1       1.690   9.913  18.621  0.00  0.00    +0.000 A 
ATOM      9  C   UNL     1       1.289  10.968  19.463  0.00  0.00    +0.000 A 
ATOM     10  C   UNL     1       0.891  10.742  20.778  0.00  0.00    +0.000 A 
ATOM     11  C   UNL     1       0.872   9.436  21.233  0.00  0.00    +0.000 A 
ATOM     12  C   UNL     1       1.256   8.385  20.396  0.00  0.00    +0.000 A 
ATOM     13  C   UNL     1       1.343   7.028  21.053  0.00  0.00    +0.000 C 
BRANCH  10  14
ATOM     14  O   UNL     1       0.550  11.821  21.549  0.00  0.00    +0.000 OA
ATOM     15  C   UNL     1      -0.501  12.657  21.045  0.00  0.00    +0.000 C 
ENDBRANCH  10  14
ENDBRANCH   2   4
ENDBRANCH   1   2
BRANCH   1  16
ATOM     16  C   UNL     1       1.942   2.271  20.086  0.00  0.00    +0.000 C 
BRANCH  16  17
ATOM     17  C   UNL     1       3.404   2.680  20.260  0.00  0.00    +0.000 C 
BRANCH  17  18
ATOM     18  C   UNL     1       4.189   2.284  19.029  0.00  0.00    +0.000 C 
BRANCH  18  19
ATOM     19  C   UNL     1       3.264   2.146  17.836  0.00  0.00    +0.000 C 
BRANCH  19  20
ATOM     20  C   UNL     1       3.263   3.439  17.046  0.00  0.00    +0.000 C 
BRANCH  20  21
ATOM     21  C   UNL     1       4.671   3.995  16.965  0.00  0.00    +0.000 C 
BRANCH  21  22
ATOM     22  C   UNL     1       5.088   4.138  15.514  0.00  0.00    +0.000 C 
BRANCH  22  23
ATOM     23  C   UNL     1       5.771   5.477  15.303  0.00  0.00    +0.000 C 
BRANCH  23  24
ATOM     24  C   UNL     1       5.069   6.548  16.119  0.00  0.00    +0.000 C 
BRANCH  24  25
ATOM     25  C   UNL     1       5.790   6.746  17.441  0.00  0.00    +0.000 C 
BRANCH  25  26
ATOM     26  C   UNL     1       7.279   6.505  17.263  0.00  0.00    +0.000 C 
BRANCH  26  28
ATOM     27  C   UNL     1       7.992   8.817  17.856  0.00  0.00    +0.000 C 
ATOM     28  C   UNL     1       8.074   7.355  18.242  0.00  0.00    +0.000 C 
ENDBRANCH  26  28
ENDBRANCH  25  26
ENDBRANCH  24  25
ENDBRANCH  23  24
ENDBRANCH  22  23
ENDBRANCH  21  22
ENDBRANCH  20  21
ENDBRANCH  19  20
ENDBRANCH  18  19
ENDBRANCH  17  18
ENDBRANCH  16  17
ENDBRANCH   1  16
TORSDOF 15
ENDMDL
MODEL 6
REMARK VINA RESULT:      -6.1      3.045      5.437
REMARK  Name = 
REMARK  17 active torsions:
REMARK  status: ('A' for Active; 'I' for Inactive)
REMARK    1  A    between atoms: C_1  and  C_2
REMARK    2  A    between atoms: C_2  and  C_3
REMARK    3  A    between atoms: C_3  and  C_4
REMARK    4  A    between atoms: C_4  and  C_5
REMARK    5  A    between atoms: C_5  and  C_6
REMARK    6  A    between atoms: C_6  and  C_7
REMARK    7  A    between atoms: C_7  and  C_8
REMARK    8  A    between atoms: C_8  and  C_9
REMARK    9  A    between atoms: C_9  and  C_10
REMARK   10  A    between atoms: C_10  and  C_11
REMARK   11  A    between atoms: C_11  and  C_12
REMARK   12  A    between atoms: C_12  and  C_13
REMARK   13  A    between atoms: C_13  and  C_14
REMARK   14  A    between atoms: C_14  and  N_15
REMARK   15  A    between atoms: N_15  and  C_16
REMARK   16  A    between atoms: C_22  and  O_23
REMARK   17  A    between atoms: O_23  and  C_24
REMARK                            x       y       z     vdW  Elec       q    Type
REMARK                         _______ _______ _______ _____ _____    ______ ____
ROOT
ATOM      1  C   UNL     1       2.249   8.750  18.103  0.00  0.00    +0.000 C 
ENDROOT
BRANCH   1   2
ATOM      2  N   UNL     1       0.944   9.117  17.549  0.00  0.00    +0.000 NA
ATOM      3  H   UNL     1       0.319   8.313  17.617  0.00  0.00    +0.000 HD
BRANCH   2   4
ATOM      4  C   UNL     1       0.339  10.273  18.234  0.00  0.00    +0.000 C 
ATOM      5  C   UNL     1       0.536  10.177  19.751  0.00  0.00    +0.000 C 
ATOM      6  C   UNL     1      -0.090  11.386  20.485  0.00  0.00    +0.000 C 
ATOM      7  C   UNL     1      -1.496  11.716  20.035  0.00  0.00    +0.000 A 
ATOM      8  C   UNL     1      -2.369  12.492  20.810  0.00  0.00    +0.000 A 
ATOM      9  C   UNL     1      -3.684  12.738  20.369  0.00  0.00    +0.000 A 
ATOM     10  C   UNL     1      -4.156  12.230  19.162  0.00  0.00    +0.000 A 
ATOM     11  C   UNL     1      -3.282  11.493  18.383  0.00  0.00    +0.000 A 
ATOM     12  C   UNL     1      -1.972  11.259  18.812  0.00  0.00    +0.000 A 
ATOM     13  C   UNL     1      -1.166  10.313  17.953  0.00  0.00    +0.000 C 
BRANCH  10  14
ATOM     14  O   UNL     1      -5.457  12.479  18.815  0.00  0.00    +0.000 OA
ATOM     15  C   UNL     1      -5.816  12.205  17.453  0.00  0.00    +0.000 C 
ENDBRANCH  10  14
ENDBRANCH   2   4
ENDBRANCH   1   2
BRANCH   1  16
ATOM     16  C   UNL     1       2.354   7.267  18.421  0.00  0.00    +0.000 C 
BRANCH  16  17
ATOM     17  C   UNL     1       2.178   7.082  19.927  0.00  0.00    +0.000 C 
BRANCH  17  18
ATOM     18  C   UNL     1       2.500   5.653  20.302  0.00  0.00    +0.000 C 
BRANCH  18  19
ATOM     19  C   UNL     1       1.235   4.819  20.336  0.00  0.00    +0.000 C 
BRANCH  19  20
ATOM     20  C   UNL     1       1.531   3.479  20.982  0.00  0.00    +0.000 C 
BRANCH  20  21
ATOM     21  C   UNL     1       1.570   2.394  19.924  0.00  0.00    +0.000 C 
BRANCH  21  22
ATOM     22  C   UNL     1       1.384   3.006  18.549  0.00  0.00    +0.000 C 
BRANCH  22  23
ATOM     23  C   UNL     1       2.495   2.545  17.624  0.00  0.00    +0.000 C 
BRANCH  23  24
ATOM     24  C   UNL     1       3.244   3.747  17.079  0.00  0.00    +0.000 C 
BRANCH  24  25
ATOM     25  C   UNL     1       4.679   3.731  17.576  0.00  0.00    +0.000 C 
BRANCH  25  26
ATOM     26  C   UNL     1       5.150   5.148  17.851  0.00  0.00    +0.000 C 
BRANCH  26  28
ATOM     27  C   UNL     1       7.346   5.650  18.915  0.00  0.00    +0.000 C 
ATOM     28  C   UNL     1       5.919   5.207  19.162  0.00  0.00    +0.000 C 
ENDBRANCH  26  28
ENDBRANCH  25  26
ENDBRANCH  24  25
ENDBRANCH  23  24
ENDBRANCH  22  23
ENDBRANCH  21  22
ENDBRANCH  20  21
ENDBRANCH  19  20
ENDBRANCH  18  19
ENDBRANCH  17  18
ENDBRANCH  16  17
ENDBRANCH   1  16
TORSDOF 15
ENDMDL
MODEL 7
REMARK VINA RESULT:      -6.0      3.195      6.423
REMARK  Name = 
REMARK  17 active torsions:
REMARK  status: ('A' for Active; 'I' for Inactive)
REMARK    1  A    between atoms: C_1  and  C_2
REMARK    2  A    between atoms: C_2  and  C_3
REMARK    3  A    between atoms: C_3  and  C_4
REMARK    4  A    between atoms: C_4  and  C_5
REMARK    5  A    between atoms: C_5  and  C_6
REMARK    6  A    between atoms: C_6  and  C_7
REMARK    7  A    between atoms: C_7  and  C_8
REMARK    8  A    between atoms: C_8  and  C_9
REMARK    9  A    between atoms: C_9  and  C_10
REMARK   10  A    between atoms: C_10  and  C_11
REMARK   11  A    between atoms: C_11  and  C_12
REMARK   12  A    between atoms: C_12  and  C_13
REMARK   13  A    between atoms: C_13  and  C_14
REMARK   14  A    between atoms: C_14  and  N_15
REMARK   15  A    between atoms: N_15  and  C_16
REMARK   16  A    between atoms: C_22  and  O_23
REMARK   17  A    between atoms: O_23  and  C_24
REMARK                            x       y       z     vdW  Elec       q    Type
REMARK                         _______ _______ _______ _____ _____    ______ ____
ROOT
ATOM      1  C   UNL     1       1.376   9.134  19.050  0.00  0.00    +0.000 C 
ENDROOT
BRANCH   1   2
ATOM      2  N   UNL     1       0.651  10.401  18.924  0.00  0.00    +0.000 NA
ATOM      3  H   UNL     1       0.998  10.898  18.102  0.00  0.00    +0.000 HD
BRANCH   2   4
ATOM      4  C   UNL     1      -0.806  10.214  18.811  0.00  0.00    +0.000 C 
ATOM      5  C   UNL     1      -1.221  10.000  17.351  0.00  0.00    +0.000 C 
ATOM      6  C   UNL     1      -2.748   9.798  17.216  0.00  0.00    +0.000 C 
ATOM      7  C   UNL     1      -3.571  10.811  17.980  0.00  0.00    +0.000 A 
ATOM      8  C   UNL     1      -4.923  11.051  17.691  0.00  0.00    +0.000 A 
ATOM      9  C   UNL     1      -5.637  12.036  18.402  0.00  0.00    +0.000 A 
ATOM     10  C   UNL     1      -5.037  12.792  19.405  0.00  0.00    +0.000 A 
ATOM     11  C   UNL     1      -3.713  12.530  19.710  0.00  0.00    +0.000 A 
ATOM     12  C   UNL     1      -3.005  11.544  19.016  0.00  0.00    +0.000 A 
ATOM     13  C   UNL     1      -1.530  11.459  19.331  0.00  0.00    +0.000 C 
BRANCH  10  14
ATOM     14  O   UNL     1      -5.783  13.756  20.027  0.00  0.00    +0.000 OA
ATOM     15  C   UNL     1      -5.107  14.543  21.018  0.00  0.00    +0.000 C 
ENDBRANCH  10  14
ENDBRANCH   2   4
ENDBRANCH   1   2
BRANCH   1  16
ATOM     16  C   UNL     1       2.143   8.770  17.789  0.00  0.00    +0.000 C 
BRANCH  16  17
ATOM     17  C   UNL     1       2.729   7.371  17.969  0.00  0.00    +0.000 C 
BRANCH  17  18
ATOM     18  C   UNL     1       3.969   7.229  17.115  0.00  0.00    +0.000 C 
BRANCH  18  19
ATOM     19  C   UNL     1       4.920   6.220  17.730  0.00  0.00    +0.000 C 
BRANCH  19  20
ATOM     20  C   UNL     1       4.123   5.095  18.361  0.00  0.00    +0.000 C 
BRANCH  20  21
ATOM     21  C   UNL     1       4.312   3.820  17.563  0.00  0.00    +0.000 C 
BRANCH  21  22
ATOM     22  C   UNL     1       3.009   3.430  16.894  0.00  0.00    +0.000 C 
BRANCH  22  23
ATOM     23  C   UNL     1       1.846   3.715  17.826  0.00  0.00    +0.000 C 
BRANCH  23  24
ATOM     24  C   UNL     1       1.366   2.423  18.463  0.00  0.00    +0.000 C 
BRANCH  24  25
ATOM     25  C   UNL     1       1.820   2.362  19.911  0.00  0.00    +0.000 C 
BRANCH  25  26
ATOM     26  C   UNL     1       1.091   3.414  20.729  0.00  0.00    +0.000 C 
BRANCH  26  28
ATOM     27  C   UNL     1       1.578   5.847  20.954  0.00  0.00    +0.000 C 
ATOM     28  C   UNL     1       2.072   4.448  21.260  0.00  0.00    +0.000 C 
ENDBRANCH  26  28
ENDBRANCH  25  26
ENDBRANCH  24  25
ENDBRANCH  23  24
ENDBRANCH  22  23
ENDBRANCH  21  22
ENDBRANCH  20  21
ENDBRANCH  19  20
ENDBRANCH  18  19
ENDBRANCH  17  18
ENDBRANCH  16  17
ENDBRANCH   1  16
TORSDOF 15
ENDMDL
MODEL 8
REMARK VINA RESULT:      -6.0      2.910      5.492
REMARK  Name = 
REMARK  17 active torsions:
REMARK  status: ('A' for Active; 'I' for Inactive)
REMARK    1  A    between atoms: C_1  and  C_2
REMARK    2  A    between atoms: C_2  and  C_3
REMARK    3  A    between atoms: C_3  and  C_4
REMARK    4  A    between atoms: C_4  and  C_5
REMARK    5  A    between atoms: C_5  and  C_6
REMARK    6  A    between atoms: C_6  and  C_7
REMARK    7  A    between atoms: C_7  and  C_8
REMARK    8  A    between atoms: C_8  and  C_9
REMARK    9  A    between atoms: C_9  and  C_10
REMARK   10  A    between atoms: C_10  and  C_11
REMARK   11  A    between atoms: C_11  and  C_12
REMARK   12  A    between atoms: C_12  and  C_13
REMARK   13  A    between atoms: C_13  and  C_14
REMARK   14  A    between atoms: C_14  and  N_15
REMARK   15  A    between atoms: N_15  and  C_16
REMARK   16  A    between atoms: C_22  and  O_23
REMARK   17  A    between atoms: O_23  and  C_24
REMARK                            x       y       z     vdW  Elec       q    Type
REMARK                         _______ _______ _______ _____ _____    ______ ____
ROOT
ATOM      1  C   UNL     1       3.227   7.385  18.119  0.00  0.00    +0.000 C 
ENDROOT
BRANCH   1   2
ATOM      2  N   UNL     1       2.081   8.298  18.077  0.00  0.00    +0.000 NA
ATOM      3  H   UNL     1       1.254   7.775  17.788  0.00  0.00    +0.000 HD
BRANCH   2   4
ATOM      4  C   UNL     1       1.826   8.950  19.374  0.00  0.00    +0.000 C 
ATOM      5  C   UNL     1       1.603   7.910  20.478  0.00  0.00    +0.000 C 
ATOM      6  C   UNL     1       1.338   8.579  21.846  0.00  0.00    +0.000 C 
ATOM      7  C   UNL     1       0.319   9.695  21.796  0.00  0.00    +0.000 A 
ATOM      8  C   UNL     1      -0.345  10.158  22.942  0.00  0.00    +0.000 A 
ATOM      9  C   UNL     1      -1.317  11.172  22.839  0.00  0.00    +0.000 A 
ATOM     10  C   UNL     1      -1.647  11.746  21.614  0.00  0.00    +0.000 A 
ATOM     11  C   UNL     1      -0.967  11.311  20.491  0.00  0.00    +0.000 A 
ATOM     12  C   UNL     1       0.008  10.315  20.591  0.00  0.00    +0.000 A 
ATOM     13  C   UNL     1       0.566   9.816  19.279  0.00  0.00    +0.000 C 
BRANCH  10  14
ATOM     14  O   UNL     1      -2.629  12.700  21.587  0.00  0.00    +0.000 OA
ATOM     15  C   UNL     1      -3.586  12.658  22.654  0.00  0.00    +0.000 C 
ENDBRANCH  10  14
ENDBRANCH   2   4
ENDBRANCH   1   2
BRANCH   1  16
ATOM     16  C   UNL     1       3.923   7.258  16.774  0.00  0.00    +0.000 C 
BRANCH  16  17
ATOM     17  C   UNL     1       5.023   6.205  16.898  0.00  0.00    +0.000 C 
BRANCH  17  18
ATOM     18  C   UNL     1       5.412   6.049  18.351  0.00  0.00    +0.000 C 
BRANCH  18  19
ATOM     19  C   UNL     1       4.732   4.834  18.952  0.00  0.00    +0.000 C 
BRANCH  19  20
ATOM     20  C   UNL     1       4.992   3.625  18.076  0.00  0.00    +0.000 C 
BRANCH  20  21
ATOM     21  C   UNL     1       3.719   2.816  17.921  0.00  0.00    +0.000 C 
BRANCH  21  22
ATOM     22  C   UNL     1       2.720   3.582  17.077  0.00  0.00    +0.000 C 
BRANCH  22  23
ATOM     23  C   UNL     1       1.474   3.874  17.892  0.00  0.00    +0.000 C 
BRANCH  23  24
ATOM     24  C   UNL     1       0.970   2.598  18.540  0.00  0.00    +0.000 C 
BRANCH  24  25
ATOM     25  C   UNL     1       0.601   2.864  19.989  0.00  0.00    +0.000 C 
BRANCH  25  26
ATOM     26  C   UNL     1       1.141   4.217  20.423  0.00  0.00    +0.000 C 
BRANCH  26  28
ATOM     27  C   UNL     1       2.754   2.665  21.516  0.00  0.00    +0.000 C 
ATOM     28  C   UNL     1       2.142   4.050  21.556  0.00  0.00    +0.000 C 
ENDBRANCH  26  28
ENDBRANCH  25  26
ENDBRANCH  24  25
ENDBRANCH  23  24
ENDBRANCH  22  23
ENDBRANCH  21  22
ENDBRANCH  20  21
ENDBRANCH  19  20
ENDBRANCH  18  19
ENDBRANCH  17  18
ENDBRANCH  16  17
ENDBRANCH   1  16
TORSDOF 15
ENDMDL
MODEL 9
REMARK VINA RESULT:      -6.0      3.556      5.307
REMARK  Name = 
REMARK  17 active torsions:
REMARK  status: ('A' for Active; 'I' for Inactive)
REMARK    1  A    between atoms: C_1  and  C_2
REMARK    2  A    between atoms: C_2  and  C_3
REMARK    3  A    between atoms: C_3  and  C_4
REMARK    4  A    between atoms: C_4  and  C_5
REMARK    5  A    between atoms: C_5  and  C_6
REMARK    6  A    between atoms: C_6  and  C_7
REMARK    7  A    between atoms: C_7  and  C_8
REMARK    8  A    between atoms: C_8  and  C_9
REMARK    9  A    between atoms: C_9  and  C_10
REMARK   10  A    between atoms: C_10  and  C_11
REMARK   11  A    between atoms: C_11  and  C_12
REMARK   12  A    between atoms: C_12  and  C_13
REMARK   13  A    between atoms: C_13  and  C_14
REMARK   14  A    between atoms: C_14  and  N_15
REMARK   15  A    between atoms: N_15  and  C_16
REMARK   16  A    between atoms: C_22  and  O_23
REMARK   17  A    between atoms: O_23  and  C_24
REMARK                            x       y       z     vdW  Elec       q    Type
REMARK                         _______ _______ _______ _____ _____    ______ ____
ROOT
ATOM      1  C   UNL     1       3.176   5.209  19.156  0.00  0.00    +0.000 C 
ENDROOT
BRANCH   1   2
ATOM      2  N   UNL     1       3.436   6.617  18.845  0.00  0.00    +0.000 NA
ATOM      3  H   UNL     1       3.881   6.675  17.929  0.00  0.00    +0.000 HD
BRANCH   2   4
ATOM      4  C   UNL     1       2.211   7.437  18.855  0.00  0.00    +0.000 C 
ATOM      5  C   UNL     1       2.354   8.648  17.927  0.00  0.00    +0.000 C 
ATOM      6  C   UNL     1       1.075   9.517  17.923  0.00  0.00    +0.000 C 
ATOM      7  C   UNL     1       0.535   9.820  19.302  0.00  0.00    +0.000 A 
ATOM      8  C   UNL     1      -0.352  10.879  19.545  0.00  0.00    +0.000 A 
ATOM      9  C   UNL     1      -0.795  11.149  20.855  0.00  0.00    +0.000 A 
ATOM     10  C   UNL     1      -0.378  10.383  21.939  0.00  0.00    +0.000 A 
ATOM     11  C   UNL     1       0.471   9.319  21.692  0.00  0.00    +0.000 A 
ATOM     12  C   UNL     1       0.902   9.039  20.392  0.00  0.00    +0.000 A 
ATOM     13  C   UNL     1       1.946   7.955  20.272  0.00  0.00    +0.000 C 
BRANCH  10  14
ATOM     14  O   UNL     1      -0.821  10.728  23.188  0.00  0.00    +0.000 OA
ATOM     15  C   UNL     1      -1.630  11.910  23.272  0.00  0.00    +0.000 C 
ENDBRANCH  10  14
ENDBRANCH   2   4
ENDBRANCH   1   2
BRANCH   1  16
ATOM     16  C   UNL     1       3.314   4.306  17.941  0.00  0.00    +0.000 C 
BRANCH  16  17
ATOM     17  C   UNL     1       4.786   3.928  17.786  0.00  0.00    +0.000 C 
BRANCH  17  18
ATOM     18  C   UNL     1       5.299   4.430  16.454  0.00  0.00    +0.000 C 
BRANCH  18  19
ATOM     19  C   UNL     1       6.686   5.022  16.613  0.00  0.00    +0.000 C 
BRANCH  19  20
ATOM     20  C   UNL     1       7.176   4.788  18.028  0.00  0.00    +0.000 C 
BRANCH  20  21
ATOM     21  C   UNL     1       7.294   6.111  18.758  0.00  0.00    +0.000 C 
BRANCH  21  22
ATOM     22  C   UNL     1       8.065   7.103  17.910  0.00  0.00    +0.000 C 
BRANCH  22  23
ATOM     23  C   UNL     1       7.180   8.287  17.567  0.00  0.00    +0.000 C 
BRANCH  23  24
ATOM     24  C   UNL     1       7.935   9.582  17.808  0.00  0.00    +0.000 C 
BRANCH  24  25
ATOM     25  C   UNL     1       8.919   9.402  18.950  0.00  0.00    +0.000 C 
BRANCH  25  26
ATOM     26  C   UNL     1       9.700  10.686  19.170  0.00  0.00    +0.000 C 
BRANCH  26  28
ATOM     27  C   UNL     1       9.886  12.788  17.845  0.00  0.00    +0.000 C 
ATOM     28  C   UNL     1      10.114  11.290  17.836  0.00  0.00    +0.000 C 
ENDBRANCH  26  28
ENDBRANCH  25  26
ENDBRANCH  24  25
ENDBRANCH  23  24
ENDBRANCH  22  23
ENDBRANCH  21  22
ENDBRANCH  20  21
ENDBRANCH  19  20
ENDBRANCH  18  19
ENDBRANCH  17  18
ENDBRANCH  16  17
ENDBRANCH   1  16
TORSDOF 15
ENDMDL
