MODEL 1
REMARK VINA RESULT:      -7.4      0.000      0.000
REMARK  Name = 
REMARK  4 active torsions:
REMARK  status: ('A' for Active; 'I' for Inactive)
REMARK    1  A    between atoms: C_1  and  N_2
REMARK    2  A    between atoms: C_6  and  C_7
REMARK    3  A    between atoms: C_6  and  C_8
REMARK    4  A    between atoms: C_10  and  C_11
REMARK                            x       y       z     vdW  Elec       q    Type
REMARK                         _______ _______ _______ _____ _____    ______ ____
ROOT
ATOM      1  C   UNL     1       7.473   4.624  17.271  0.00  0.00    +0.000 C 
ATOM      2  N   UNL     1       6.076   4.682  17.679  0.00  0.00    +0.000 N 
ATOM      3  C   UNL     1       5.810   4.948  19.003  0.00  0.00    +0.000 C 
ATOM      4  O   UNL     1       6.694   5.154  19.841  0.00  0.00    +0.000 OA
ATOM      5  C   UNL     1       4.382   4.920  19.456  0.00  0.00    +0.000 C 
ATOM      6  C   UNL     1       3.312   4.838  18.371  0.00  0.00    +0.000 C 
ATOM      7  C   UNL     1       2.365   3.667  18.714  0.00  0.00    +0.000 C 
ATOM      8  N   UNL     1       3.824   4.548  17.041  0.00  0.00    +0.000 NA
ATOM      9  C   UNL     1       5.072   4.505  16.760  0.00  0.00    +0.000 C 
ATOM     10  N   UNL     1       5.377   4.270  15.455  0.00  0.00    +0.000 N 
ATOM     11  H   UNL     1       4.557   3.985  14.931  0.00  0.00    +0.000 HD
ATOM     12  H   UNL     1       6.190   3.707  15.257  0.00  0.00    +0.000 HD
ENDROOT
BRANCH   6  13
ATOM     13  C   UNL     1       2.491   6.131  18.322  0.00  0.00    +0.000 C 
ATOM     14  C   UNL     1       3.080   7.394  17.741  0.00  0.00    +0.000 C 
ATOM     15  C   UNL     1       2.779   7.328  19.221  0.00  0.00    +0.000 C 
BRANCH  15  16
ATOM     16  C   UNL     1       1.678   8.200  19.775  0.00  0.00    +0.000 A 
ATOM     17  C   UNL     1       1.135   7.994  21.053  0.00  0.00    +0.000 A 
ATOM     18  C   UNL     1       0.152   8.843  21.570  0.00  0.00    +0.000 A 
ATOM     19  C   UNL     1      -0.305   9.922  20.819  0.00  0.00    +0.000 A 
ATOM     20  C   UNL     1       0.217  10.152  19.552  0.00  0.00    +0.000 A 
ATOM     21  C   UNL     1       1.199   9.299  19.041  0.00  0.00    +0.000 A 
ENDBRANCH  15  16
ENDBRANCH   6  13
TORSDOF 2
ENDMDL
MODEL 2
REMARK VINA RESULT:      -7.4      0.120      1.108
REMARK  Name = 
REMARK  4 active torsions:
REMARK  status: ('A' for Active; 'I' for Inactive)
REMARK    1  A    between atoms: C_1  and  N_2
REMARK    2  A    between atoms: C_6  and  C_7
REMARK    3  A    between atoms: C_6  and  C_8
REMARK    4  A    between atoms: C_10  and  C_11
REMARK                            x       y       z     vdW  Elec       q    Type
REMARK                         _______ _______ _______ _____ _____    ______ ____
ROOT
ATOM      1  C   UNL     1       7.462   4.526  17.297  0.00  0.00    +0.000 C 
ATOM      2  N   UNL     1       6.067   4.641  17.701  0.00  0.00    +0.000 N 
ATOM      3  C   UNL     1       5.809   4.957  19.015  0.00  0.00    +0.000 C 
ATOM      4  O   UNL     1       6.699   5.160  19.848  0.00  0.00    +0.000 OA
ATOM      5  C   UNL     1       4.381   4.989  19.466  0.00  0.00    +0.000 C 
ATOM      6  C   UNL     1       3.309   4.909  18.383  0.00  0.00    +0.000 C 
ATOM      7  C   UNL     1       2.325   3.780  18.760  0.00  0.00    +0.000 C 
ATOM      8  N   UNL     1       3.813   4.560  17.063  0.00  0.00    +0.000 NA
ATOM      9  C   UNL     1       5.059   4.469  16.786  0.00  0.00    +0.000 C 
ATOM     10  N   UNL     1       5.356   4.184  15.489  0.00  0.00    +0.000 N 
ATOM     11  H   UNL     1       4.528   3.909  14.973  0.00  0.00    +0.000 HD
ATOM     12  H   UNL     1       6.151   3.588  15.310  0.00  0.00    +0.000 HD
ENDROOT
BRANCH   6  13
ATOM     13  C   UNL     1       2.531   6.225  18.292  0.00  0.00    +0.000 C 
ATOM     14  C   UNL     1       3.183   7.467  17.734  0.00  0.00    +0.000 C 
ATOM     15  C   UNL     1       2.814   7.417  19.199  0.00  0.00    +0.000 C 
BRANCH  15  16
ATOM     16  C   UNL     1       1.715   8.324  19.700  0.00  0.00    +0.000 A 
ATOM     17  C   UNL     1       1.169   9.343  18.905  0.00  0.00    +0.000 A 
ATOM     18  C   UNL     1       0.117  10.140  19.367  0.00  0.00    +0.000 A 
ATOM     19  C   UNL     1      -0.415   9.928  20.635  0.00  0.00    +0.000 A 
ATOM     20  C   UNL     1       0.103   8.923  21.443  0.00  0.00    +0.000 A 
ATOM     21  C   UNL     1       1.154   8.131  20.975  0.00  0.00    +0.000 A 
ENDBRANCH  15  16
ENDBRANCH   6  13
TORSDOF 2
ENDMDL
MODEL 3
REMARK VINA RESULT:      -7.1      3.253      6.795
REMARK  Name = 
REMARK  4 active torsions:
REMARK  status: ('A' for Active; 'I' for Inactive)
REMARK    1  A    between atoms: C_1  and  N_2
REMARK    2  A    between atoms: C_6  and  C_7
REMARK    3  A    between atoms: C_6  and  C_8
REMARK    4  A    between atoms: C_10  and  C_11
REMARK                            x       y       z     vdW  Elec       q    Type
REMARK                         _______ _______ _______ _____ _____    ______ ____
ROOT
ATOM      1  C   UNL     1       1.462   3.822  19.407  0.00  0.00    +0.000 C 
ATOM      2  N   UNL     1       2.827   4.209  19.076  0.00  0.00    +0.000 N 
ATOM      3  C   UNL     1       3.712   3.207  18.751  0.00  0.00    +0.000 C 
ATOM      4  O   UNL     1       3.395   2.013  18.713  0.00  0.00    +0.000 OA
ATOM      5  C   UNL     1       5.140   3.581  18.497  0.00  0.00    +0.000 C 
ATOM      6  C   UNL     1       5.457   5.069  18.380  0.00  0.00    +0.000 C 
ATOM      7  C   UNL     1       6.621   5.392  19.343  0.00  0.00    +0.000 C 
ATOM      8  N   UNL     1       4.369   5.949  18.777  0.00  0.00    +0.000 NA
ATOM      9  C   UNL     1       3.194   5.532  19.063  0.00  0.00    +0.000 C 
ATOM     10  N   UNL     1       2.281   6.495  19.364  0.00  0.00    +0.000 N 
ATOM     11  H   UNL     1       2.727   7.398  19.490  0.00  0.00    +0.000 HD
ATOM     12  H   UNL     1       1.597   6.288  20.076  0.00  0.00    +0.000 HD
ENDROOT
BRANCH   6  13
ATOM     13  C   UNL     1       5.892   5.419  16.953  0.00  0.00    +0.000 C 
ATOM     14  C   UNL     1       5.095   6.397  16.124  0.00  0.00    +0.000 C 
ATOM     15  C   UNL     1       5.136   4.941  15.719  0.00  0.00    +0.000 C 
BRANCH  15  16
ATOM     16  C   UNL     1       5.844   4.567  14.438  0.00  0.00    +0.000 A 
ATOM     17  C   UNL     1       5.282   3.681  13.507  0.00  0.00    +0.000 A 
ATOM     18  C   UNL     1       5.928   3.386  12.302  0.00  0.00    +0.000 A 
ATOM     19  C   UNL     1       7.151   3.979  12.003  0.00  0.00    +0.000 A 
ATOM     20  C   UNL     1       7.729   4.864  12.904  0.00  0.00    +0.000 A 
ATOM     21  C   UNL     1       7.078   5.153  14.106  0.00  0.00    +0.000 A 
ENDBRANCH  15  16
ENDBRANCH   6  13
TORSDOF 2
ENDMDL
MODEL 4
REMARK VINA RESULT:      -7.1      3.238      6.882
REMARK  Name = 
REMARK  4 active torsions:
REMARK  status: ('A' for Active; 'I' for Inactive)
REMARK    1  A    between atoms: C_1  and  N_2
REMARK    2  A    between atoms: C_6  and  C_7
REMARK    3  A    between atoms: C_6  and  C_8
REMARK    4  A    between atoms: C_10  and  C_11
REMARK                            x       y       z     vdW  Elec       q    Type
REMARK                         _______ _______ _______ _____ _____    ______ ____
ROOT
ATOM      1  C   UNL     1       2.091   3.936  21.088  0.00  0.00    +0.000 C 
ATOM      2  N   UNL     1       3.167   4.301  20.177  0.00  0.00    +0.000 N 
ATOM      3  C   UNL     1       4.043   3.310  19.797  0.00  0.00    +0.000 C 
ATOM      4  O   UNL     1       3.945   2.139  20.179  0.00  0.00    +0.000 OA
ATOM      5  C   UNL     1       5.207   3.689  18.933  0.00  0.00    +0.000 C 
ATOM      6  C   UNL     1       5.200   5.095  18.339  0.00  0.00    +0.000 C 
ATOM      7  C   UNL     1       6.552   5.765  18.671  0.00  0.00    +0.000 C 
ATOM      8  N   UNL     1       4.183   5.976  18.890  0.00  0.00    +0.000 NA
ATOM      9  C   UNL     1       3.272   5.583  19.697  0.00  0.00    +0.000 C 
ATOM     10  N   UNL     1       2.369   6.527  20.076  0.00  0.00    +0.000 N 
ATOM     11  H   UNL     1       2.666   7.455  19.795  0.00  0.00    +0.000 HD
ATOM     12  H   UNL     1       2.022   6.493  21.023  0.00  0.00    +0.000 HD
ENDROOT
BRANCH   6  13
ATOM     13  C   UNL     1       5.044   5.038  16.816  0.00  0.00    +0.000 C 
ATOM     14  C   UNL     1       4.135   4.019  16.173  0.00  0.00    +0.000 C 
ATOM     15  C   UNL     1       5.629   3.916  15.967  0.00  0.00    +0.000 C 
BRANCH  15  16
ATOM     16  C   UNL     1       6.186   4.161  14.585  0.00  0.00    +0.000 A 
ATOM     17  C   UNL     1       7.279   5.013  14.361  0.00  0.00    +0.000 A 
ATOM     18  C   UNL     1       7.815   5.187  13.082  0.00  0.00    +0.000 A 
ATOM     19  C   UNL     1       7.269   4.506  11.998  0.00  0.00    +0.000 A 
ATOM     20  C   UNL     1       6.189   3.654  12.189  0.00  0.00    +0.000 A 
ATOM     21  C   UNL     1       5.659   3.484  13.471  0.00  0.00    +0.000 A 
ENDBRANCH  15  16
ENDBRANCH   6  13
TORSDOF 2
ENDMDL
MODEL 5
REMARK VINA RESULT:      -7.0      3.211      6.801
REMARK  Name = 
REMARK  4 active torsions:
REMARK  status: ('A' for Active; 'I' for Inactive)
REMARK    1  A    between atoms: C_1  and  N_2
REMARK    2  A    between atoms: C_6  and  C_7
REMARK    3  A    between atoms: C_6  and  C_8
REMARK    4  A    between atoms: C_10  and  C_11
REMARK                            x       y       z     vdW  Elec       q    Type
REMARK                         _______ _______ _______ _____ _____    ______ ____
ROOT
ATOM      1  C   UNL     1       1.625   4.101  19.612  0.00  0.00    +0.000 C 
ATOM      2  N   UNL     1       2.984   4.442  19.214  0.00  0.00    +0.000 N 
ATOM      3  C   UNL     1       3.812   3.413  18.826  0.00  0.00    +0.000 C 
ATOM      4  O   UNL     1       3.448   2.233  18.786  0.00  0.00    +0.000 OA
ATOM      5  C   UNL     1       5.238   3.737  18.503  0.00  0.00    +0.000 C 
ATOM      6  C   UNL     1       5.605   5.214  18.392  0.00  0.00    +0.000 C 
ATOM      7  C   UNL     1       6.830   5.476  19.295  0.00  0.00    +0.000 C 
ATOM      8  N   UNL     1       4.574   6.128  18.860  0.00  0.00    +0.000 NA
ATOM      9  C   UNL     1       3.401   5.750  19.202  0.00  0.00    +0.000 C 
ATOM     10  N   UNL     1       2.543   6.741  19.566  0.00  0.00    +0.000 N 
ATOM     11  H   UNL     1       3.029   7.624  19.683  0.00  0.00    +0.000 HD
ATOM     12  H   UNL     1       1.890   6.547  20.311  0.00  0.00    +0.000 HD
ENDROOT
BRANCH   6  13
ATOM     13  C   UNL     1       5.977   5.573  16.949  0.00  0.00    +0.000 C 
ATOM     14  C   UNL     1       5.111   6.510  16.142  0.00  0.00    +0.000 C 
ATOM     15  C   UNL     1       5.202   5.055  15.743  0.00  0.00    +0.000 C 
BRANCH  15  16
ATOM     16  C   UNL     1       5.882   4.703  14.442  0.00  0.00    +0.000 A 
ATOM     17  C   UNL     1       7.119   5.254  14.074  0.00  0.00    +0.000 A 
ATOM     18  C   UNL     1       7.759   4.877  12.889  0.00  0.00    +0.000 A 
ATOM     19  C   UNL     1       7.174   3.934  12.049  0.00  0.00    +0.000 A 
ATOM     20  C   UNL     1       5.951   3.370  12.389  0.00  0.00    +0.000 A 
ATOM     21  C   UNL     1       5.318   3.751  13.575  0.00  0.00    +0.000 A 
ENDBRANCH  15  16
ENDBRANCH   6  13
TORSDOF 2
ENDMDL
MODEL 6
REMARK VINA RESULT:      -7.0      3.248      6.844
REMARK  Name = 
REMARK  4 active torsions:
REMARK  status: ('A' for Active; 'I' for Inactive)
REMARK    1  A    between atoms: C_1  and  N_2
REMARK    2  A    between atoms: C_6  and  C_7
REMARK    3  A    between atoms: C_6  and  C_8
REMARK    4  A    between atoms: C_10  and  C_11
REMARK                            x       y       z     vdW  Elec       q    Type
REMARK                         _______ _______ _______ _____ _____    ______ ____
ROOT
ATOM      1  C   UNL     1       1.955   3.929  21.116  0.00  0.00    +0.000 C 
ATOM      2  N   UNL     1       3.058   4.275  20.231  0.00  0.00    +0.000 N 
ATOM      3  C   UNL     1       3.921   3.267  19.863  0.00  0.00    +0.000 C 
ATOM      4  O   UNL     1       3.787   2.097  20.235  0.00  0.00    +0.000 OA
ATOM      5  C   UNL     1       5.111   3.626  19.028  0.00  0.00    +0.000 C 
ATOM      6  C   UNL     1       5.150   5.036  18.445  0.00  0.00    +0.000 C 
ATOM      7  C   UNL     1       6.508   5.673  18.812  0.00  0.00    +0.000 C 
ATOM      8  N   UNL     1       4.140   5.936  18.979  0.00  0.00    +0.000 NA
ATOM      9  C   UNL     1       3.202   5.558  19.763  0.00  0.00    +0.000 C 
ATOM     10  N   UNL     1       2.312   6.520  20.128  0.00  0.00    +0.000 N 
ATOM     11  H   UNL     1       2.637   7.443  19.861  0.00  0.00    +0.000 HD
ATOM     12  H   UNL     1       1.944   6.486  21.067  0.00  0.00    +0.000 HD
ENDROOT
BRANCH   6  13
ATOM     13  C   UNL     1       5.027   4.993  16.918  0.00  0.00    +0.000 C 
ATOM     14  C   UNL     1       4.078   4.027  16.250  0.00  0.00    +0.000 C 
ATOM     15  C   UNL     1       5.569   3.843  16.077  0.00  0.00    +0.000 C 
BRANCH  15  16
ATOM     16  C   UNL     1       6.171   4.062  14.710  0.00  0.00    +0.000 A 
ATOM     17  C   UNL     1       5.665   3.433  13.562  0.00  0.00    +0.000 A 
ATOM     18  C   UNL     1       6.202   3.687  12.297  0.00  0.00    +0.000 A 
ATOM     19  C   UNL     1       7.256   4.584  12.154  0.00  0.00    +0.000 A 
ATOM     20  C   UNL     1       7.776   5.225  13.272  0.00  0.00    +0.000 A 
ATOM     21  C   UNL     1       7.234   4.966  14.533  0.00  0.00    +0.000 A 
ENDBRANCH  15  16
ENDBRANCH   6  13
TORSDOF 2
ENDMDL
MODEL 7
REMARK VINA RESULT:      -7.0      3.696      6.879
REMARK  Name = 
REMARK  4 active torsions:
REMARK  status: ('A' for Active; 'I' for Inactive)
REMARK    1  A    between atoms: C_1  and  N_2
REMARK    2  A    between atoms: C_6  and  C_7
REMARK    3  A    between atoms: C_6  and  C_8
REMARK    4  A    between atoms: C_10  and  C_11
REMARK                            x       y       z     vdW  Elec       q    Type
REMARK                         _______ _______ _______ _____ _____    ______ ____
ROOT
ATOM      1  C   UNL     1       1.588   2.346  19.661  0.00  0.00    +0.000 C 
ATOM      2  N   UNL     1       2.685   3.146  19.134  0.00  0.00    +0.000 N 
ATOM      3  C   UNL     1       3.916   3.017  19.738  0.00  0.00    +0.000 C 
ATOM      4  O   UNL     1       4.126   2.250  20.683  0.00  0.00    +0.000 OA
ATOM      5  C   UNL     1       5.030   3.900  19.266  0.00  0.00    +0.000 C 
ATOM      6  C   UNL     1       4.786   4.703  17.991  0.00  0.00    +0.000 C 
ATOM      7  C   UNL     1       5.118   6.183  18.282  0.00  0.00    +0.000 C 
ATOM      8  N   UNL     1       3.406   4.697  17.531  0.00  0.00    +0.000 NA
ATOM      9  C   UNL     1       2.492   3.971  18.054  0.00  0.00    +0.000 C 
ATOM     10  N   UNL     1       1.267   4.049  17.467  0.00  0.00    +0.000 N 
ATOM     11  H   UNL     1       1.222   4.818  16.807  0.00  0.00    +0.000 HD
ATOM     12  H   UNL     1       0.456   3.994  18.066  0.00  0.00    +0.000 HD
ENDROOT
BRANCH   6  13
ATOM     13  C   UNL     1       5.695   4.211  16.860  0.00  0.00    +0.000 C 
ATOM     14  C   UNL     1       7.128   4.676  16.768  0.00  0.00    +0.000 C 
ATOM     15  C   UNL     1       6.139   5.106  15.709  0.00  0.00    +0.000 C 
BRANCH  15  16
ATOM     16  C   UNL     1       6.310   4.581  14.303  0.00  0.00    +0.000 A 
ATOM     17  C   UNL     1       5.351   3.758  13.692  0.00  0.00    +0.000 A 
ATOM     18  C   UNL     1       5.502   3.324  12.371  0.00  0.00    +0.000 A 
ATOM     19  C   UNL     1       6.616   3.710  11.632  0.00  0.00    +0.000 A 
ATOM     20  C   UNL     1       7.580   4.526  12.211  0.00  0.00    +0.000 A 
ATOM     21  C   UNL     1       7.423   4.956  13.530  0.00  0.00    +0.000 A 
ENDBRANCH  15  16
ENDBRANCH   6  13
TORSDOF 2
ENDMDL
MODEL 8
REMARK VINA RESULT:      -6.9      3.713      6.892
REMARK  Name = 
REMARK  4 active torsions:
REMARK  status: ('A' for Active; 'I' for Inactive)
REMARK    1  A    between atoms: C_1  and  N_2
REMARK    2  A    between atoms: C_6  and  C_7
REMARK    3  A    between atoms: C_6  and  C_8
REMARK    4  A    between atoms: C_10  and  C_11
REMARK                            x       y       z     vdW  Elec       q    Type
REMARK                         _______ _______ _______ _____ _____    ______ ____
ROOT
ATOM      1  C   UNL     1       1.503   2.281  19.354  0.00  0.00    +0.000 C 
ATOM      2  N   UNL     1       2.633   3.100  18.939  0.00  0.00    +0.000 N 
ATOM      3  C   UNL     1       3.837   2.894  19.574  0.00  0.00    +0.000 C 
ATOM      4  O   UNL     1       3.997   2.044  20.456  0.00  0.00    +0.000 OA
ATOM      5  C   UNL     1       4.983   3.791  19.222  0.00  0.00    +0.000 C 
ATOM      6  C   UNL     1       4.803   4.706  18.013  0.00  0.00    +0.000 C 
ATOM      7  C   UNL     1       5.150   6.148  18.444  0.00  0.00    +0.000 C 
ATOM      8  N   UNL     1       3.442   4.768  17.504  0.00  0.00    +0.000 NA
ATOM      9  C   UNL     1       2.496   4.019  17.928  0.00  0.00    +0.000 C 
ATOM     10  N   UNL     1       1.295   4.173  17.306  0.00  0.00    +0.000 N 
ATOM     11  H   UNL     1       1.290   4.996  16.714  0.00  0.00    +0.000 HD
ATOM     12  H   UNL     1       0.461   4.083  17.867  0.00  0.00    +0.000 HD
ENDROOT
BRANCH   6  13
ATOM     13  C   UNL     1       5.746   4.294  16.878  0.00  0.00    +0.000 C 
ATOM     14  C   UNL     1       7.148   4.848  16.804  0.00  0.00    +0.000 C 
ATOM     15  C   UNL     1       6.140   5.238  15.748  0.00  0.00    +0.000 C 
BRANCH  15  16
ATOM     16  C   UNL     1       6.350   4.755  14.333  0.00  0.00    +0.000 A 
ATOM     17  C   UNL     1       7.472   5.126  13.576  0.00  0.00    +0.000 A 
ATOM     18  C   UNL     1       7.676   4.627  12.286  0.00  0.00    +0.000 A 
ATOM     19  C   UNL     1       6.762   3.739  11.728  0.00  0.00    +0.000 A 
ATOM     20  C   UNL     1       5.643   3.351  12.455  0.00  0.00    +0.000 A 
ATOM     21  C   UNL     1       5.445   3.854  13.743  0.00  0.00    +0.000 A 
ENDBRANCH  15  16
ENDBRANCH   6  13
TORSDOF 2
ENDMDL
MODEL 9
REMARK VINA RESULT:      -6.9      1.089      1.856
REMARK  Name = 
REMARK  4 active torsions:
REMARK  status: ('A' for Active; 'I' for Inactive)
REMARK    1  A    between atoms: C_1  and  N_2
REMARK    2  A    between atoms: C_6  and  C_7
REMARK    3  A    between atoms: C_6  and  C_8
REMARK    4  A    between atoms: C_10  and  C_11
REMARK                            x       y       z     vdW  Elec       q    Type
REMARK                         _______ _______ _______ _____ _____    ______ ____
ROOT
ATOM      1  C   UNL     1       7.478   5.191  15.865  0.00  0.00    +0.000 C 
ATOM      2  N   UNL     1       6.483   4.877  16.880  0.00  0.00    +0.000 N 
ATOM      3  C   UNL     1       6.674   5.393  18.142  0.00  0.00    +0.000 C 
ATOM      4  O   UNL     1       7.632   6.114  18.438  0.00  0.00    +0.000 OA
ATOM      5  C   UNL     1       5.708   5.003  19.218  0.00  0.00    +0.000 C 
ATOM      6  C   UNL     1       4.447   4.261  18.783  0.00  0.00    +0.000 C 
ATOM      7  C   UNL     1       4.322   2.980  19.638  0.00  0.00    +0.000 C 
ATOM      8  N   UNL     1       4.463   3.806  17.401  0.00  0.00    +0.000 NA
ATOM      9  C   UNL     1       5.382   4.118  16.567  0.00  0.00    +0.000 C 
ATOM     10  N   UNL     1       5.216   3.649  15.301  0.00  0.00    +0.000 N 
ATOM     11  H   UNL     1       4.468   2.966  15.257  0.00  0.00    +0.000 HD
ATOM     12  H   UNL     1       6.041   3.368  14.792  0.00  0.00    +0.000 HD
ENDROOT
BRANCH   6  13
ATOM     13  C   UNL     1       3.203   5.125  19.013  0.00  0.00    +0.000 C 
ATOM     14  C   UNL     1       2.038   5.067  18.054  0.00  0.00    +0.000 C 
ATOM     15  C   UNL     1       2.863   6.331  18.145  0.00  0.00    +0.000 C 
BRANCH  15  16
ATOM     16  C   UNL     1       2.221   7.574  18.713  0.00  0.00    +0.000 A 
ATOM     17  C   UNL     1       1.906   8.683  17.913  0.00  0.00    +0.000 A 
ATOM     18  C   UNL     1       1.265   9.806  18.446  0.00  0.00    +0.000 A 
ATOM     19  C   UNL     1       0.919   9.838  19.794  0.00  0.00    +0.000 A 
ATOM     20  C   UNL     1       1.215   8.753  20.609  0.00  0.00    +0.000 A 
ATOM     21  C   UNL     1       1.856   7.635  20.069  0.00  0.00    +0.000 A 
ENDBRANCH  15  16
ENDBRANCH   6  13
TORSDOF 2
ENDMDL
