MODEL 1
REMARK VINA RESULT:      -7.8      0.000      0.000
REMARK  Name = 
REMARK  10 active torsions:
REMARK  status: ('A' for Active; 'I' for Inactive)
REMARK    1  A    between atoms: C_1  and  C_2
REMARK    2  A    between atoms: N_4  and  C_5
REMARK    3  A    between atoms: C_5  and  C_6
REMARK    4  A    between atoms: C_5  and  C_12
REMARK    5  A    between atoms: C_6  and  C_7
REMARK    6  A    between atoms: C_7  and  S_8
REMARK    7  A    between atoms: S_8  and  C_9
REMARK    8  A    between atoms: N_14  and  C_15
REMARK    9  A    between atoms: C_18  and  O_19
REMARK   10  A    between atoms: O_19  and  C_20
REMARK                            x       y       z     vdW  Elec       q    Type
REMARK                         _______ _______ _______ _____ _____    ______ ____
ROOT
ATOM      1  C   UNL     1       3.062   5.345  18.117  0.00  0.00    +0.000 C 
ATOM      2  O   UNL     1       1.973   5.051  17.629  0.00  0.00    +0.000 OA
ATOM      3  N   UNL     1       3.397   6.594  18.597  0.00  0.00    +0.000 N 
ATOM      4  H   UNL     1       4.389   6.781  18.675  0.00  0.00    +0.000 HD
ENDROOT
BRANCH   3   5
ATOM      5  C   UNL     1       2.525   7.690  18.733  0.00  0.00    +0.000 A 
ATOM      6  C   UNL     1       2.299   8.612  17.709  0.00  0.00    +0.000 A 
ATOM      7  C   UNL     1       1.408   9.672  17.895  0.00  0.00    +0.000 A 
ATOM      8  C   UNL     1       0.732   9.817  19.103  0.00  0.00    +0.000 A 
ATOM      9  C   UNL     1       0.992   8.927  20.148  0.00  0.00    +0.000 A 
ATOM     10  C   UNL     1       1.853   7.843  19.949  0.00  0.00    +0.000 A 
BRANCH   8  11
ATOM     11  O   UNL     1      -0.113  10.898  19.183  0.00  0.00    +0.000 OA
BRANCH  11  12
ATOM     12  C   UNL     1      -1.391  10.822  18.684  0.00  0.00    +0.000 A 
ATOM     13  C   UNL     1      -2.276  11.799  19.146  0.00  0.00    +0.000 A 
ATOM     14  C   UNL     1      -3.603  11.804  18.715  0.00  0.00    +0.000 A 
ATOM     15  C   UNL     1      -4.048  10.832  17.822  0.00  0.00    +0.000 A 
ATOM     16  C   UNL     1      -3.159   9.881  17.325  0.00  0.00    +0.000 A 
ATOM     17  C   UNL     1      -1.824   9.896  17.732  0.00  0.00    +0.000 A 
ENDBRANCH  11  12
ENDBRANCH   8  11
ENDBRANCH   3   5
BRANCH   1  18
ATOM     18  C   UNL     1       4.190   4.281  18.212  0.00  0.00    +0.000 C 
BRANCH  18  22
ATOM     19  C   UNL     1       7.752   5.437  18.929  0.00  0.00    +0.000 C 
ATOM     20  C   UNL     1       6.612   4.840  18.147  0.00  0.00    +0.000 C 
ATOM     21  O   UNL     1       6.724   4.494  16.979  0.00  0.00    +0.000 OA
ATOM     22  N   UNL     1       5.416   4.813  18.828  0.00  0.00    +0.000 N 
ATOM     23  H   UNL     1       5.348   5.259  19.737  0.00  0.00    +0.000 HD
ENDBRANCH  18  22
BRANCH  18  24
ATOM     24  C   UNL     1       3.724   3.040  18.997  0.00  0.00    +0.000 C 
BRANCH  24  25
ATOM     25  C   UNL     1       3.441   3.304  20.476  0.00  0.00    +0.000 C 
BRANCH  25  26
ATOM     26  S   UNL     1       1.706   3.166  20.859  0.00  0.00    +0.000 S 
ATOM     27  C   UNL     1       1.078   2.227  19.486  0.00  0.00    +0.000 C 
ATOM     28  O   UNL     1       1.569   2.362  22.056  0.00  0.00    +0.000 OA
ATOM     29  O   UNL     1       1.127   4.497  20.789  0.00  0.00    +0.000 OA
ENDBRANCH  25  26
ENDBRANCH  24  25
ENDBRANCH  18  24
ENDBRANCH   1  18
TORSDOF 8
ENDMDL
MODEL 2
REMARK VINA RESULT:      -7.6      1.793      3.661
REMARK  Name = 
REMARK  10 active torsions:
REMARK  status: ('A' for Active; 'I' for Inactive)
REMARK    1  A    between atoms: C_1  and  C_2
REMARK    2  A    between atoms: N_4  and  C_5
REMARK    3  A    between atoms: C_5  and  C_6
REMARK    4  A    between atoms: C_5  and  C_12
REMARK    5  A    between atoms: C_6  and  C_7
REMARK    6  A    between atoms: C_7  and  S_8
REMARK    7  A    between atoms: S_8  and  C_9
REMARK    8  A    between atoms: N_14  and  C_15
REMARK    9  A    between atoms: C_18  and  O_19
REMARK   10  A    between atoms: O_19  and  C_20
REMARK                            x       y       z     vdW  Elec       q    Type
REMARK                         _______ _______ _______ _____ _____    ______ ____
ROOT
ATOM      1  C   UNL     1       3.029   5.534  18.829  0.00  0.00    +0.000 C 
ATOM      2  O   UNL     1       2.279   5.292  17.886  0.00  0.00    +0.000 OA
ATOM      3  N   UNL     1       3.119   6.752  19.470  0.00  0.00    +0.000 N 
ATOM      4  H   UNL     1       3.968   6.906  19.999  0.00  0.00    +0.000 HD
ENDROOT
BRANCH   3   5
ATOM      5  C   UNL     1       2.290   7.867  19.250  0.00  0.00    +0.000 A 
ATOM      6  C   UNL     1       2.277   8.580  18.049  0.00  0.00    +0.000 A 
ATOM      7  C   UNL     1       1.419   9.668  17.881  0.00  0.00    +0.000 A 
ATOM      8  C   UNL     1       0.562  10.052  18.908  0.00  0.00    +0.000 A 
ATOM      9  C   UNL     1       0.604   9.373  20.129  0.00  0.00    +0.000 A 
ATOM     10  C   UNL     1       1.435   8.259  20.284  0.00  0.00    +0.000 A 
BRANCH   8  11
ATOM     11  O   UNL     1      -0.233  11.141  18.642  0.00  0.00    +0.000 OA
BRANCH  11  12
ATOM     12  C   UNL     1      -1.542  10.971  18.262  0.00  0.00    +0.000 A 
ATOM     13  C   UNL     1      -2.463  11.817  18.886  0.00  0.00    +0.000 A 
ATOM     14  C   UNL     1      -3.822  11.719  18.585  0.00  0.00    +0.000 A 
ATOM     15  C   UNL     1      -4.263  10.774  17.661  0.00  0.00    +0.000 A 
ATOM     16  C   UNL     1      -3.344   9.957  17.005  0.00  0.00    +0.000 A 
ATOM     17  C   UNL     1      -1.982  10.078  17.282  0.00  0.00    +0.000 A 
ENDBRANCH  11  12
ENDBRANCH   8  11
ENDBRANCH   3   5
BRANCH   1  18
ATOM     18  C   UNL     1       3.982   4.434  19.371  0.00  0.00    +0.000 C 
BRANCH  18  22
ATOM     19  C   UNL     1       1.767   2.262  21.588  0.00  0.00    +0.000 C 
ATOM     20  C   UNL     1       2.443   3.513  21.095  0.00  0.00    +0.000 C 
ATOM     21  O   UNL     1       2.219   4.617  21.572  0.00  0.00    +0.000 OA
ATOM     22  N   UNL     1       3.255   3.318  20.000  0.00  0.00    +0.000 N 
ATOM     23  H   UNL     1       3.279   2.410  19.551  0.00  0.00    +0.000 HD
ENDBRANCH  18  22
BRANCH  18  24
ATOM     24  C   UNL     1       4.893   3.882  18.258  0.00  0.00    +0.000 C 
BRANCH  24  25
ATOM     25  C   UNL     1       6.205   4.650  18.084  0.00  0.00    +0.000 C 
BRANCH  25  26
ATOM     26  S   UNL     1       6.151   5.758  16.690  0.00  0.00    +0.000 S 
ATOM     27  C   UNL     1       5.284   4.803  15.466  0.00  0.00    +0.000 C 
ATOM     28  O   UNL     1       5.324   6.893  17.046  0.00  0.00    +0.000 OA
ATOM     29  O   UNL     1       7.513   5.950  16.221  0.00  0.00    +0.000 OA
ENDBRANCH  25  26
ENDBRANCH  24  25
ENDBRANCH  18  24
ENDBRANCH   1  18
TORSDOF 8
ENDMDL
MODEL 3
REMARK VINA RESULT:      -7.6      0.914      1.304
REMARK  Name = 
REMARK  10 active torsions:
REMARK  status: ('A' for Active; 'I' for Inactive)
REMARK    1  A    between atoms: C_1  and  C_2
REMARK    2  A    between atoms: N_4  and  C_5
REMARK    3  A    between atoms: C_5  and  C_6
REMARK    4  A    between atoms: C_5  and  C_12
REMARK    5  A    between atoms: C_6  and  C_7
REMARK    6  A    between atoms: C_7  and  S_8
REMARK    7  A    between atoms: S_8  and  C_9
REMARK    8  A    between atoms: N_14  and  C_15
REMARK    9  A    between atoms: C_18  and  O_19
REMARK   10  A    between atoms: O_19  and  C_20
REMARK                            x       y       z     vdW  Elec       q    Type
REMARK                         _______ _______ _______ _____ _____    ______ ____
ROOT
ATOM      1  C   UNL     1       3.037   5.371  18.149  0.00  0.00    +0.000 C 
ATOM      2  O   UNL     1       1.962   5.076  17.630  0.00  0.00    +0.000 OA
ATOM      3  N   UNL     1       3.335   6.602  18.697  0.00  0.00    +0.000 N 
ATOM      4  H   UNL     1       4.320   6.808  18.799  0.00  0.00    +0.000 HD
ENDROOT
BRANCH   3   5
ATOM      5  C   UNL     1       2.434   7.668  18.876  0.00  0.00    +0.000 A 
ATOM      6  C   UNL     1       1.761   7.900  20.077  0.00  0.00    +0.000 A 
ATOM      7  C   UNL     1       0.891   8.985  20.203  0.00  0.00    +0.000 A 
ATOM      8  C   UNL     1       0.690   9.851  19.132  0.00  0.00    +0.000 A 
ATOM      9  C   UNL     1       1.322   9.596  17.913  0.00  0.00    +0.000 A 
ATOM     10  C   UNL     1       2.224   8.533  17.799  0.00  0.00    +0.000 A 
BRANCH   8  11
ATOM     11  O   UNL     1      -0.194  10.880  19.359  0.00  0.00    +0.000 OA
BRANCH  11  12
ATOM     12  C   UNL     1      -1.461  10.837  18.830  0.00  0.00    +0.000 A 
ATOM     13  C   UNL     1      -2.320  11.857  19.247  0.00  0.00    +0.000 A 
ATOM     14  C   UNL     1      -3.636  11.900  18.783  0.00  0.00    +0.000 A 
ATOM     15  C   UNL     1      -4.094  10.924  17.901  0.00  0.00    +0.000 A 
ATOM     16  C   UNL     1      -3.229   9.930  17.448  0.00  0.00    +0.000 A 
ATOM     17  C   UNL     1      -1.904   9.906  17.888  0.00  0.00    +0.000 A 
ENDBRANCH  11  12
ENDBRANCH   8  11
ENDBRANCH   3   5
BRANCH   1  18
ATOM     18  C   UNL     1       4.190   4.331  18.205  0.00  0.00    +0.000 C 
BRANCH  18  22
ATOM     19  C   UNL     1       7.285   5.002  16.082  0.00  0.00    +0.000 C 
ATOM     20  C   UNL     1       6.010   4.326  16.510  0.00  0.00    +0.000 C 
ATOM     21  O   UNL     1       5.477   3.445  15.850  0.00  0.00    +0.000 OA
ATOM     22  N   UNL     1       5.449   4.855  17.650  0.00  0.00    +0.000 N 
ATOM     23  H   UNL     1       5.852   5.688  18.066  0.00  0.00    +0.000 HD
ENDBRANCH  18  22
BRANCH  18  24
ATOM     24  C   UNL     1       4.434   3.842  19.645  0.00  0.00    +0.000 C 
BRANCH  24  25
ATOM     25  C   UNL     1       3.512   2.703  20.084  0.00  0.00    +0.000 C 
BRANCH  25  26
ATOM     26  S   UNL     1       2.154   3.287  21.078  0.00  0.00    +0.000 S 
ATOM     27  C   UNL     1       0.755   3.047  20.007  0.00  0.00    +0.000 C 
ATOM     28  O   UNL     1       2.010   2.401  22.215  0.00  0.00    +0.000 OA
ATOM     29  O   UNL     1       2.327   4.718  21.270  0.00  0.00    +0.000 OA
ENDBRANCH  25  26
ENDBRANCH  24  25
ENDBRANCH  18  24
ENDBRANCH   1  18
TORSDOF 8
ENDMDL
MODEL 4
REMARK VINA RESULT:      -7.5      1.959      3.850
REMARK  Name = 
REMARK  10 active torsions:
REMARK  status: ('A' for Active; 'I' for Inactive)
REMARK    1  A    between atoms: C_1  and  C_2
REMARK    2  A    between atoms: N_4  and  C_5
REMARK    3  A    between atoms: C_5  and  C_6
REMARK    4  A    between atoms: C_5  and  C_12
REMARK    5  A    between atoms: C_6  and  C_7
REMARK    6  A    between atoms: C_7  and  S_8
REMARK    7  A    between atoms: S_8  and  C_9
REMARK    8  A    between atoms: N_14  and  C_15
REMARK    9  A    between atoms: C_18  and  O_19
REMARK   10  A    between atoms: O_19  and  C_20
REMARK                            x       y       z     vdW  Elec       q    Type
REMARK                         _______ _______ _______ _____ _____    ______ ____
ROOT
ATOM      1  C   UNL     1       2.811   5.834  18.993  0.00  0.00    +0.000 C 
ATOM      2  O   UNL     1       2.050   5.618  18.052  0.00  0.00    +0.000 OA
ATOM      3  N   UNL     1       2.869   7.015  19.703  0.00  0.00    +0.000 N 
ATOM      4  H   UNL     1       3.722   7.171  20.224  0.00  0.00    +0.000 HD
ENDROOT
BRANCH   3   5
ATOM      5  C   UNL     1       1.993   8.108  19.564  0.00  0.00    +0.000 A 
ATOM      6  C   UNL     1       1.145   8.538  20.587  0.00  0.00    +0.000 A 
ATOM      7  C   UNL     1       0.310   9.640  20.398  0.00  0.00    +0.000 A 
ATOM      8  C   UNL     1       0.317  10.327  19.187  0.00  0.00    +0.000 A 
ATOM      9  C   UNL     1       1.127   9.873  18.143  0.00  0.00    +0.000 A 
ATOM     10  C   UNL     1       1.993   8.793  18.346  0.00  0.00    +0.000 A 
BRANCH   8  11
ATOM     11  O   UNL     1      -0.550  11.390  19.104  0.00  0.00    +0.000 OA
BRANCH  11  12
ATOM     12  C   UNL     1      -1.836  11.205  18.657  0.00  0.00    +0.000 A 
ATOM     13  C   UNL     1      -2.013  10.154  17.754  0.00  0.00    +0.000 A 
ATOM     14  C   UNL     1      -3.277   9.888  17.226  0.00  0.00    +0.000 A 
ATOM     15  C   UNL     1      -4.366  10.673  17.600  0.00  0.00    +0.000 A 
ATOM     16  C   UNL     1      -4.203  11.694  18.533  0.00  0.00    +0.000 A 
ATOM     17  C   UNL     1      -2.945  11.940  19.085  0.00  0.00    +0.000 A 
ENDBRANCH  11  12
ENDBRANCH   8  11
ENDBRANCH   3   5
BRANCH   1  18
ATOM     18  C   UNL     1       3.815   4.742  19.452  0.00  0.00    +0.000 C 
BRANCH  18  22
ATOM     19  C   UNL     1       3.726   1.045  18.522  0.00  0.00    +0.000 C 
ATOM     20  C   UNL     1       4.097   2.275  19.307  0.00  0.00    +0.000 C 
ATOM     21  O   UNL     1       4.735   2.224  20.350  0.00  0.00    +0.000 OA
ATOM     22  N   UNL     1       3.572   3.443  18.802  0.00  0.00    +0.000 N 
ATOM     23  H   UNL     1       2.921   3.404  18.026  0.00  0.00    +0.000 HD
ENDBRANCH  18  22
BRANCH  18  24
ATOM     24  C   UNL     1       5.271   5.174  19.192  0.00  0.00    +0.000 C 
BRANCH  24  25
ATOM     25  C   UNL     1       5.620   5.343  17.712  0.00  0.00    +0.000 C 
BRANCH  25  26
ATOM     26  S   UNL     1       7.365   5.600  17.462  0.00  0.00    +0.000 S 
ATOM     27  C   UNL     1       7.931   6.037  19.090  0.00  0.00    +0.000 C 
ATOM     28  O   UNL     1       7.963   4.332  17.101  0.00  0.00    +0.000 OA
ATOM     29  O   UNL     1       7.524   6.766  16.609  0.00  0.00    +0.000 OA
ENDBRANCH  25  26
ENDBRANCH  24  25
ENDBRANCH  18  24
ENDBRANCH   1  18
TORSDOF 8
ENDMDL
MODEL 5
REMARK VINA RESULT:      -7.5      1.716      2.570
REMARK  Name = 
REMARK  10 active torsions:
REMARK  status: ('A' for Active; 'I' for Inactive)
REMARK    1  A    between atoms: C_1  and  C_2
REMARK    2  A    between atoms: N_4  and  C_5
REMARK    3  A    between atoms: C_5  and  C_6
REMARK    4  A    between atoms: C_5  and  C_12
REMARK    5  A    between atoms: C_6  and  C_7
REMARK    6  A    between atoms: C_7  and  S_8
REMARK    7  A    between atoms: S_8  and  C_9
REMARK    8  A    between atoms: N_14  and  C_15
REMARK    9  A    between atoms: C_18  and  O_19
REMARK   10  A    between atoms: O_19  and  C_20
REMARK                            x       y       z     vdW  Elec       q    Type
REMARK                         _______ _______ _______ _____ _____    ______ ____
ROOT
ATOM      1  C   UNL     1       2.863   5.331  17.947  0.00  0.00    +0.000 C 
ATOM      2  O   UNL     1       1.720   5.050  17.590  0.00  0.00    +0.000 OA
ATOM      3  N   UNL     1       3.247   6.547  18.472  0.00  0.00    +0.000 N 
ATOM      4  H   UNL     1       4.237   6.749  18.428  0.00  0.00    +0.000 HD
ENDROOT
BRANCH   3   5
ATOM      5  C   UNL     1       2.390   7.611  18.809  0.00  0.00    +0.000 A 
ATOM      6  C   UNL     1       1.886   7.802  20.097  0.00  0.00    +0.000 A 
ATOM      7  C   UNL     1       1.052   8.886  20.378  0.00  0.00    +0.000 A 
ATOM      8  C   UNL     1       0.718   9.793  19.376  0.00  0.00    +0.000 A 
ATOM      9  C   UNL     1       1.179   9.580  18.075  0.00  0.00    +0.000 A 
ATOM     10  C   UNL     1       2.045   8.517  17.802  0.00  0.00    +0.000 A 
BRANCH   8  11
ATOM     11  O   UNL     1      -0.116  10.817  19.757  0.00  0.00    +0.000 OA
BRANCH  11  12
ATOM     12  C   UNL     1       0.310  12.122  19.691  0.00  0.00    +0.000 A 
ATOM     13  C   UNL     1      -0.411  12.945  18.823  0.00  0.00    +0.000 A 
ATOM     14  C   UNL     1      -0.054  14.285  18.668  0.00  0.00    +0.000 A 
ATOM     15  C   UNL     1       1.025  14.804  19.381  0.00  0.00    +0.000 A 
ATOM     16  C   UNL     1       1.720  13.998  20.280  0.00  0.00    +0.000 A 
ATOM     17  C   UNL     1       1.343  12.667  20.458  0.00  0.00    +0.000 A 
ENDBRANCH  11  12
ENDBRANCH   8  11
ENDBRANCH   3   5
BRANCH   1  18
ATOM     18  C   UNL     1       4.004   4.287  17.805  0.00  0.00    +0.000 C 
BRANCH  18  22
ATOM     19  C   UNL     1       7.628   5.313  18.401  0.00  0.00    +0.000 C 
ATOM     20  C   UNL     1       6.437   4.783  17.649  0.00  0.00    +0.000 C 
ATOM     21  O   UNL     1       6.484   4.486  16.463  0.00  0.00    +0.000 OA
ATOM     22  N   UNL     1       5.274   4.757  18.385  0.00  0.00    +0.000 N 
ATOM     23  H   UNL     1       5.261   5.164  19.314  0.00  0.00    +0.000 HD
ENDBRANCH  18  22
BRANCH  18  24
ATOM     24  C   UNL     1       3.619   2.943  18.451  0.00  0.00    +0.000 C 
BRANCH  24  25
ATOM     25  C   UNL     1       3.964   2.841  19.938  0.00  0.00    +0.000 C 
BRANCH  25  26
ATOM     26  S   UNL     1       2.561   3.199  20.976  0.00  0.00    +0.000 S 
ATOM     27  C   UNL     1       1.194   2.628  19.993  0.00  0.00    +0.000 C 
ATOM     28  O   UNL     1       2.646   2.365  22.157  0.00  0.00    +0.000 OA
ATOM     29  O   UNL     1       2.451   4.643  21.093  0.00  0.00    +0.000 OA
ENDBRANCH  25  26
ENDBRANCH  24  25
ENDBRANCH  18  24
ENDBRANCH   1  18
TORSDOF 8
ENDMDL
MODEL 6
REMARK VINA RESULT:      -7.4      1.700      3.761
REMARK  Name = 
REMARK  10 active torsions:
REMARK  status: ('A' for Active; 'I' for Inactive)
REMARK    1  A    between atoms: C_1  and  C_2
REMARK    2  A    between atoms: N_4  and  C_5
REMARK    3  A    between atoms: C_5  and  C_6
REMARK    4  A    between atoms: C_5  and  C_12
REMARK    5  A    between atoms: C_6  and  C_7
REMARK    6  A    between atoms: C_7  and  S_8
REMARK    7  A    between atoms: S_8  and  C_9
REMARK    8  A    between atoms: N_14  and  C_15
REMARK    9  A    between atoms: C_18  and  O_19
REMARK   10  A    between atoms: O_19  and  C_20
REMARK                            x       y       z     vdW  Elec       q    Type
REMARK                         _______ _______ _______ _____ _____    ______ ____
ROOT
ATOM      1  C   UNL     1       2.871   5.389  18.672  0.00  0.00    +0.000 C 
ATOM      2  O   UNL     1       1.939   5.131  17.913  0.00  0.00    +0.000 OA
ATOM      3  N   UNL     1       3.122   6.631  19.218  0.00  0.00    +0.000 N 
ATOM      4  H   UNL     1       4.064   6.777  19.556  0.00  0.00    +0.000 HD
ENDROOT
BRANCH   3   5
ATOM      5  C   UNL     1       2.294   7.764  19.111  0.00  0.00    +0.000 A 
ATOM      6  C   UNL     1       1.473   8.206  20.150  0.00  0.00    +0.000 A 
ATOM      7  C   UNL     1       0.686   9.348  19.993  0.00  0.00    +0.000 A 
ATOM      8  C   UNL     1       0.715  10.063  18.799  0.00  0.00    +0.000 A 
ATOM      9  C   UNL     1       1.497   9.598  17.739  0.00  0.00    +0.000 A 
ATOM     10  C   UNL     1       2.316   8.476  17.909  0.00  0.00    +0.000 A 
BRANCH   8  11
ATOM     11  O   UNL     1      -0.105  11.164  18.747  0.00  0.00    +0.000 OA
BRANCH  11  12
ATOM     12  C   UNL     1      -1.430  11.030  18.409  0.00  0.00    +0.000 A 
ATOM     13  C   UNL     1      -2.303  11.927  19.030  0.00  0.00    +0.000 A 
ATOM     14  C   UNL     1      -3.672  11.867  18.770  0.00  0.00    +0.000 A 
ATOM     15  C   UNL     1      -4.172  10.911  17.889  0.00  0.00    +0.000 A 
ATOM     16  C   UNL     1      -3.301  10.042  17.234  0.00  0.00    +0.000 A 
ATOM     17  C   UNL     1      -1.928  10.123  17.470  0.00  0.00    +0.000 A 
ENDBRANCH  11  12
ENDBRANCH   8  11
ENDBRANCH   3   5
BRANCH   1  18
ATOM     18  C   UNL     1       3.885   4.280  19.068  0.00  0.00    +0.000 C 
BRANCH  18  22
ATOM     19  C   UNL     1       1.964   2.253  21.664  0.00  0.00    +0.000 C 
ATOM     20  C   UNL     1       2.541   3.474  21.000  0.00  0.00    +0.000 C 
ATOM     21  O   UNL     1       2.311   4.610  21.393  0.00  0.00    +0.000 OA
ATOM     22  N   UNL     1       3.263   3.205  19.859  0.00  0.00    +0.000 N 
ATOM     23  H   UNL     1       3.287   2.259  19.494  0.00  0.00    +0.000 HD
ENDBRANCH  18  22
BRANCH  18  24
ATOM     24  C   UNL     1       4.562   3.670  17.826  0.00  0.00    +0.000 C 
BRANCH  24  25
ATOM     25  C   UNL     1       4.671   4.628  16.638  0.00  0.00    +0.000 C 
BRANCH  25  26
ATOM     26  S   UNL     1       6.144   5.627  16.719  0.00  0.00    +0.000 S 
ATOM     27  C   UNL     1       7.265   4.595  17.635  0.00  0.00    +0.000 C 
ATOM     28  O   UNL     1       6.664   5.777  15.375  0.00  0.00    +0.000 OA
ATOM     29  O   UNL     1       5.846   6.793  17.534  0.00  0.00    +0.000 OA
ENDBRANCH  25  26
ENDBRANCH  24  25
ENDBRANCH  18  24
ENDBRANCH   1  18
TORSDOF 8
ENDMDL
MODEL 7
REMARK VINA RESULT:      -7.4      1.941      3.639
REMARK  Name = 
REMARK  10 active torsions:
REMARK  status: ('A' for Active; 'I' for Inactive)
REMARK    1  A    between atoms: C_1  and  C_2
REMARK    2  A    between atoms: N_4  and  C_5
REMARK    3  A    between atoms: C_5  and  C_6
REMARK    4  A    between atoms: C_5  and  C_12
REMARK    5  A    between atoms: C_6  and  C_7
REMARK    6  A    between atoms: C_7  and  S_8
REMARK    7  A    between atoms: S_8  and  C_9
REMARK    8  A    between atoms: N_14  and  C_15
REMARK    9  A    between atoms: C_18  and  O_19
REMARK   10  A    between atoms: O_19  and  C_20
REMARK                            x       y       z     vdW  Elec       q    Type
REMARK                         _______ _______ _______ _____ _____    ______ ____
ROOT
ATOM      1  C   UNL     1       2.837   5.876  18.948  0.00  0.00    +0.000 C 
ATOM      2  O   UNL     1       1.999   5.593  18.094  0.00  0.00    +0.000 OA
ATOM      3  N   UNL     1       2.965   7.111  19.548  0.00  0.00    +0.000 N 
ATOM      4  H   UNL     1       3.860   7.297  19.981  0.00  0.00    +0.000 HD
ENDROOT
BRANCH   3   5
ATOM      5  C   UNL     1       2.090   8.202  19.389  0.00  0.00    +0.000 A 
ATOM      6  C   UNL     1       2.080   9.008  18.248  0.00  0.00    +0.000 A 
ATOM      7  C   UNL     1       1.177  10.067  18.138  0.00  0.00    +0.000 A 
ATOM      8  C   UNL     1       0.273  10.329  19.163  0.00  0.00    +0.000 A 
ATOM      9  C   UNL     1       0.311   9.558  20.327  0.00  0.00    +0.000 A 
ATOM     10  C   UNL     1       1.188   8.472  20.421  0.00  0.00    +0.000 A 
BRANCH   8  11
ATOM     11  O   UNL     1      -0.563  11.400  18.957  0.00  0.00    +0.000 OA
BRANCH  11  12
ATOM     12  C   UNL     1      -1.872  11.200  18.589  0.00  0.00    +0.000 A 
ATOM     13  C   UNL     1      -2.099  10.115  17.740  0.00  0.00    +0.000 A 
ATOM     14  C   UNL     1      -3.390   9.831  17.293  0.00  0.00    +0.000 A 
ATOM     15  C   UNL     1      -4.457  10.632  17.695  0.00  0.00    +0.000 A 
ATOM     16  C   UNL     1      -4.242  11.690  18.576  0.00  0.00    +0.000 A 
ATOM     17  C   UNL     1      -2.956  11.954  19.048  0.00  0.00    +0.000 A 
ENDBRANCH  11  12
ENDBRANCH   8  11
ENDBRANCH   3   5
BRANCH   1  18
ATOM     18  C   UNL     1       3.867   4.810  19.414  0.00  0.00    +0.000 C 
BRANCH  18  22
ATOM     19  C   UNL     1       3.753   1.119  18.465  0.00  0.00    +0.000 C 
ATOM     20  C   UNL     1       4.001   2.328  19.327  0.00  0.00    +0.000 C 
ATOM     21  O   UNL     1       4.351   2.245  20.496  0.00  0.00    +0.000 OA
ATOM     22  N   UNL     1       3.704   3.525  18.715  0.00  0.00    +0.000 N 
ATOM     23  H   UNL     1       3.268   3.523  17.799  0.00  0.00    +0.000 HD
ENDBRANCH  18  22
BRANCH  18  24
ATOM     24  C   UNL     1       5.313   5.309  19.228  0.00  0.00    +0.000 C 
BRANCH  24  25
ATOM     25  C   UNL     1       5.593   5.919  17.854  0.00  0.00    +0.000 C 
BRANCH  25  26
ATOM     26  S   UNL     1       6.912   5.074  17.005  0.00  0.00    +0.000 S 
ATOM     27  C   UNL     1       6.038   3.892  16.005  0.00  0.00    +0.000 C 
ATOM     28  O   UNL     1       7.561   6.021  16.120  0.00  0.00    +0.000 OA
ATOM     29  O   UNL     1       7.679   4.338  17.996  0.00  0.00    +0.000 OA
ENDBRANCH  25  26
ENDBRANCH  24  25
ENDBRANCH  18  24
ENDBRANCH   1  18
TORSDOF 8
ENDMDL
MODEL 8
REMARK VINA RESULT:      -7.3      1.897      3.754
REMARK  Name = 
REMARK  10 active torsions:
REMARK  status: ('A' for Active; 'I' for Inactive)
REMARK    1  A    between atoms: C_1  and  C_2
REMARK    2  A    between atoms: N_4  and  C_5
REMARK    3  A    between atoms: C_5  and  C_6
REMARK    4  A    between atoms: C_5  and  C_12
REMARK    5  A    between atoms: C_6  and  C_7
REMARK    6  A    between atoms: C_7  and  S_8
REMARK    7  A    between atoms: S_8  and  C_9
REMARK    8  A    between atoms: N_14  and  C_15
REMARK    9  A    between atoms: C_18  and  O_19
REMARK   10  A    between atoms: O_19  and  C_20
REMARK                            x       y       z     vdW  Elec       q    Type
REMARK                         _______ _______ _______ _____ _____    ______ ____
ROOT
ATOM      1  C   UNL     1       3.468   5.712  19.564  0.00  0.00    +0.000 C 
ATOM      2  O   UNL     1       2.679   5.395  20.452  0.00  0.00    +0.000 OA
ATOM      3  N   UNL     1       3.344   6.828  18.762  0.00  0.00    +0.000 N 
ATOM      4  H   UNL     1       3.864   6.803  17.895  0.00  0.00    +0.000 HD
ENDROOT
BRANCH   3   5
ATOM      5  C   UNL     1       2.387   7.849  18.908  0.00  0.00    +0.000 A 
ATOM      6  C   UNL     1       1.699   8.081  20.101  0.00  0.00    +0.000 A 
ATOM      7  C   UNL     1       0.772   9.121  20.192  0.00  0.00    +0.000 A 
ATOM      8  C   UNL     1       0.528   9.944  19.096  0.00  0.00    +0.000 A 
ATOM      9  C   UNL     1       1.177   9.686  17.886  0.00  0.00    +0.000 A 
ATOM     10  C   UNL     1       2.134   8.669  17.805  0.00  0.00    +0.000 A 
BRANCH   8  11
ATOM     11  O   UNL     1      -0.409  10.929  19.291  0.00  0.00    +0.000 OA
BRANCH  11  12
ATOM     12  C   UNL     1      -1.646  10.840  18.700  0.00  0.00    +0.000 A 
ATOM     13  C   UNL     1      -2.570  11.814  19.088  0.00  0.00    +0.000 A 
ATOM     14  C   UNL     1      -3.861  11.806  18.560  0.00  0.00    +0.000 A 
ATOM     15  C   UNL     1      -4.232  10.825  17.643  0.00  0.00    +0.000 A 
ATOM     16  C   UNL     1      -3.302   9.878  17.220  0.00  0.00    +0.000 A 
ATOM     17  C   UNL     1      -2.001   9.904  17.724  0.00  0.00    +0.000 A 
ENDBRANCH  11  12
ENDBRANCH   8  11
ENDBRANCH   3   5
BRANCH   1  18
ATOM     18  C   UNL     1       4.704   4.821  19.262  0.00  0.00    +0.000 C 
BRANCH  18  22
ATOM     19  C   UNL     1       3.691   1.284  18.261  0.00  0.00    +0.000 C 
ATOM     20  C   UNL     1       4.049   2.423  19.177  0.00  0.00    +0.000 C 
ATOM     21  O   UNL     1       3.990   2.332  20.396  0.00  0.00    +0.000 OA
ATOM     22  N   UNL     1       4.349   3.597  18.524  0.00  0.00    +0.000 N 
ATOM     23  H   UNL     1       4.228   3.655  17.519  0.00  0.00    +0.000 HD
ENDBRANCH  18  22
BRANCH  18  24
ATOM     24  C   UNL     1       5.775   5.597  18.472  0.00  0.00    +0.000 C 
BRANCH  24  25
ATOM     25  C   UNL     1       6.753   4.707  17.703  0.00  0.00    +0.000 C 
BRANCH  25  26
ATOM     26  S   UNL     1       6.483   4.782  15.943  0.00  0.00    +0.000 S 
ATOM     27  C   UNL     1       5.263   6.068  15.792  0.00  0.00    +0.000 C 
ATOM     28  O   UNL     1       7.704   5.243  15.317  0.00  0.00    +0.000 OA
ATOM     29  O   UNL     1       5.864   3.533  15.534  0.00  0.00    +0.000 OA
ENDBRANCH  25  26
ENDBRANCH  24  25
ENDBRANCH  18  24
ENDBRANCH   1  18
TORSDOF 8
ENDMDL
MODEL 9
REMARK VINA RESULT:      -7.3      1.851      3.869
REMARK  Name = 
REMARK  10 active torsions:
REMARK  status: ('A' for Active; 'I' for Inactive)
REMARK    1  A    between atoms: C_1  and  C_2
REMARK    2  A    between atoms: N_4  and  C_5
REMARK    3  A    between atoms: C_5  and  C_6
REMARK    4  A    between atoms: C_5  and  C_12
REMARK    5  A    between atoms: C_6  and  C_7
REMARK    6  A    between atoms: C_7  and  S_8
REMARK    7  A    between atoms: S_8  and  C_9
REMARK    8  A    between atoms: N_14  and  C_15
REMARK    9  A    between atoms: C_18  and  O_19
REMARK   10  A    between atoms: O_19  and  C_20
REMARK                            x       y       z     vdW  Elec       q    Type
REMARK                         _______ _______ _______ _____ _____    ______ ____
ROOT
ATOM      1  C   UNL     1       3.126   5.896  18.903  0.00  0.00    +0.000 C 
ATOM      2  O   UNL     1       2.613   5.772  17.792  0.00  0.00    +0.000 OA
ATOM      3  N   UNL     1       2.956   6.986  19.731  0.00  0.00    +0.000 N 
ATOM      4  H   UNL     1       3.658   7.103  20.450  0.00  0.00    +0.000 HD
ENDROOT
BRANCH   3   5
ATOM      5  C   UNL     1       2.078   8.064  19.511  0.00  0.00    +0.000 A 
ATOM      6  C   UNL     1       1.200   8.540  20.487  0.00  0.00    +0.000 A 
ATOM      7  C   UNL     1       0.363   9.625  20.218  0.00  0.00    +0.000 A 
ATOM      8  C   UNL     1       0.399  10.248  18.973  0.00  0.00    +0.000 A 
ATOM      9  C   UNL     1       1.239   9.745  17.977  0.00  0.00    +0.000 A 
ATOM     10  C   UNL     1       2.106   8.684  18.259  0.00  0.00    +0.000 A 
BRANCH   8  11
ATOM     11  O   UNL     1      -0.472  11.298  18.811  0.00  0.00    +0.000 OA
BRANCH  11  12
ATOM     12  C   UNL     1      -1.749  11.078  18.353  0.00  0.00    +0.000 A 
ATOM     13  C   UNL     1      -2.744  11.855  18.953  0.00  0.00    +0.000 A 
ATOM     14  C   UNL     1      -4.078  11.701  18.573  0.00  0.00    +0.000 A 
ATOM     15  C   UNL     1      -4.420  10.771  17.594  0.00  0.00    +0.000 A 
ATOM     16  C   UNL     1      -3.426  10.025  16.963  0.00  0.00    +0.000 A 
ATOM     17  C   UNL     1      -2.089  10.202  17.320  0.00  0.00    +0.000 A 
ENDBRANCH  11  12
ENDBRANCH   8  11
ENDBRANCH   3   5
BRANCH   1  18
ATOM     18  C   UNL     1       4.056   4.785  19.462  0.00  0.00    +0.000 C 
BRANCH  18  22
ATOM     19  C   UNL     1       1.789   2.261  21.202  0.00  0.00    +0.000 C 
ATOM     20  C   UNL     1       2.477   3.577  20.957  0.00  0.00    +0.000 C 
ATOM     21  O   UNL     1       2.241   4.579  21.619  0.00  0.00    +0.000 OA
ATOM     22  N   UNL     1       3.314   3.578  19.864  0.00  0.00    +0.000 N 
ATOM     23  H   UNL     1       3.348   2.765  19.259  0.00  0.00    +0.000 HD
ENDBRANCH  18  22
BRANCH  18  24
ATOM     24  C   UNL     1       5.142   4.396  18.440  0.00  0.00    +0.000 C 
BRANCH  24  25
ATOM     25  C   UNL     1       6.030   5.560  17.997  0.00  0.00    +0.000 C 
BRANCH  25  26
ATOM     26  S   UNL     1       6.113   5.700  16.223  0.00  0.00    +0.000 S 
ATOM     27  C   UNL     1       5.561   4.099  15.680  0.00  0.00    +0.000 C 
ATOM     28  O   UNL     1       5.136   6.682  15.799  0.00  0.00    +0.000 OA
ATOM     29  O   UNL     1       7.512   5.836  15.852  0.00  0.00    +0.000 OA
ENDBRANCH  25  26
ENDBRANCH  24  25
ENDBRANCH  18  24
ENDBRANCH   1  18
TORSDOF 8
ENDMDL
