MODEL 1
REMARK VINA RESULT:      -6.6      0.000      0.000
REMARK  Name = 
REMARK  4 active torsions:
REMARK  status: ('A' for Active; 'I' for Inactive)
REMARK    1  A    between atoms: C_2  and  C_3
REMARK    2  A    between atoms: C_5  and  N_6
REMARK    3  A    between atoms: C_9  and  S_10
REMARK    4  A    between atoms: S_10  and  C_11
REMARK                            x       y       z     vdW  Elec       q    Type
REMARK                         _______ _______ _______ _____ _____    ______ ____
ROOT
ATOM      1  C   UNL     1       6.515   5.425  18.105  0.00  0.00    +0.000 A 
ATOM      2  C   UNL     1       7.323   5.397  16.950  0.00  0.00    +0.000 A 
ATOM      3  C   UNL     1       6.768   5.423  15.669  0.00  0.00    +0.000 A 
ATOM      4  C   UNL     1       5.381   5.357  15.554  0.00  0.00    +0.000 A 
ATOM      5  C   UNL     1       4.562   5.416  16.689  0.00  0.00    +0.000 A 
ATOM      6  C   UNL     1       5.115   5.472  17.977  0.00  0.00    +0.000 A 
ENDROOT
BRANCH   3   7
ATOM      7  N   UNL     1       7.581   5.286  14.542  0.00  0.00    +0.000 N 
ATOM      8  H   UNL     1       8.349   5.950  14.492  0.00  0.00    +0.000 HD
ATOM      9  H   UNL     1       7.074   5.233  13.663  0.00  0.00    +0.000 HD
ENDBRANCH   3   7
BRANCH   1  11
ATOM     10  N   UNL     1       7.803   5.401  20.358  0.00  0.00    +0.000 NA
ATOM     11  C   UNL     1       7.188   5.395  19.376  0.00  0.00    +0.000 C 
ENDBRANCH   1  11
BRANCH   6  12
ATOM     12  S   UNL     1       3.988   5.729  19.353  0.00  0.00    +0.000 S 
BRANCH  12  13
ATOM     13  C   UNL     1       2.992   4.252  19.307  0.00  0.00    +0.000 A 
ATOM     14  C   UNL     1       3.600   3.031  19.000  0.00  0.00    +0.000 A 
ATOM     15  C   UNL     1       2.833   1.868  18.891  0.00  0.00    +0.000 A 
ATOM     16  C   UNL     1       1.459   1.914  19.118  0.00  0.00    +0.000 A 
ATOM     17  C   UNL     1       0.857   3.113  19.496  0.00  0.00    +0.000 A 
ATOM     18  C   UNL     1       1.623   4.280  19.599  0.00  0.00    +0.000 A 
ENDBRANCH  12  13
ENDBRANCH   6  12
TORSDOF 4
ENDMDL
MODEL 2
REMARK VINA RESULT:      -6.5      0.182      1.205
REMARK  Name = 
REMARK  4 active torsions:
REMARK  status: ('A' for Active; 'I' for Inactive)
REMARK    1  A    between atoms: C_2  and  C_3
REMARK    2  A    between atoms: C_5  and  N_6
REMARK    3  A    between atoms: C_9  and  S_10
REMARK    4  A    between atoms: S_10  and  C_11
REMARK                            x       y       z     vdW  Elec       q    Type
REMARK                         _______ _______ _______ _____ _____    ______ ____
ROOT
ATOM      1  C   UNL     1       6.460   5.447  18.057  0.00  0.00    +0.000 A 
ATOM      2  C   UNL     1       7.300   5.405  16.925  0.00  0.00    +0.000 A 
ATOM      3  C   UNL     1       6.784   5.464  15.629  0.00  0.00    +0.000 A 
ATOM      4  C   UNL     1       5.400   5.447  15.473  0.00  0.00    +0.000 A 
ATOM      5  C   UNL     1       4.550   5.519  16.585  0.00  0.00    +0.000 A 
ATOM      6  C   UNL     1       5.067   5.542  17.889  0.00  0.00    +0.000 A 
ENDROOT
BRANCH   3   7
ATOM      7  N   UNL     1       7.625   5.314  14.524  0.00  0.00    +0.000 N 
ATOM      8  H   UNL     1       7.503   6.019  13.802  0.00  0.00    +0.000 HD
ATOM      9  H   UNL     1       7.641   4.376  14.134  0.00  0.00    +0.000 HD
ENDBRANCH   3   7
BRANCH   1  11
ATOM     10  N   UNL     1       7.675   5.368  20.349  0.00  0.00    +0.000 NA
ATOM     11  C   UNL     1       7.095   5.379  19.346  0.00  0.00    +0.000 C 
ENDBRANCH   1  11
BRANCH   6  12
ATOM     12  S   UNL     1       3.909   5.819  19.235  0.00  0.00    +0.000 S 
BRANCH  12  13
ATOM     13  C   UNL     1       2.950   4.317  19.225  0.00  0.00    +0.000 A 
ATOM     14  C   UNL     1       1.660   4.330  19.763  0.00  0.00    +0.000 A 
ATOM     15  C   UNL     1       0.912   3.153  19.830  0.00  0.00    +0.000 A 
ATOM     16  C   UNL     1       1.436   1.962  19.332  0.00  0.00    +0.000 A 
ATOM     17  C   UNL     1       2.692   1.956  18.727  0.00  0.00    +0.000 A 
ATOM     18  C   UNL     1       3.446   3.133  18.665  0.00  0.00    +0.000 A 
ENDBRANCH  12  13
ENDBRANCH   6  12
TORSDOF 4
ENDMDL
MODEL 3
REMARK VINA RESULT:      -6.5      2.773      5.898
REMARK  Name = 
REMARK  4 active torsions:
REMARK  status: ('A' for Active; 'I' for Inactive)
REMARK    1  A    between atoms: C_2  and  C_3
REMARK    2  A    between atoms: C_5  and  N_6
REMARK    3  A    between atoms: C_9  and  S_10
REMARK    4  A    between atoms: S_10  and  C_11
REMARK                            x       y       z     vdW  Elec       q    Type
REMARK                         _______ _______ _______ _____ _____    ______ ____
ROOT
ATOM      1  C   UNL     1       2.892   5.147  19.212  0.00  0.00    +0.000 A 
ATOM      2  C   UNL     1       2.374   4.699  20.445  0.00  0.00    +0.000 A 
ATOM      3  C   UNL     1       2.571   3.389  20.887  0.00  0.00    +0.000 A 
ATOM      4  C   UNL     1       3.195   2.492  20.022  0.00  0.00    +0.000 A 
ATOM      5  C   UNL     1       3.742   2.926  18.808  0.00  0.00    +0.000 A 
ATOM      6  C   UNL     1       3.618   4.261  18.395  0.00  0.00    +0.000 A 
ENDROOT
BRANCH   3   7
ATOM      7  N   UNL     1       1.960   2.938  22.059  0.00  0.00    +0.000 N 
ATOM      8  H   UNL     1       2.606   2.702  22.808  0.00  0.00    +0.000 HD
ATOM      9  H   UNL     1       1.269   2.207  21.916  0.00  0.00    +0.000 HD
ENDBRANCH   3   7
BRANCH   1  11
ATOM     10  N   UNL     1       2.371   7.622  18.633  0.00  0.00    +0.000 NA
ATOM     11  C   UNL     1       2.632   6.515  18.851  0.00  0.00    +0.000 C 
ENDBRANCH   1  11
BRANCH   6  12
ATOM     12  S   UNL     1       4.508   4.757  16.916  0.00  0.00    +0.000 S 
BRANCH  12  13
ATOM     13  C   UNL     1       5.893   5.652  17.590  0.00  0.00    +0.000 A 
ATOM     14  C   UNL     1       6.223   6.900  17.053  0.00  0.00    +0.000 A 
ATOM     15  C   UNL     1       7.343   7.594  17.515  0.00  0.00    +0.000 A 
ATOM     16  C   UNL     1       8.124   7.058  18.539  0.00  0.00    +0.000 A 
ATOM     17  C   UNL     1       7.759   5.849  19.129  0.00  0.00    +0.000 A 
ATOM     18  C   UNL     1       6.640   5.151  18.663  0.00  0.00    +0.000 A 
ENDBRANCH  12  13
ENDBRANCH   6  12
TORSDOF 4
ENDMDL
MODEL 4
REMARK VINA RESULT:      -6.5      2.265      2.862
REMARK  Name = 
REMARK  4 active torsions:
REMARK  status: ('A' for Active; 'I' for Inactive)
REMARK    1  A    between atoms: C_2  and  C_3
REMARK    2  A    between atoms: C_5  and  N_6
REMARK    3  A    between atoms: C_9  and  S_10
REMARK    4  A    between atoms: S_10  and  C_11
REMARK                            x       y       z     vdW  Elec       q    Type
REMARK                         _______ _______ _______ _____ _____    ______ ____
ROOT
ATOM      1  C   UNL     1       4.186   5.890  17.569  0.00  0.00    +0.000 A 
ATOM      2  C   UNL     1       5.371   6.613  17.315  0.00  0.00    +0.000 A 
ATOM      3  C   UNL     1       6.446   6.038  16.635  0.00  0.00    +0.000 A 
ATOM      4  C   UNL     1       6.370   4.684  16.313  0.00  0.00    +0.000 A 
ATOM      5  C   UNL     1       5.190   3.959  16.529  0.00  0.00    +0.000 A 
ATOM      6  C   UNL     1       4.077   4.555  17.139  0.00  0.00    +0.000 A 
ENDROOT
BRANCH   3   7
ATOM      7  N   UNL     1       7.647   6.736  16.490  0.00  0.00    +0.000 N 
ATOM      8  H   UNL     1       8.113   6.592  15.598  0.00  0.00    +0.000 HD
ATOM      9  H   UNL     1       8.289   6.632  17.270  0.00  0.00    +0.000 HD
ENDBRANCH   3   7
BRANCH   1  11
ATOM     10  N   UNL     1       2.322   7.087  18.920  0.00  0.00    +0.000 NA
ATOM     11  C   UNL     1       3.139   6.577  18.277  0.00  0.00    +0.000 C 
ENDBRANCH   1  11
BRANCH   6  12
ATOM     12  S   UNL     1       2.558   3.599  17.206  0.00  0.00    +0.000 S 
BRANCH  12  13
ATOM     13  C   UNL     1       2.425   3.218  18.941  0.00  0.00    +0.000 A 
ATOM     14  C   UNL     1       1.213   3.447  19.598  0.00  0.00    +0.000 A 
ATOM     15  C   UNL     1       1.100   3.221  20.971  0.00  0.00    +0.000 A 
ATOM     16  C   UNL     1       2.190   2.736  21.692  0.00  0.00    +0.000 A 
ATOM     17  C   UNL     1       3.380   2.436  21.031  0.00  0.00    +0.000 A 
ATOM     18  C   UNL     1       3.496   2.667  19.656  0.00  0.00    +0.000 A 
ENDBRANCH  12  13
ENDBRANCH   6  12
TORSDOF 4
ENDMDL
MODEL 5
REMARK VINA RESULT:      -6.5      2.718      5.834
REMARK  Name = 
REMARK  4 active torsions:
REMARK  status: ('A' for Active; 'I' for Inactive)
REMARK    1  A    between atoms: C_2  and  C_3
REMARK    2  A    between atoms: C_5  and  N_6
REMARK    3  A    between atoms: C_9  and  S_10
REMARK    4  A    between atoms: S_10  and  C_11
REMARK                            x       y       z     vdW  Elec       q    Type
REMARK                         _______ _______ _______ _____ _____    ______ ____
ROOT
ATOM      1  C   UNL     1       3.012   5.093  19.099  0.00  0.00    +0.000 A 
ATOM      2  C   UNL     1       2.475   4.733  20.352  0.00  0.00    +0.000 A 
ATOM      3  C   UNL     1       2.657   3.455  20.885  0.00  0.00    +0.000 A 
ATOM      4  C   UNL     1       3.285   2.498  20.091  0.00  0.00    +0.000 A 
ATOM      5  C   UNL     1       3.851   2.845  18.857  0.00  0.00    +0.000 A 
ATOM      6  C   UNL     1       3.741   4.150  18.354  0.00  0.00    +0.000 A 
ENDROOT
BRANCH   3   7
ATOM      7  N   UNL     1       2.028   3.088  22.076  0.00  0.00    +0.000 N 
ATOM      8  H   UNL     1       2.339   2.201  22.462  0.00  0.00    +0.000 HD
ATOM      9  H   UNL     1       1.014   3.151  22.052  0.00  0.00    +0.000 HD
ENDBRANCH   3   7
BRANCH   1  11
ATOM     10  N   UNL     1       2.496   7.486  18.235  0.00  0.00    +0.000 NA
ATOM     11  C   UNL     1       2.766   6.436  18.643  0.00  0.00    +0.000 C 
ENDBRANCH   1  11
BRANCH   6  12
ATOM     12  S   UNL     1       4.654   4.539  16.856  0.00  0.00    +0.000 S 
BRANCH  12  13
ATOM     13  C   UNL     1       6.009   5.513  17.480  0.00  0.00    +0.000 A 
ATOM     14  C   UNL     1       6.784   5.008  18.529  0.00  0.00    +0.000 A 
ATOM     15  C   UNL     1       7.809   5.777  19.083  0.00  0.00    +0.000 A 
ATOM     16  C   UNL     1       8.087   7.044  18.572  0.00  0.00    +0.000 A 
ATOM     17  C   UNL     1       7.367   7.524  17.479  0.00  0.00    +0.000 A 
ATOM     18  C   UNL     1       6.336   6.757  16.927  0.00  0.00    +0.000 A 
ENDBRANCH  12  13
ENDBRANCH   6  12
TORSDOF 4
ENDMDL
MODEL 6
REMARK VINA RESULT:      -6.5      1.971      2.765
REMARK  Name = 
REMARK  4 active torsions:
REMARK  status: ('A' for Active; 'I' for Inactive)
REMARK    1  A    between atoms: C_2  and  C_3
REMARK    2  A    between atoms: C_5  and  N_6
REMARK    3  A    between atoms: C_9  and  S_10
REMARK    4  A    between atoms: S_10  and  C_11
REMARK                            x       y       z     vdW  Elec       q    Type
REMARK                         _______ _______ _______ _____ _____    ______ ____
ROOT
ATOM      1  C   UNL     1       6.417   4.950  17.745  0.00  0.00    +0.000 A 
ATOM      2  C   UNL     1       7.211   5.297  16.631  0.00  0.00    +0.000 A 
ATOM      3  C   UNL     1       6.782   5.053  15.325  0.00  0.00    +0.000 A 
ATOM      4  C   UNL     1       5.595   4.346  15.145  0.00  0.00    +0.000 A 
ATOM      5  C   UNL     1       4.779   4.021  16.237  0.00  0.00    +0.000 A 
ATOM      6  C   UNL     1       5.168   4.336  17.548  0.00  0.00    +0.000 A 
ENDROOT
BRANCH   3   7
ATOM      7  N   UNL     1       7.628   5.307  14.243  0.00  0.00    +0.000 N 
ATOM      8  H   UNL     1       7.415   4.772  13.406  0.00  0.00    +0.000 HD
ATOM      9  H   UNL     1       8.618   5.271  14.468  0.00  0.00    +0.000 HD
ENDBRANCH   3   7
BRANCH   1  11
ATOM     10  N   UNL     1       7.461   5.501  20.056  0.00  0.00    +0.000 NA
ATOM     11  C   UNL     1       6.953   5.245  19.047  0.00  0.00    +0.000 C 
ENDBRANCH   1  11
BRANCH   6  12
ATOM     12  S   UNL     1       3.974   4.042  18.858  0.00  0.00    +0.000 S 
BRANCH  12  13
ATOM     13  C   UNL     1       3.166   5.624  18.996  0.00  0.00    +0.000 A 
ATOM     14  C   UNL     1       3.272   6.536  17.942  0.00  0.00    +0.000 A 
ATOM     15  C   UNL     1       2.706   7.808  18.050  0.00  0.00    +0.000 A 
ATOM     16  C   UNL     1       2.004   8.165  19.200  0.00  0.00    +0.000 A 
ATOM     17  C   UNL     1       1.831   7.236  20.224  0.00  0.00    +0.000 A 
ATOM     18  C   UNL     1       2.403   5.963  20.120  0.00  0.00    +0.000 A 
ENDBRANCH  12  13
ENDBRANCH   6  12
TORSDOF 4
ENDMDL
MODEL 7
REMARK VINA RESULT:      -6.5      2.043      2.950
REMARK  Name = 
REMARK  4 active torsions:
REMARK  status: ('A' for Active; 'I' for Inactive)
REMARK    1  A    between atoms: C_2  and  C_3
REMARK    2  A    between atoms: C_5  and  N_6
REMARK    3  A    between atoms: C_9  and  S_10
REMARK    4  A    between atoms: S_10  and  C_11
REMARK                            x       y       z     vdW  Elec       q    Type
REMARK                         _______ _______ _______ _____ _____    ______ ____
ROOT
ATOM      1  C   UNL     1       6.413   4.980  17.691  0.00  0.00    +0.000 A 
ATOM      2  C   UNL     1       7.238   5.283  16.588  0.00  0.00    +0.000 A 
ATOM      3  C   UNL     1       6.820   5.047  15.277  0.00  0.00    +0.000 A 
ATOM      4  C   UNL     1       5.606   4.391  15.084  0.00  0.00    +0.000 A 
ATOM      5  C   UNL     1       4.760   4.111  16.165  0.00  0.00    +0.000 A 
ATOM      6  C   UNL     1       5.141   4.420  17.479  0.00  0.00    +0.000 A 
ENDROOT
BRANCH   3   7
ATOM      7  N   UNL     1       7.693   5.254  14.207  0.00  0.00    +0.000 N 
ATOM      8  H   UNL     1       7.337   4.949  13.306  0.00  0.00    +0.000 HD
ATOM      9  H   UNL     1       8.640   4.922  14.368  0.00  0.00    +0.000 HD
ENDBRANCH   3   7
BRANCH   1  11
ATOM     10  N   UNL     1       7.445   5.473  20.021  0.00  0.00    +0.000 NA
ATOM     11  C   UNL     1       6.940   5.263  19.000  0.00  0.00    +0.000 C 
ENDBRANCH   1  11
BRANCH   6  12
ATOM     12  S   UNL     1       3.915   4.190  18.772  0.00  0.00    +0.000 S 
BRANCH  12  13
ATOM     13  C   UNL     1       3.189   5.811  18.899  0.00  0.00    +0.000 A 
ATOM     14  C   UNL     1       2.498   6.159  20.063  0.00  0.00    +0.000 A 
ATOM     15  C   UNL     1       1.861   7.398  20.163  0.00  0.00    +0.000 A 
ATOM     16  C   UNL     1       1.937   8.310  19.111  0.00  0.00    +0.000 A 
ATOM     17  C   UNL     1       2.685   8.000  17.977  0.00  0.00    +0.000 A 
ATOM     18  C   UNL     1       3.318   6.756  17.873  0.00  0.00    +0.000 A 
ENDBRANCH  12  13
ENDBRANCH   6  12
TORSDOF 4
ENDMDL
MODEL 8
REMARK VINA RESULT:      -6.5      2.291      2.639
REMARK  Name = 
REMARK  4 active torsions:
REMARK  status: ('A' for Active; 'I' for Inactive)
REMARK    1  A    between atoms: C_2  and  C_3
REMARK    2  A    between atoms: C_5  and  N_6
REMARK    3  A    between atoms: C_9  and  S_10
REMARK    4  A    between atoms: S_10  and  C_11
REMARK                            x       y       z     vdW  Elec       q    Type
REMARK                         _______ _______ _______ _____ _____    ______ ____
ROOT
ATOM      1  C   UNL     1       4.186   5.934  17.506  0.00  0.00    +0.000 A 
ATOM      2  C   UNL     1       5.368   6.663  17.259  0.00  0.00    +0.000 A 
ATOM      3  C   UNL     1       6.475   6.073  16.646  0.00  0.00    +0.000 A 
ATOM      4  C   UNL     1       6.430   4.705  16.387  0.00  0.00    +0.000 A 
ATOM      5  C   UNL     1       5.254   3.972  16.597  0.00  0.00    +0.000 A 
ATOM      6  C   UNL     1       4.111   4.579  17.139  0.00  0.00    +0.000 A 
ENDROOT
BRANCH   3   7
ATOM      7  N   UNL     1       7.670   6.783  16.508  0.00  0.00    +0.000 N 
ATOM      8  H   UNL     1       7.643   7.524  15.813  0.00  0.00    +0.000 HD
ATOM      9  H   UNL     1       8.494   6.199  16.401  0.00  0.00    +0.000 HD
ENDBRANCH   3   7
BRANCH   1  11
ATOM     10  N   UNL     1       2.294   7.262  18.687  0.00  0.00    +0.000 NA
ATOM     11  C   UNL     1       3.105   6.638  18.143  0.00  0.00    +0.000 C 
ENDBRANCH   1  11
BRANCH   6  12
ATOM     12  S   UNL     1       2.605   3.602  17.199  0.00  0.00    +0.000 S 
BRANCH  12  13
ATOM     13  C   UNL     1       2.417   3.302  18.945  0.00  0.00    +0.000 A 
ATOM     14  C   UNL     1       3.491   2.767  19.663  0.00  0.00    +0.000 A 
ATOM     15  C   UNL     1       3.350   2.459  21.018  0.00  0.00    +0.000 A 
ATOM     16  C   UNL     1       2.145   2.712  21.671  0.00  0.00    +0.000 A 
ATOM     17  C   UNL     1       1.095   3.314  20.980  0.00  0.00    +0.000 A 
ATOM     18  C   UNL     1       1.232   3.617  19.621  0.00  0.00    +0.000 A 
ENDBRANCH  12  13
ENDBRANCH   6  12
TORSDOF 4
ENDMDL
MODEL 9
REMARK VINA RESULT:      -6.4      1.567      1.781
REMARK  Name = 
REMARK  4 active torsions:
REMARK  status: ('A' for Active; 'I' for Inactive)
REMARK    1  A    between atoms: C_2  and  C_3
REMARK    2  A    between atoms: C_5  and  N_6
REMARK    3  A    between atoms: C_9  and  S_10
REMARK    4  A    between atoms: S_10  and  C_11
REMARK                            x       y       z     vdW  Elec       q    Type
REMARK                         _______ _______ _______ _____ _____    ______ ____
ROOT
ATOM      1  C   UNL     1       5.232   4.839  17.919  0.00  0.00    +0.000 A 
ATOM      2  C   UNL     1       6.246   4.619  16.964  0.00  0.00    +0.000 A 
ATOM      3  C   UNL     1       6.410   5.465  15.865  0.00  0.00    +0.000 A 
ATOM      4  C   UNL     1       5.467   6.472  15.666  0.00  0.00    +0.000 A 
ATOM      5  C   UNL     1       4.472   6.724  16.620  0.00  0.00    +0.000 A 
ATOM      6  C   UNL     1       4.353   5.926  17.768  0.00  0.00    +0.000 A 
ENDROOT
BRANCH   3   7
ATOM      7  N   UNL     1       7.351   5.168  14.877  0.00  0.00    +0.000 N 
ATOM      8  H   UNL     1       7.606   4.185  14.818  0.00  0.00    +0.000 HD
ATOM      9  H   UNL     1       8.171   5.767  14.886  0.00  0.00    +0.000 HD
ENDBRANCH   3   7
BRANCH   1  11
ATOM     10  N   UNL     1       5.152   3.113  19.856  0.00  0.00    +0.000 NA
ATOM     11  C   UNL     1       5.151   3.907  19.013  0.00  0.00    +0.000 C 
ENDBRANCH   1  11
BRANCH   6  12
ATOM     12  S   UNL     1       3.166   6.440  19.014  0.00  0.00    +0.000 S 
BRANCH  12  13
ATOM     13  C   UNL     1       2.176   4.974  19.223  0.00  0.00    +0.000 A 
ATOM     14  C   UNL     1       1.826   4.566  20.513  0.00  0.00    +0.000 A 
ATOM     15  C   UNL     1       1.108   3.385  20.710  0.00  0.00    +0.000 A 
ATOM     16  C   UNL     1       0.709   2.619  19.616  0.00  0.00    +0.000 A 
ATOM     17  C   UNL     1       0.989   3.057  18.323  0.00  0.00    +0.000 A 
ATOM     18  C   UNL     1       1.714   4.237  18.125  0.00  0.00    +0.000 A 
ENDBRANCH  12  13
ENDBRANCH   6  12
TORSDOF 4
ENDMDL
