MODEL 1
REMARK VINA RESULT:      -7.4      0.000      0.000
REMARK  Name = 
REMARK  6 active torsions:
REMARK  status: ('A' for Active; 'I' for Inactive)
REMARK    1  A    between atoms: C_1  and  C_2
REMARK    2  A    between atoms: C_2  and  C_3
REMARK    3  A    between atoms: C_2  and  C_4
REMARK    4  A    between atoms: C_2  and  N_7
REMARK    5  A    between atoms: C_4  and  O_6
REMARK    6  A    between atoms: C_13  and  N_14
REMARK                            x       y       z     vdW  Elec       q    Type
REMARK                         _______ _______ _______ _____ _____    ______ ____
ROOT
ATOM      1  N   UNL     1       2.941   4.180  19.294  0.00  0.00    +0.000 NA
ATOM      2  C   UNL     1       4.277   4.836  19.365  0.00  0.00    +0.000 C 
ATOM      3  C   UNL     1       5.376   4.318  18.419  0.00  0.00    +0.000 C 
ATOM      4  N   UNL     1       4.875   4.212  17.050  0.00  0.00    +0.000 N 
ATOM      5  C   UNL     1       5.763   4.454  16.024  0.00  0.00    +0.000 A 
ATOM      6  C   UNL     1       5.641   3.866  14.776  0.00  0.00    +0.000 A 
ATOM      7  C   UNL     1       6.519   4.232  13.771  0.00  0.00    +0.000 A 
ATOM      8  N   UNL     1       7.454   5.164  14.000  0.00  0.00    +0.000 NA
ATOM      9  C   UNL     1       7.527   5.666  15.235  0.00  0.00    +0.000 A 
ATOM     10  N   UNL     1       6.744   5.341  16.261  0.00  0.00    +0.000 NA
ATOM     11  C   UNL     1       3.554   3.631  16.834  0.00  0.00    +0.000 C 
ATOM     12  C   UNL     1       2.535   4.177  17.864  0.00  0.00    +0.000 C 
ENDROOT
BRANCH   7  13
ATOM     13  N   UNL     1       6.431   3.691  12.501  0.00  0.00    +0.000 N 
ATOM     14  C   UNL     1       5.199   3.102  11.982  0.00  0.00    +0.000 C 
ATOM     15  C   UNL     1       5.654   1.791  11.348  0.00  0.00    +0.000 C 
ATOM     16  C   UNL     1       7.062   2.100  10.872  0.00  0.00    +0.000 C 
ATOM     17  C   UNL     1       7.610   3.014  11.962  0.00  0.00    +0.000 C 
ENDBRANCH   7  13
BRANCH   1  19
ATOM     18  C   UNL     1       4.085   2.164  20.472  0.00  0.00    +0.000 C 
ATOM     19  C   UNL     1       2.798   2.874  20.030  0.00  0.00    +0.000 C 
ATOM     20  C   UNL     1       1.960   1.879  19.196  0.00  0.00    +0.000 C 
BRANCH  19  21
ATOM     21  C   UNL     1       1.926   3.118  21.307  0.00  0.00    +0.000 C 
ATOM     22  O   UNL     1       2.363   3.349  22.422  0.00  0.00    +0.000 OA
BRANCH  21  23
ATOM     23  O   UNL     1       0.601   2.995  21.050  0.00  0.00    +0.000 OA
ATOM     24  H   UNL     1       0.161   2.729  21.891  0.00  0.00    +0.000 HD
ENDBRANCH  21  23
ENDBRANCH  19  21
ENDBRANCH   1  19
TORSDOF 4
ENDMDL
MODEL 2
REMARK VINA RESULT:      -7.2      1.540      2.263
REMARK  Name = 
REMARK  6 active torsions:
REMARK  status: ('A' for Active; 'I' for Inactive)
REMARK    1  A    between atoms: C_1  and  C_2
REMARK    2  A    between atoms: C_2  and  C_3
REMARK    3  A    between atoms: C_2  and  C_4
REMARK    4  A    between atoms: C_2  and  N_7
REMARK    5  A    between atoms: C_4  and  O_6
REMARK    6  A    between atoms: C_13  and  N_14
REMARK                            x       y       z     vdW  Elec       q    Type
REMARK                         _______ _______ _______ _____ _____    ______ ____
ROOT
ATOM      1  N   UNL     1       2.041   4.459  19.522  0.00  0.00    +0.000 NA
ATOM      2  C   UNL     1       3.188   5.310  19.950  0.00  0.00    +0.000 C 
ATOM      3  C   UNL     1       4.574   4.985  19.366  0.00  0.00    +0.000 C 
ATOM      4  N   UNL     1       4.503   4.829  17.914  0.00  0.00    +0.000 N 
ATOM      5  C   UNL     1       5.596   5.223  17.175  0.00  0.00    +0.000 A 
ATOM      6  C   UNL     1       5.923   4.647  15.958  0.00  0.00    +0.000 A 
ATOM      7  C   UNL     1       6.983   5.162  15.232  0.00  0.00    +0.000 A 
ATOM      8  N   UNL     1       7.662   6.221  15.692  0.00  0.00    +0.000 NA
ATOM      9  C   UNL     1       7.305   6.705  16.884  0.00  0.00    +0.000 A 
ATOM     10  N   UNL     1       6.324   6.245  17.656  0.00  0.00    +0.000 NA
ATOM     11  C   UNL     1       3.400   4.056  17.350  0.00  0.00    +0.000 C 
ATOM     12  C   UNL     1       2.062   4.421  18.037  0.00  0.00    +0.000 C 
ENDROOT
BRANCH   7  13
ATOM     13  N   UNL     1       7.340   4.638  14.003  0.00  0.00    +0.000 N 
ATOM     14  C   UNL     1       8.132   5.387  13.030  0.00  0.00    +0.000 C 
ATOM     15  C   UNL     1       7.398   5.169  11.710  0.00  0.00    +0.000 C 
ATOM     16  C   UNL     1       6.791   3.787  11.868  0.00  0.00    +0.000 C 
ATOM     17  C   UNL     1       6.393   3.743  13.339  0.00  0.00    +0.000 C 
ENDBRANCH   7  13
BRANCH   1  19
ATOM     18  C   UNL     1       1.073   3.099  21.515  0.00  0.00    +0.000 C 
ATOM     19  C   UNL     1       1.897   3.133  20.221  0.00  0.00    +0.000 C 
ATOM     20  C   UNL     1       3.289   2.531  20.518  0.00  0.00    +0.000 C 
BRANCH  19  21
ATOM     21  C   UNL     1       1.255   2.113  19.220  0.00  0.00    +0.000 C 
ATOM     22  O   UNL     1       0.077   2.082  18.909  0.00  0.00    +0.000 OA
BRANCH  21  23
ATOM     23  O   UNL     1       2.159   1.214  18.760  0.00  0.00    +0.000 OA
ATOM     24  H   UNL     1       2.895   1.723  18.345  0.00  0.00    +0.000 HD
ENDBRANCH  21  23
ENDBRANCH  19  21
ENDBRANCH   1  19
TORSDOF 4
ENDMDL
MODEL 3
REMARK VINA RESULT:      -7.1      0.737      1.010
REMARK  Name = 
REMARK  6 active torsions:
REMARK  status: ('A' for Active; 'I' for Inactive)
REMARK    1  A    between atoms: C_1  and  C_2
REMARK    2  A    between atoms: C_2  and  C_3
REMARK    3  A    between atoms: C_2  and  C_4
REMARK    4  A    between atoms: C_2  and  N_7
REMARK    5  A    between atoms: C_4  and  O_6
REMARK    6  A    between atoms: C_13  and  N_14
REMARK                            x       y       z     vdW  Elec       q    Type
REMARK                         _______ _______ _______ _____ _____    ______ ____
ROOT
ATOM      1  N   UNL     1       2.403   4.312  19.300  0.00  0.00    +0.000 NA
ATOM      2  C   UNL     1       3.803   4.777  19.510  0.00  0.00    +0.000 C 
ATOM      3  C   UNL     1       4.895   4.183  18.602  0.00  0.00    +0.000 C 
ATOM      4  N   UNL     1       4.490   4.237  17.198  0.00  0.00    +0.000 N 
ATOM      5  C   UNL     1       5.477   4.428  16.256  0.00  0.00    +0.000 A 
ATOM      6  C   UNL     1       5.376   3.948  14.961  0.00  0.00    +0.000 A 
ATOM      7  C   UNL     1       6.367   4.261  14.047  0.00  0.00    +0.000 A 
ATOM      8  N   UNL     1       7.393   5.042  14.409  0.00  0.00    +0.000 NA
ATOM      9  C   UNL     1       7.436   5.445  15.681  0.00  0.00    +0.000 A 
ATOM     10  N   UNL     1       6.543   5.158  16.625  0.00  0.00    +0.000 NA
ATOM     11  C   UNL     1       3.125   3.853  16.851  0.00  0.00    +0.000 C 
ATOM     12  C   UNL     1       2.110   4.459  17.851  0.00  0.00    +0.000 C 
ENDROOT
BRANCH   7  13
ATOM     13  N   UNL     1       6.307   3.824  12.736  0.00  0.00    +0.000 N 
ATOM     14  C   UNL     1       5.100   3.235  12.159  0.00  0.00    +0.000 C 
ATOM     15  C   UNL     1       5.608   1.999  11.424  0.00  0.00    +0.000 C 
ATOM     16  C   UNL     1       7.006   2.396  10.988  0.00  0.00    +0.000 C 
ATOM     17  C   UNL     1       7.513   3.236  12.154  0.00  0.00    +0.000 C 
ENDBRANCH   7  13
BRANCH   1  19
ATOM     18  C   UNL     1       2.468   1.714  19.181  0.00  0.00    +0.000 C 
ATOM     19  C   UNL     1       2.039   2.989  19.922  0.00  0.00    +0.000 C 
ATOM     20  C   UNL     1       0.515   2.915  20.167  0.00  0.00    +0.000 C 
BRANCH  19  21
ATOM     21  C   UNL     1       2.652   2.933  21.362  0.00  0.00    +0.000 C 
ATOM     22  O   UNL     1       2.245   3.562  22.323  0.00  0.00    +0.000 OA
BRANCH  21  23
ATOM     23  O   UNL     1       3.741   2.127  21.419  0.00  0.00    +0.000 OA
ATOM     24  H   UNL     1       4.071   2.145  22.349  0.00  0.00    +0.000 HD
ENDBRANCH  21  23
ENDBRANCH  19  21
ENDBRANCH   1  19
TORSDOF 4
ENDMDL
MODEL 4
REMARK VINA RESULT:      -7.1      4.835      8.422
REMARK  Name = 
REMARK  6 active torsions:
REMARK  status: ('A' for Active; 'I' for Inactive)
REMARK    1  A    between atoms: C_1  and  C_2
REMARK    2  A    between atoms: C_2  and  C_3
REMARK    3  A    between atoms: C_2  and  C_4
REMARK    4  A    between atoms: C_2  and  N_7
REMARK    5  A    between atoms: C_4  and  O_6
REMARK    6  A    between atoms: C_13  and  N_14
REMARK                            x       y       z     vdW  Elec       q    Type
REMARK                         _______ _______ _______ _____ _____    ______ ____
ROOT
ATOM      1  N   UNL     1       3.995   4.037  18.697  0.00  0.00    +0.000 NA
ATOM      2  C   UNL     1       3.465   4.858  17.571  0.00  0.00    +0.000 C 
ATOM      3  C   UNL     1       2.247   5.755  17.855  0.00  0.00    +0.000 C 
ATOM      4  N   UNL     1       2.450   6.538  19.072  0.00  0.00    +0.000 N 
ATOM      5  C   UNL     1       1.896   7.798  19.121  0.00  0.00    +0.000 A 
ATOM      6  C   UNL     1       1.504   8.396  20.307  0.00  0.00    +0.000 A 
ATOM      7  C   UNL     1       1.042   9.701  20.283  0.00  0.00    +0.000 A 
ATOM      8  N   UNL     1       1.004  10.380  19.128  0.00  0.00    +0.000 NA
ATOM      9  C   UNL     1       1.374   9.728  18.024  0.00  0.00    +0.000 A 
ATOM     10  N   UNL     1       1.794   8.467  17.960  0.00  0.00    +0.000 NA
ATOM     11  C   UNL     1       3.009   5.871  20.244  0.00  0.00    +0.000 C 
ATOM     12  C   UNL     1       4.194   4.957  19.847  0.00  0.00    +0.000 C 
ENDROOT
BRANCH   7  13
ATOM     13  N   UNL     1       0.655  10.354  21.439  0.00  0.00    +0.000 N 
ATOM     14  C   UNL     1       0.320   9.639  22.669  0.00  0.00    +0.000 C 
ATOM     15  C   UNL     1      -0.973  10.299  23.139  0.00  0.00    +0.000 C 
ATOM     16  C   UNL     1      -0.838  11.728  22.649  0.00  0.00    +0.000 C 
ATOM     17  C   UNL     1      -0.137  11.576  21.304  0.00  0.00    +0.000 C 
ENDBRANCH   7  13
BRANCH   1  19
ATOM     18  C   UNL     1       2.372   2.175  17.881  0.00  0.00    +0.000 C 
ATOM     19  C   UNL     1       3.263   2.754  18.990  0.00  0.00    +0.000 C 
ATOM     20  C   UNL     1       2.406   2.906  20.267  0.00  0.00    +0.000 C 
BRANCH  19  21
ATOM     21  C   UNL     1       4.315   1.660  19.375  0.00  0.00    +0.000 C 
ATOM     22  O   UNL     1       5.048   1.703  20.348  0.00  0.00    +0.000 OA
BRANCH  21  23
ATOM     23  O   UNL     1       4.362   0.657  18.465  0.00  0.00    +0.000 OA
ATOM     24  H   UNL     1       4.197   1.056  17.578  0.00  0.00    +0.000 HD
ENDBRANCH  21  23
ENDBRANCH  19  21
ENDBRANCH   1  19
TORSDOF 4
ENDMDL
MODEL 5
REMARK VINA RESULT:      -7.1      1.088      1.502
REMARK  Name = 
REMARK  6 active torsions:
REMARK  status: ('A' for Active; 'I' for Inactive)
REMARK    1  A    between atoms: C_1  and  C_2
REMARK    2  A    between atoms: C_2  and  C_3
REMARK    3  A    between atoms: C_2  and  C_4
REMARK    4  A    between atoms: C_2  and  N_7
REMARK    5  A    between atoms: C_4  and  O_6
REMARK    6  A    between atoms: C_13  and  N_14
REMARK                            x       y       z     vdW  Elec       q    Type
REMARK                         _______ _______ _______ _____ _____    ______ ____
ROOT
ATOM      1  N   UNL     1       2.568   4.448  19.424  0.00  0.00    +0.000 NA
ATOM      2  C   UNL     1       3.953   4.978  19.572  0.00  0.00    +0.000 C 
ATOM      3  C   UNL     1       5.041   4.396  18.653  0.00  0.00    +0.000 C 
ATOM      4  N   UNL     1       4.592   4.380  17.262  0.00  0.00    +0.000 N 
ATOM      5  C   UNL     1       5.541   4.575  16.282  0.00  0.00    +0.000 A 
ATOM      6  C   UNL     1       5.421   4.042  15.010  0.00  0.00    +0.000 A 
ATOM      7  C   UNL     1       6.371   4.360  14.054  0.00  0.00    +0.000 A 
ATOM      8  N   UNL     1       7.374   5.196  14.355  0.00  0.00    +0.000 NA
ATOM      9  C   UNL     1       7.437   5.649  15.609  0.00  0.00    +0.000 A 
ATOM     10  N   UNL     1       6.586   5.362  16.590  0.00  0.00    +0.000 NA
ATOM     11  C   UNL     1       3.235   3.927  16.973  0.00  0.00    +0.000 C 
ATOM     12  C   UNL     1       2.225   4.529  17.980  0.00  0.00    +0.000 C 
ENDROOT
BRANCH   7  13
ATOM     13  N   UNL     1       6.290   3.872  12.762  0.00  0.00    +0.000 N 
ATOM     14  C   UNL     1       5.090   3.219  12.244  0.00  0.00    +0.000 C 
ATOM     15  C   UNL     1       5.622   1.974  11.540  0.00  0.00    +0.000 C 
ATOM     16  C   UNL     1       6.992   2.404  11.049  0.00  0.00    +0.000 C 
ATOM     17  C   UNL     1       7.500   3.306  12.168  0.00  0.00    +0.000 C 
ENDBRANCH   7  13
BRANCH   1  19
ATOM     18  C   UNL     1       1.476   3.178  21.414  0.00  0.00    +0.000 C 
ATOM     19  C   UNL     1       2.278   3.137  20.105  0.00  0.00    +0.000 C 
ATOM     20  C   UNL     1       3.593   2.369  20.369  0.00  0.00    +0.000 C 
BRANCH  19  21
ATOM     21  C   UNL     1       1.504   2.217  19.101  0.00  0.00    +0.000 C 
ATOM     22  O   UNL     1       0.317   2.306  18.840  0.00  0.00    +0.000 OA
BRANCH  21  23
ATOM     23  O   UNL     1       2.301   1.255  18.574  0.00  0.00    +0.000 OA
ATOM     24  H   UNL     1       1.785   0.415  18.570  0.00  0.00    +0.000 HD
ENDBRANCH  21  23
ENDBRANCH  19  21
ENDBRANCH   1  19
TORSDOF 4
ENDMDL
MODEL 6
REMARK VINA RESULT:      -7.0      1.454      2.209
REMARK  Name = 
REMARK  6 active torsions:
REMARK  status: ('A' for Active; 'I' for Inactive)
REMARK    1  A    between atoms: C_1  and  C_2
REMARK    2  A    between atoms: C_2  and  C_3
REMARK    3  A    between atoms: C_2  and  C_4
REMARK    4  A    between atoms: C_2  and  N_7
REMARK    5  A    between atoms: C_4  and  O_6
REMARK    6  A    between atoms: C_13  and  N_14
REMARK                            x       y       z     vdW  Elec       q    Type
REMARK                         _______ _______ _______ _____ _____    ______ ____
ROOT
ATOM      1  N   UNL     1       1.823   4.268  19.359  0.00  0.00    +0.000 NA
ATOM      2  C   UNL     1       2.992   5.041  19.865  0.00  0.00    +0.000 C 
ATOM      3  C   UNL     1       4.378   4.694  19.293  0.00  0.00    +0.000 C 
ATOM      4  N   UNL     1       4.336   4.629  17.833  0.00  0.00    +0.000 N 
ATOM      5  C   UNL     1       5.464   5.021  17.145  0.00  0.00    +0.000 A 
ATOM      6  C   UNL     1       5.796   4.507  15.903  0.00  0.00    +0.000 A 
ATOM      7  C   UNL     1       6.895   5.019  15.233  0.00  0.00    +0.000 A 
ATOM      8  N   UNL     1       7.605   6.019  15.773  0.00  0.00    +0.000 NA
ATOM      9  C   UNL     1       7.238   6.444  16.984  0.00  0.00    +0.000 A 
ATOM     10  N   UNL     1       6.220   5.980  17.704  0.00  0.00    +0.000 NA
ATOM     11  C   UNL     1       3.218   3.940  17.198  0.00  0.00    +0.000 C 
ATOM     12  C   UNL     1       1.878   4.319  17.875  0.00  0.00    +0.000 C 
ENDROOT
BRANCH   7  13
ATOM     13  N   UNL     1       7.261   4.556  13.983  0.00  0.00    +0.000 N 
ATOM     14  C   UNL     1       8.085   5.340  13.065  0.00  0.00    +0.000 C 
ATOM     15  C   UNL     1       7.369   5.212  11.724  0.00  0.00    +0.000 C 
ATOM     16  C   UNL     1       6.729   3.838  11.795  0.00  0.00    +0.000 C 
ATOM     17  C   UNL     1       6.305   3.721  13.255  0.00  0.00    +0.000 C 
ENDBRANCH   7  13
BRANCH   1  19
ATOM     18  C   UNL     1       0.707   1.923  19.212  0.00  0.00    +0.000 C 
ATOM     19  C   UNL     1       1.606   2.908  19.971  0.00  0.00    +0.000 C 
ATOM     20  C   UNL     1       1.060   3.050  21.410  0.00  0.00    +0.000 C 
BRANCH  19  21
ATOM     21  C   UNL     1       3.002   2.226  20.167  0.00  0.00    +0.000 C 
ATOM     22  O   UNL     1       3.627   1.644  19.298  0.00  0.00    +0.000 OA
BRANCH  21  23
ATOM     23  O   UNL     1       3.434   2.310  21.450  0.00  0.00    +0.000 OA
ATOM     24  H   UNL     1       3.322   1.419  21.857  0.00  0.00    +0.000 HD
ENDBRANCH  21  23
ENDBRANCH  19  21
ENDBRANCH   1  19
TORSDOF 4
ENDMDL
MODEL 7
REMARK VINA RESULT:      -6.8      1.263      1.816
REMARK  Name = 
REMARK  6 active torsions:
REMARK  status: ('A' for Active; 'I' for Inactive)
REMARK    1  A    between atoms: C_1  and  C_2
REMARK    2  A    between atoms: C_2  and  C_3
REMARK    3  A    between atoms: C_2  and  C_4
REMARK    4  A    between atoms: C_2  and  N_7
REMARK    5  A    between atoms: C_4  and  O_6
REMARK    6  A    between atoms: C_13  and  N_14
REMARK                            x       y       z     vdW  Elec       q    Type
REMARK                         _______ _______ _______ _____ _____    ______ ____
ROOT
ATOM      1  N   UNL     1       1.965   3.982  19.226  0.00  0.00    +0.000 NA
ATOM      2  C   UNL     1       3.101   4.774  19.776  0.00  0.00    +0.000 C 
ATOM      3  C   UNL     1       4.503   4.502  19.202  0.00  0.00    +0.000 C 
ATOM      4  N   UNL     1       4.475   4.501  17.741  0.00  0.00    +0.000 N 
ATOM      5  C   UNL     1       5.593   4.963  17.080  0.00  0.00    +0.000 A 
ATOM      6  C   UNL     1       5.953   4.517  15.820  0.00  0.00    +0.000 A 
ATOM      7  C   UNL     1       7.037   5.099  15.184  0.00  0.00    +0.000 A 
ATOM      8  N   UNL     1       7.706   6.098  15.774  0.00  0.00    +0.000 NA
ATOM      9  C   UNL     1       7.316   6.456  16.999  0.00  0.00    +0.000 A 
ATOM     10  N   UNL     1       6.309   5.923  17.689  0.00  0.00    +0.000 NA
ATOM     11  C   UNL     1       3.387   3.801  17.065  0.00  0.00    +0.000 C 
ATOM     12  C   UNL     1       2.030   4.101  17.746  0.00  0.00    +0.000 C 
ENDROOT
BRANCH   7  13
ATOM     13  N   UNL     1       7.430   4.705  13.918  0.00  0.00    +0.000 N 
ATOM     14  C   UNL     1       8.180   5.581  13.020  0.00  0.00    +0.000 C 
ATOM     15  C   UNL     1       7.466   5.436  11.680  0.00  0.00    +0.000 C 
ATOM     16  C   UNL     1       6.940   4.013  11.712  0.00  0.00    +0.000 C 
ATOM     17  C   UNL     1       6.539   3.818  13.170  0.00  0.00    +0.000 C 
ENDBRANCH   7  13
BRANCH   1  19
ATOM     18  C   UNL     1       2.760   1.506  19.276  0.00  0.00    +0.000 C 
ATOM     19  C   UNL     1       1.794   2.590  19.776  0.00  0.00    +0.000 C 
ATOM     20  C   UNL     1       0.349   2.095  19.539  0.00  0.00    +0.000 C 
BRANCH  19  21
ATOM     21  C   UNL     1       1.916   2.654  21.336  0.00  0.00    +0.000 C 
ATOM     22  O   UNL     1       2.945   2.485  21.967  0.00  0.00    +0.000 OA
BRANCH  21  23
ATOM     23  O   UNL     1       0.719   2.877  21.931  0.00  0.00    +0.000 OA
ATOM     24  H   UNL     1       0.823   2.667  22.889  0.00  0.00    +0.000 HD
ENDBRANCH  21  23
ENDBRANCH  19  21
ENDBRANCH   1  19
TORSDOF 4
ENDMDL
MODEL 8
REMARK VINA RESULT:      -6.7      1.092      1.564
REMARK  Name = 
REMARK  6 active torsions:
REMARK  status: ('A' for Active; 'I' for Inactive)
REMARK    1  A    between atoms: C_1  and  C_2
REMARK    2  A    between atoms: C_2  and  C_3
REMARK    3  A    between atoms: C_2  and  C_4
REMARK    4  A    between atoms: C_2  and  N_7
REMARK    5  A    between atoms: C_4  and  O_6
REMARK    6  A    between atoms: C_13  and  N_14
REMARK                            x       y       z     vdW  Elec       q    Type
REMARK                         _______ _______ _______ _____ _____    ______ ____
ROOT
ATOM      1  N   UNL     1       2.489   4.468  19.380  0.00  0.00    +0.000 NA
ATOM      2  C   UNL     1       3.884   4.962  19.555  0.00  0.00    +0.000 C 
ATOM      3  C   UNL     1       4.972   4.360  18.648  0.00  0.00    +0.000 C 
ATOM      4  N   UNL     1       4.546   4.366  17.250  0.00  0.00    +0.000 N 
ATOM      5  C   UNL     1       5.515   4.544  16.287  0.00  0.00    +0.000 A 
ATOM      6  C   UNL     1       5.403   4.024  15.009  0.00  0.00    +0.000 A 
ATOM      7  C   UNL     1       6.375   4.326  14.071  0.00  0.00    +0.000 A 
ATOM      8  N   UNL     1       7.393   5.134  14.394  0.00  0.00    +0.000 NA
ATOM      9  C   UNL     1       7.447   5.576  15.652  0.00  0.00    +0.000 A 
ATOM     10  N   UNL     1       6.573   5.303  16.618  0.00  0.00    +0.000 NA
ATOM     11  C   UNL     1       3.183   3.949  16.936  0.00  0.00    +0.000 C 
ATOM     12  C   UNL     1       2.172   4.568  17.932  0.00  0.00    +0.000 C 
ENDROOT
BRANCH   7  13
ATOM     13  N   UNL     1       6.303   3.849  12.774  0.00  0.00    +0.000 N 
ATOM     14  C   UNL     1       5.096   3.230  12.232  0.00  0.00    +0.000 C 
ATOM     15  C   UNL     1       5.608   1.978  11.527  0.00  0.00    +0.000 C 
ATOM     16  C   UNL     1       6.996   2.378  11.061  0.00  0.00    +0.000 C 
ATOM     17  C   UNL     1       7.508   3.258  12.194  0.00  0.00    +0.000 C 
ENDBRANCH   7  13
BRANCH   1  19
ATOM     18  C   UNL     1       0.966   2.363  19.493  0.00  0.00    +0.000 C 
ATOM     19  C   UNL     1       2.156   3.159  20.046  0.00  0.00    +0.000 C 
ATOM     20  C   UNL     1       1.933   3.370  21.560  0.00  0.00    +0.000 C 
BRANCH  19  21
ATOM     21  C   UNL     1       3.419   2.235  19.980  0.00  0.00    +0.000 C 
ATOM     22  O   UNL     1       3.736   1.545  19.026  0.00  0.00    +0.000 OA
BRANCH  21  23
ATOM     23  O   UNL     1       4.118   2.244  21.142  0.00  0.00    +0.000 OA
ATOM     24  H   UNL     1       5.066   2.391  20.914  0.00  0.00    +0.000 HD
ENDBRANCH  21  23
ENDBRANCH  19  21
ENDBRANCH   1  19
TORSDOF 4
ENDMDL
MODEL 9
REMARK VINA RESULT:      -6.7      5.117      8.047
REMARK  Name = 
REMARK  6 active torsions:
REMARK  status: ('A' for Active; 'I' for Inactive)
REMARK    1  A    between atoms: C_1  and  C_2
REMARK    2  A    between atoms: C_2  and  C_3
REMARK    3  A    between atoms: C_2  and  C_4
REMARK    4  A    between atoms: C_2  and  N_7
REMARK    5  A    between atoms: C_4  and  O_6
REMARK    6  A    between atoms: C_13  and  N_14
REMARK                            x       y       z     vdW  Elec       q    Type
REMARK                         _______ _______ _______ _____ _____    ______ ____
ROOT
ATOM      1  N   UNL     1       2.669   3.945  18.863  0.00  0.00    +0.000 NA
ATOM      2  C   UNL     1       2.262   4.381  20.228  0.00  0.00    +0.000 C 
ATOM      3  C   UNL     1       2.548   5.840  20.626  0.00  0.00    +0.000 C 
ATOM      4  N   UNL     1       2.096   6.761  19.585  0.00  0.00    +0.000 N 
ATOM      5  C   UNL     1       1.624   7.992  19.983  0.00  0.00    +0.000 A 
ATOM      6  C   UNL     1       1.709   9.119  19.182  0.00  0.00    +0.000 A 
ATOM      7  C   UNL     1       1.127  10.299  19.616  0.00  0.00    +0.000 A 
ATOM      8  N   UNL     1       0.469  10.335  20.781  0.00  0.00    +0.000 NA
ATOM      9  C   UNL     1       0.451   9.216  21.509  0.00  0.00    +0.000 A 
ATOM     10  N   UNL     1       1.015   8.057  21.179  0.00  0.00    +0.000 NA
ATOM     11  C   UNL     1       2.385   6.434  18.192  0.00  0.00    +0.000 C 
ATOM     12  C   UNL     1       2.112   4.937  17.907  0.00  0.00    +0.000 C 
ENDROOT
BRANCH   7  13
ATOM     13  N   UNL     1       1.166  11.449  18.848  0.00  0.00    +0.000 N 
ATOM     14  C   UNL     1       2.335  11.826  18.056  0.00  0.00    +0.000 C 
ATOM     15  C   UNL     1       2.528  13.307  18.365  0.00  0.00    +0.000 C 
ATOM     16  C   UNL     1       1.118  13.801  18.626  0.00  0.00    +0.000 C 
ATOM     17  C   UNL     1       0.462  12.629  19.348  0.00  0.00    +0.000 C 
ENDBRANCH   7  13
BRANCH   1  19
ATOM     18  C   UNL     1       5.167   4.551  19.261  0.00  0.00    +0.000 C 
ATOM     19  C   UNL     1       4.121   3.588  18.681  0.00  0.00    +0.000 C 
ATOM     20  C   UNL     1       4.437   3.377  17.183  0.00  0.00    +0.000 C 
BRANCH  19  21
ATOM     21  C   UNL     1       4.368   2.178  19.317  0.00  0.00    +0.000 C 
ATOM     22  O   UNL     1       4.934   1.976  20.377  0.00  0.00    +0.000 OA
BRANCH  21  23
ATOM     23  O   UNL     1       3.917   1.176  18.523  0.00  0.00    +0.000 OA
ATOM     24  H   UNL     1       3.269   1.570  17.892  0.00  0.00    +0.000 HD
ENDBRANCH  21  23
ENDBRANCH  19  21
ENDBRANCH   1  19
TORSDOF 4
ENDMDL
