MODEL 1
REMARK VINA RESULT:      -7.1      0.000      0.000
REMARK  Name = 
REMARK  5 active torsions:
REMARK  status: ('A' for Active; 'I' for Inactive)
REMARK    1  A    between atoms: C_2  and  O_3
REMARK    2  A    between atoms: C_2  and  C_4
REMARK    3  A    between atoms: C_4  and  C_5
REMARK    4  A    between atoms: C_5  and  C_6
REMARK    5  A    between atoms: C_8  and  O_9
REMARK                            x       y       z     vdW  Elec       q    Type
REMARK                         _______ _______ _______ _____ _____    ______ ____
ROOT
ATOM      1  C   UNL     1       5.384   4.905  18.944  0.00  0.00    +0.000 A 
ATOM      2  N   UNL     1       5.656   3.610  19.170  0.00  0.00    +0.000 NA
ATOM      3  C   UNL     1       4.640   2.897  19.669  0.00  0.00    +0.000 A 
ATOM      4  C   UNL     1       3.380   3.385  19.980  0.00  0.00    +0.000 A 
ATOM      5  C   UNL     1       2.335   2.630  20.561  0.00  0.00    +0.000 A 
ATOM      6  C   UNL     1       1.118   3.235  20.862  0.00  0.00    +0.000 A 
ATOM      7  C   UNL     1       0.937   4.581  20.563  0.00  0.00    +0.000 A 
ATOM      8  C   UNL     1       1.974   5.312  19.972  0.00  0.00    +0.000 A 
ATOM      9  C   UNL     1       3.208   4.738  19.687  0.00  0.00    +0.000 A 
ATOM     10  N   UNL     1       4.191   5.491  19.170  0.00  0.00    +0.000 NA
ENDROOT
BRANCH   3  11
ATOM     11  O   UNL     1       4.959   1.591  19.887  0.00  0.00    +0.000 OA
ATOM     12  H   UNL     1       5.369   1.656  20.768  0.00  0.00    +0.000 HD
ENDBRANCH   3  11
BRANCH   1  13
ATOM     13  C   UNL     1       6.505   5.788  18.464  0.00  0.00    +0.000 C 
BRANCH  13  14
ATOM     14  C   UNL     1       7.548   4.971  17.705  0.00  0.00    +0.000 C 
BRANCH  14  16
ATOM     15  O   UNL     1       7.451   5.527  15.348  0.00  0.00    +0.000 OA
ATOM     16  C   UNL     1       7.157   4.774  16.266  0.00  0.00    +0.000 C 
BRANCH  16  17
ATOM     17  O   UNL     1       6.423   3.653  16.074  0.00  0.00    +0.000 OA
ATOM     18  H   UNL     1       6.720   3.103  15.325  0.00  0.00    +0.000 HD
ENDBRANCH  16  17
ENDBRANCH  14  16
ENDBRANCH  13  14
ENDBRANCH   1  13
TORSDOF 5
ENDMDL
MODEL 2
REMARK VINA RESULT:      -7.0      2.215      2.839
REMARK  Name = 
REMARK  5 active torsions:
REMARK  status: ('A' for Active; 'I' for Inactive)
REMARK    1  A    between atoms: C_2  and  O_3
REMARK    2  A    between atoms: C_2  and  C_4
REMARK    3  A    between atoms: C_4  and  C_5
REMARK    4  A    between atoms: C_5  and  C_6
REMARK    5  A    between atoms: C_8  and  O_9
REMARK                            x       y       z     vdW  Elec       q    Type
REMARK                         _______ _______ _______ _____ _____    ______ ____
ROOT
ATOM      1  C   UNL     1       4.146   5.654  17.319  0.00  0.00    +0.000 A 
ATOM      2  N   UNL     1       3.792   6.492  18.306  0.00  0.00    +0.000 NA
ATOM      3  C   UNL     1       2.896   6.003  19.171  0.00  0.00    +0.000 A 
ATOM      4  C   UNL     1       2.310   4.748  19.112  0.00  0.00    +0.000 A 
ATOM      5  C   UNL     1       1.322   4.268  20.002  0.00  0.00    +0.000 A 
ATOM      6  C   UNL     1       0.779   2.998  19.825  0.00  0.00    +0.000 A 
ATOM      7  C   UNL     1       1.237   2.203  18.781  0.00  0.00    +0.000 A 
ATOM      8  C   UNL     1       2.228   2.685  17.917  0.00  0.00    +0.000 A 
ATOM      9  C   UNL     1       2.767   3.959  18.056  0.00  0.00    +0.000 A 
ATOM     10  N   UNL     1       3.676   4.398  17.172  0.00  0.00    +0.000 NA
ENDROOT
BRANCH   3  11
ATOM     11  O   UNL     1       2.563   6.886  20.153  0.00  0.00    +0.000 OA
ATOM     12  H   UNL     1       1.906   6.361  20.645  0.00  0.00    +0.000 HD
ENDBRANCH   3  11
BRANCH   1  13
ATOM     13  C   UNL     1       5.084   6.166  16.259  0.00  0.00    +0.000 C 
BRANCH  13  14
ATOM     14  C   UNL     1       5.597   5.018  15.392  0.00  0.00    +0.000 C 
BRANCH  14  16
ATOM     15  O   UNL     1       7.744   4.469  16.371  0.00  0.00    +0.000 OA
ATOM     16  C   UNL     1       7.097   4.919  15.436  0.00  0.00    +0.000 C 
BRANCH  16  17
ATOM     17  O   UNL     1       7.684   5.391  14.312  0.00  0.00    +0.000 OA
ATOM     18  H   UNL     1       7.426   4.921  13.497  0.00  0.00    +0.000 HD
ENDBRANCH  16  17
ENDBRANCH  14  16
ENDBRANCH  13  14
ENDBRANCH   1  13
TORSDOF 5
ENDMDL
MODEL 3
REMARK VINA RESULT:      -6.8      1.560      1.622
REMARK  Name = 
REMARK  5 active torsions:
REMARK  status: ('A' for Active; 'I' for Inactive)
REMARK    1  A    between atoms: C_2  and  O_3
REMARK    2  A    between atoms: C_2  and  C_4
REMARK    3  A    between atoms: C_4  and  C_5
REMARK    4  A    between atoms: C_5  and  C_6
REMARK    5  A    between atoms: C_8  and  O_9
REMARK                            x       y       z     vdW  Elec       q    Type
REMARK                         _______ _______ _______ _____ _____    ______ ____
ROOT
ATOM      1  C   UNL     1       4.252   4.776  17.100  0.00  0.00    +0.000 A 
ATOM      2  N   UNL     1       4.498   3.457  17.043  0.00  0.00    +0.000 NA
ATOM      3  C   UNL     1       3.791   2.713  17.901  0.00  0.00    +0.000 A 
ATOM      4  C   UNL     1       2.874   3.187  18.826  0.00  0.00    +0.000 A 
ATOM      5  C   UNL     1       2.177   2.391  19.764  0.00  0.00    +0.000 A 
ATOM      6  C   UNL     1       1.302   2.983  20.671  0.00  0.00    +0.000 A 
ATOM      7  C   UNL     1       1.104   4.358  20.624  0.00  0.00    +0.000 A 
ATOM      8  C   UNL     1       1.788   5.132  19.679  0.00  0.00    +0.000 A 
ATOM      9  C   UNL     1       2.688   4.569  18.781  0.00  0.00    +0.000 A 
ATOM     10  N   UNL     1       3.360   5.357  17.928  0.00  0.00    +0.000 NA
ENDROOT
BRANCH   3  11
ATOM     11  O   UNL     1       4.073   1.383  17.813  0.00  0.00    +0.000 OA
ATOM     12  H   UNL     1       4.100   1.147  18.757  0.00  0.00    +0.000 HD
ENDBRANCH   3  11
BRANCH   1  13
ATOM     13  C   UNL     1       5.073   5.685  16.225  0.00  0.00    +0.000 C 
BRANCH  13  14
ATOM     14  C   UNL     1       6.539   5.256  16.226  0.00  0.00    +0.000 C 
BRANCH  14  16
ATOM     15  O   UNL     1       7.756   5.401  14.136  0.00  0.00    +0.000 OA
ATOM     16  C   UNL     1       6.982   4.797  14.863  0.00  0.00    +0.000 C 
BRANCH  16  17
ATOM     17  O   UNL     1       6.423   3.618  14.504  0.00  0.00    +0.000 OA
ATOM     18  H   UNL     1       6.993   3.059  13.943  0.00  0.00    +0.000 HD
ENDBRANCH  16  17
ENDBRANCH  14  16
ENDBRANCH  13  14
ENDBRANCH   1  13
TORSDOF 5
ENDMDL
MODEL 4
REMARK VINA RESULT:      -6.8      2.149      5.604
REMARK  Name = 
REMARK  5 active torsions:
REMARK  status: ('A' for Active; 'I' for Inactive)
REMARK    1  A    between atoms: C_2  and  O_3
REMARK    2  A    between atoms: C_2  and  C_4
REMARK    3  A    between atoms: C_4  and  C_5
REMARK    4  A    between atoms: C_5  and  C_6
REMARK    5  A    between atoms: C_8  and  O_9
REMARK                            x       y       z     vdW  Elec       q    Type
REMARK                         _______ _______ _______ _____ _____    ______ ____
ROOT
ATOM      1  C   UNL     1       3.444   4.991  18.830  0.00  0.00    +0.000 A 
ATOM      2  N   UNL     1       4.501   5.200  19.631  0.00  0.00    +0.000 NA
ATOM      3  C   UNL     1       5.692   5.142  19.022  0.00  0.00    +0.000 A 
ATOM      4  C   UNL     1       5.907   4.870  17.680  0.00  0.00    +0.000 A 
ATOM      5  C   UNL     1       7.175   4.756  17.065  0.00  0.00    +0.000 A 
ATOM      6  C   UNL     1       7.271   4.445  15.712  0.00  0.00    +0.000 A 
ATOM      7  C   UNL     1       6.108   4.273  14.971  0.00  0.00    +0.000 A 
ATOM      8  C   UNL     1       4.858   4.405  15.589  0.00  0.00    +0.000 A 
ATOM      9  C   UNL     1       4.736   4.688  16.944  0.00  0.00    +0.000 A 
ATOM     10  N   UNL     1       3.518   4.753  17.505  0.00  0.00    +0.000 NA
ENDROOT
BRANCH   3  11
ATOM     11  O   UNL     1       6.736   5.356  19.870  0.00  0.00    +0.000 OA
ATOM     12  H   UNL     1       6.836   4.465  20.252  0.00  0.00    +0.000 HD
ENDBRANCH   3  11
BRANCH   1  13
ATOM     13  C   UNL     1       2.077   4.955  19.460  0.00  0.00    +0.000 C 
BRANCH  13  14
ATOM     14  C   UNL     1       2.186   4.778  20.974  0.00  0.00    +0.000 C 
BRANCH  14  16
ATOM     15  O   UNL     1       2.579   2.675  22.111  0.00  0.00    +0.000 OA
ATOM     16  C   UNL     1       1.875   3.366  21.390  0.00  0.00    +0.000 C 
BRANCH  16  17
ATOM     17  O   UNL     1       0.708   2.916  20.873  0.00  0.00    +0.000 OA
ATOM     18  H   UNL     1       0.038   3.610  20.731  0.00  0.00    +0.000 HD
ENDBRANCH  16  17
ENDBRANCH  14  16
ENDBRANCH  13  14
ENDBRANCH   1  13
TORSDOF 5
ENDMDL
MODEL 5
REMARK VINA RESULT:      -6.8      1.687      1.884
REMARK  Name = 
REMARK  5 active torsions:
REMARK  status: ('A' for Active; 'I' for Inactive)
REMARK    1  A    between atoms: C_2  and  O_3
REMARK    2  A    between atoms: C_2  and  C_4
REMARK    3  A    between atoms: C_4  and  C_5
REMARK    4  A    between atoms: C_5  and  C_6
REMARK    5  A    between atoms: C_8  and  O_9
REMARK                            x       y       z     vdW  Elec       q    Type
REMARK                         _______ _______ _______ _____ _____    ______ ____
ROOT
ATOM      1  C   UNL     1       4.050   4.113  17.033  0.00  0.00    +0.000 A 
ATOM      2  N   UNL     1       4.281   2.798  17.175  0.00  0.00    +0.000 NA
ATOM      3  C   UNL     1       3.602   2.209  18.166  0.00  0.00    +0.000 A 
ATOM      4  C   UNL     1       2.728   2.836  19.040  0.00  0.00    +0.000 A 
ATOM      5  C   UNL     1       2.062   2.208  20.118  0.00  0.00    +0.000 A 
ATOM      6  C   UNL     1       1.230   2.949  20.953  0.00  0.00    +0.000 A 
ATOM      7  C   UNL     1       1.044   4.303  20.698  0.00  0.00    +0.000 A 
ATOM      8  C   UNL     1       1.695   4.908  19.617  0.00  0.00    +0.000 A 
ATOM      9  C   UNL     1       2.553   4.197  18.785  0.00  0.00    +0.000 A 
ATOM     10  N   UNL     1       3.197   4.830  17.793  0.00  0.00    +0.000 NA
ENDROOT
BRANCH   3  11
ATOM     11  O   UNL     1       3.869   0.878  18.278  0.00  0.00    +0.000 OA
ATOM     12  H   UNL     1       3.008   0.553  18.598  0.00  0.00    +0.000 HD
ENDBRANCH   3  11
BRANCH   1  13
ATOM     13  C   UNL     1       4.842   4.861  15.995  0.00  0.00    +0.000 C 
BRANCH  13  14
ATOM     14  C   UNL     1       5.988   3.999  15.467  0.00  0.00    +0.000 C 
BRANCH  14  16
ATOM     15  O   UNL     1       7.959   4.422  16.812  0.00  0.00    +0.000 OA
ATOM     16  C   UNL     1       7.327   4.607  15.781  0.00  0.00    +0.000 C 
BRANCH  16  17
ATOM     17  O   UNL     1       7.783   5.406  14.788  0.00  0.00    +0.000 OA
ATOM     18  H   UNL     1       7.405   6.306  14.791  0.00  0.00    +0.000 HD
ENDBRANCH  16  17
ENDBRANCH  14  16
ENDBRANCH  13  14
ENDBRANCH   1  13
TORSDOF 5
ENDMDL
MODEL 6
REMARK VINA RESULT:      -6.7      1.651      1.771
REMARK  Name = 
REMARK  5 active torsions:
REMARK  status: ('A' for Active; 'I' for Inactive)
REMARK    1  A    between atoms: C_2  and  O_3
REMARK    2  A    between atoms: C_2  and  C_4
REMARK    3  A    between atoms: C_4  and  C_5
REMARK    4  A    between atoms: C_5  and  C_6
REMARK    5  A    between atoms: C_8  and  O_9
REMARK                            x       y       z     vdW  Elec       q    Type
REMARK                         _______ _______ _______ _____ _____    ______ ____
ROOT
ATOM      1  C   UNL     1       4.541   4.896  17.239  0.00  0.00    +0.000 A 
ATOM      2  N   UNL     1       4.669   3.565  17.116  0.00  0.00    +0.000 NA
ATOM      3  C   UNL     1       3.863   2.844  17.905  0.00  0.00    +0.000 A 
ATOM      4  C   UNL     1       2.956   3.351  18.822  0.00  0.00    +0.000 A 
ATOM      5  C   UNL     1       2.153   2.574  19.688  0.00  0.00    +0.000 A 
ATOM      6  C   UNL     1       1.298   3.195  20.595  0.00  0.00    +0.000 A 
ATOM      7  C   UNL     1       1.228   4.583  20.620  0.00  0.00    +0.000 A 
ATOM      8  C   UNL     1       2.016   5.339  19.745  0.00  0.00    +0.000 A 
ATOM      9  C   UNL     1       2.897   4.744  18.849  0.00  0.00    +0.000 A 
ATOM     10  N   UNL     1       3.672   5.511  18.066  0.00  0.00    +0.000 NA
ENDROOT
BRANCH   3  11
ATOM     11  O   UNL     1       4.028   1.500  17.751  0.00  0.00    +0.000 OA
ATOM     12  H   UNL     1       4.619   1.484  16.977  0.00  0.00    +0.000 HD
ENDBRANCH   3  11
BRANCH   1  13
ATOM     13  C   UNL     1       5.476   5.770  16.447  0.00  0.00    +0.000 C 
BRANCH  13  14
ATOM     14  C   UNL     1       6.609   6.289  17.331  0.00  0.00    +0.000 C 
BRANCH  14  16
ATOM     15  O   UNL     1       7.816   4.978  18.973  0.00  0.00    +0.000 OA
ATOM     16  C   UNL     1       7.492   5.170  17.810  0.00  0.00    +0.000 C 
BRANCH  16  17
ATOM     17  O   UNL     1       7.913   4.370  16.802  0.00  0.00    +0.000 OA
ATOM     18  H   UNL     1       8.332   4.846  16.061  0.00  0.00    +0.000 HD
ENDBRANCH  16  17
ENDBRANCH  14  16
ENDBRANCH  13  14
ENDBRANCH   1  13
TORSDOF 5
ENDMDL
MODEL 7
REMARK VINA RESULT:      -6.7      2.232      2.749
REMARK  Name = 
REMARK  5 active torsions:
REMARK  status: ('A' for Active; 'I' for Inactive)
REMARK    1  A    between atoms: C_2  and  O_3
REMARK    2  A    between atoms: C_2  and  C_4
REMARK    3  A    between atoms: C_4  and  C_5
REMARK    4  A    between atoms: C_5  and  C_6
REMARK    5  A    between atoms: C_8  and  O_9
REMARK                            x       y       z     vdW  Elec       q    Type
REMARK                         _______ _______ _______ _____ _____    ______ ____
ROOT
ATOM      1  C   UNL     1       4.265   5.252  17.111  0.00  0.00    +0.000 A 
ATOM      2  N   UNL     1       4.015   6.181  18.048  0.00  0.00    +0.000 NA
ATOM      3  C   UNL     1       3.112   5.826  18.970  0.00  0.00    +0.000 A 
ATOM      4  C   UNL     1       2.424   4.623  19.013  0.00  0.00    +0.000 A 
ATOM      5  C   UNL     1       1.431   4.287  19.962  0.00  0.00    +0.000 A 
ATOM      6  C   UNL     1       0.780   3.058  19.888  0.00  0.00    +0.000 A 
ATOM      7  C   UNL     1       1.136   2.161  18.888  0.00  0.00    +0.000 A 
ATOM      8  C   UNL     1       2.133   2.500  17.966  0.00  0.00    +0.000 A 
ATOM      9  C   UNL     1       2.779   3.731  18.002  0.00  0.00    +0.000 A 
ATOM     10  N   UNL     1       3.690   4.033  17.065  0.00  0.00    +0.000 NA
ENDROOT
BRANCH   3  11
ATOM     11  O   UNL     1       2.886   6.797  19.897  0.00  0.00    +0.000 OA
ATOM     12  H   UNL     1       3.237   7.574  19.427  0.00  0.00    +0.000 HD
ENDBRANCH   3  11
BRANCH   1  13
ATOM     13  C   UNL     1       5.205   5.613  15.993  0.00  0.00    +0.000 C 
BRANCH  13  14
ATOM     14  C   UNL     1       6.444   4.719  16.020  0.00  0.00    +0.000 C 
BRANCH  14  16
ATOM     15  O   UNL     1       7.710   6.240  17.418  0.00  0.00    +0.000 OA
ATOM     16  C   UNL     1       7.376   5.098  17.138  0.00  0.00    +0.000 C 
BRANCH  16  17
ATOM     17  O   UNL     1       7.827   4.024  17.827  0.00  0.00    +0.000 OA
ATOM     18  H   UNL     1       8.129   4.226  18.732  0.00  0.00    +0.000 HD
ENDBRANCH  16  17
ENDBRANCH  14  16
ENDBRANCH  13  14
ENDBRANCH   1  13
TORSDOF 5
ENDMDL
MODEL 8
REMARK VINA RESULT:      -6.6      1.943      2.110
REMARK  Name = 
REMARK  5 active torsions:
REMARK  status: ('A' for Active; 'I' for Inactive)
REMARK    1  A    between atoms: C_2  and  O_3
REMARK    2  A    between atoms: C_2  and  C_4
REMARK    3  A    between atoms: C_4  and  C_5
REMARK    4  A    between atoms: C_5  and  C_6
REMARK    5  A    between atoms: C_8  and  O_9
REMARK                            x       y       z     vdW  Elec       q    Type
REMARK                         _______ _______ _______ _____ _____    ______ ____
ROOT
ATOM      1  C   UNL     1       4.384   4.789  16.993  0.00  0.00    +0.000 A 
ATOM      2  N   UNL     1       3.963   3.528  16.807  0.00  0.00    +0.000 NA
ATOM      3  C   UNL     1       3.006   3.121  17.649  0.00  0.00    +0.000 A 
ATOM      4  C   UNL     1       2.454   3.870  18.677  0.00  0.00    +0.000 A 
ATOM      5  C   UNL     1       1.484   3.405  19.594  0.00  0.00    +0.000 A 
ATOM      6  C   UNL     1       1.024   4.239  20.610  0.00  0.00    +0.000 A 
ATOM      7  C   UNL     1       1.512   5.538  20.695  0.00  0.00    +0.000 A 
ATOM      8  C   UNL     1       2.460   5.991  19.769  0.00  0.00    +0.000 A 
ATOM      9  C   UNL     1       2.955   5.169  18.763  0.00  0.00    +0.000 A 
ATOM     10  N   UNL     1       3.902   5.630  17.931  0.00  0.00    +0.000 NA
ENDROOT
BRANCH   3  11
ATOM     11  O   UNL     1       2.611   1.837  17.429  0.00  0.00    +0.000 OA
ATOM     12  H   UNL     1       2.809   1.441  18.297  0.00  0.00    +0.000 HD
ENDBRANCH   3  11
BRANCH   1  13
ATOM     13  C   UNL     1       5.519   5.288  16.140  0.00  0.00    +0.000 C 
BRANCH  13  14
ATOM     14  C   UNL     1       6.577   5.978  16.999  0.00  0.00    +0.000 C 
BRANCH  14  16
ATOM     15  O   UNL     1       8.173   4.160  17.141  0.00  0.00    +0.000 OA
ATOM     16  C   UNL     1       7.458   4.980  17.699  0.00  0.00    +0.000 C 
BRANCH  16  17
ATOM     17  O   UNL     1       7.383   5.074  19.047  0.00  0.00    +0.000 OA
ATOM     18  H   UNL     1       6.584   5.530  19.373  0.00  0.00    +0.000 HD
ENDBRANCH  16  17
ENDBRANCH  14  16
ENDBRANCH  13  14
ENDBRANCH   1  13
TORSDOF 5
ENDMDL
MODEL 9
REMARK VINA RESULT:      -6.6      2.107      2.863
REMARK  Name = 
REMARK  5 active torsions:
REMARK  status: ('A' for Active; 'I' for Inactive)
REMARK    1  A    between atoms: C_2  and  O_3
REMARK    2  A    between atoms: C_2  and  C_4
REMARK    3  A    between atoms: C_4  and  C_5
REMARK    4  A    between atoms: C_5  and  C_6
REMARK    5  A    between atoms: C_8  and  O_9
REMARK                            x       y       z     vdW  Elec       q    Type
REMARK                         _______ _______ _______ _____ _____    ______ ____
ROOT
ATOM      1  C   UNL     1       4.251   5.677  17.551  0.00  0.00    +0.000 A 
ATOM      2  N   UNL     1       3.529   6.693  18.051  0.00  0.00    +0.000 NA
ATOM      3  C   UNL     1       2.848   6.407  19.167  0.00  0.00    +0.000 A 
ATOM      4  C   UNL     1       2.816   5.178  19.808  0.00  0.00    +0.000 A 
ATOM      5  C   UNL     1       2.045   4.878  20.955  0.00  0.00    +0.000 A 
ATOM      6  C   UNL     1       2.065   3.595  21.495  0.00  0.00    +0.000 A 
ATOM      7  C   UNL     1       2.869   2.624  20.909  0.00  0.00    +0.000 A 
ATOM      8  C   UNL     1       3.641   2.940  19.784  0.00  0.00    +0.000 A 
ATOM      9  C   UNL     1       3.617   4.206  19.209  0.00  0.00    +0.000 A 
ATOM     10  N   UNL     1       4.332   4.448  18.099  0.00  0.00    +0.000 NA
ENDROOT
BRANCH   3  11
ATOM     11  O   UNL     1       2.127   7.462  19.638  0.00  0.00    +0.000 OA
ATOM     12  H   UNL     1       2.790   7.883  20.214  0.00  0.00    +0.000 HD
ENDBRANCH   3  11
BRANCH   1  13
ATOM     13  C   UNL     1       4.974   5.899  16.250  0.00  0.00    +0.000 C 
BRANCH  13  14
ATOM     14  C   UNL     1       5.663   4.615  15.790  0.00  0.00    +0.000 C 
BRANCH  14  16
ATOM     15  O   UNL     1       7.891   4.395  16.716  0.00  0.00    +0.000 OA
ATOM     16  C   UNL     1       7.161   4.755  15.804  0.00  0.00    +0.000 C 
BRANCH  16  17
ATOM     17  O   UNL     1       7.641   5.338  14.681  0.00  0.00    +0.000 OA
ATOM     18  H   UNL     1       7.186   5.066  13.862  0.00  0.00    +0.000 HD
ENDBRANCH  16  17
ENDBRANCH  14  16
ENDBRANCH  13  14
ENDBRANCH   1  13
TORSDOF 5
ENDMDL
