MODEL 1
REMARK VINA RESULT:      -7.2      0.000      0.000
REMARK  Name = 
REMARK  11 active torsions:
REMARK  status: ('A' for Active; 'I' for Inactive)
REMARK    1  A    between atoms: C_1  and  C_2
REMARK    2  A    between atoms: C_2  and  C_3
REMARK    3  A    between atoms: C_6  and  O_7
REMARK    4  A    between atoms: C_10  and  C_11
REMARK    5  A    between atoms: C_15  and  C_16
REMARK    6  A    between atoms: C_20  and  C_21
REMARK    7  A    between atoms: C_21  and  C_22
REMARK    8  A    between atoms: C_21  and  C_23
REMARK    9  A    between atoms: C_23  and  C_24
REMARK   10  A    between atoms: C_24  and  C_25
REMARK   11  A    between atoms: C_33  and  O_34
REMARK                            x       y       z     vdW  Elec       q    Type
REMARK                         _______ _______ _______ _____ _____    ______ ____
ROOT
ATOM      1  C   UNL     1      -1.865  14.989  23.411  0.00  0.00    +0.000 C 
ATOM      2  C   UNL     1      -3.353  14.539  23.204  0.00  0.00    +0.000 C 
ATOM      3  C   UNL     1      -3.794  13.441  24.201  0.00  0.00    +0.000 C 
ATOM      4  C   UNL     1      -5.241  13.003  24.009  0.00  0.00    +0.000 C 
ATOM      5  C   UNL     1      -5.463  12.501  22.593  0.00  0.00    +0.000 C 
ATOM      6  C   UNL     1      -5.151  13.615  21.606  0.00  0.00    +0.000 C 
ATOM      7  C   UNL     1      -3.696  14.170  21.701  0.00  0.00    +0.000 C 
ATOM      8  C   UNL     1      -3.692  15.462  20.839  0.00  0.00    +0.000 C 
ATOM      9  C   UNL     1      -2.640  13.140  21.155  0.00  0.00    +0.000 C 
ATOM     10  C   UNL     1      -2.973  12.543  19.759  0.00  0.00    +0.000 C 
ATOM     11  C   UNL     1      -1.920  11.551  19.242  0.00  0.00    +0.000 C 
ATOM     12  C   UNL     1      -0.504  12.134  19.281  0.00  0.00    +0.000 C 
ATOM     13  C   UNL     1      -0.396  13.195  18.146  0.00  0.00    +0.000 C 
ATOM     14  C   UNL     1      -0.208  12.728  20.662  0.00  0.00    +0.000 C 
ATOM     15  C   UNL     1       1.278  13.061  20.616  0.00  0.00    +0.000 C 
ATOM     16  C   UNL     1       1.875  11.932  19.754  0.00  0.00    +0.000 C 
ATOM     17  C   UNL     1       0.683  11.117  19.169  0.00  0.00    +0.000 C 
ATOM     18  C   UNL     1      -1.204  13.746  21.209  0.00  0.00    +0.000 C 
ATOM     19  C   UNL     1      -0.828  14.122  22.662  0.00  0.00    +0.000 C 
ENDROOT
BRANCH   1  21
ATOM     20  C   UNL     1      -1.805  16.400  25.597  0.00  0.00    +0.000 C 
ATOM     21  C   UNL     1      -1.409  15.115  24.895  0.00  0.00    +0.000 C 
ENDBRANCH   1  21
BRANCH   4  22
ATOM     22  O   UNL     1      -5.566  11.982  24.942  0.00  0.00    +0.000 OA
ATOM     23  H   UNL     1      -5.830  11.188  24.449  0.00  0.00    +0.000 HD
ENDBRANCH   4  22
BRANCH  17  24
ATOM     24  C   UNL     1       0.495   9.694  19.837  0.00  0.00    +0.000 C 
ATOM     25  C   UNL     1       0.441   9.653  21.376  0.00  0.00    +0.000 C 
BRANCH  24  26
ATOM     26  C   UNL     1       1.579   8.701  19.348  0.00  0.00    +0.000 C 
BRANCH  26  27
ATOM     27  C   UNL     1       1.639   7.422  20.195  0.00  0.00    +0.000 C 
BRANCH  27  28
ATOM     28  C   UNL     1       2.542   6.361  19.585  0.00  0.00    +0.000 C 
ATOM     29  N   UNL     1       2.157   6.015  18.243  0.00  0.00    +0.000 N 
ATOM     30  C   UNL     1       1.675   4.729  18.158  0.00  0.00    +0.000 C 
ATOM     31  O   UNL     1       1.234   4.224  17.148  0.00  0.00    +0.000 OA
ATOM     32  N   UNL     1       1.777   4.151  19.375  0.00  0.00    +0.000 N 
ATOM     33  C   UNL     1       2.305   5.017  20.282  0.00  0.00    +0.000 C 
ATOM     34  O   UNL     1       2.511   4.772  21.457  0.00  0.00    +0.000 OA
ATOM     35  H   UNL     1       2.181   6.628  17.439  0.00  0.00    +0.000 HD
ATOM     36  H   UNL     1       1.499   3.208  19.575  0.00  0.00    +0.000 HD
ENDBRANCH  27  28
ENDBRANCH  26  27
ENDBRANCH  24  26
ENDBRANCH  17  24
BRANCH  19  37
ATOM     37  O   UNL     1      -0.518  12.958  23.437  0.00  0.00    +0.000 OA
ATOM     38  H   UNL     1      -0.958  13.024  24.297  0.00  0.00    +0.000 HD
ENDBRANCH  19  37
TORSDOF 7
ENDMDL
MODEL 2
REMARK VINA RESULT:      -7.1      0.996      1.332
REMARK  Name = 
REMARK  11 active torsions:
REMARK  status: ('A' for Active; 'I' for Inactive)
REMARK    1  A    between atoms: C_1  and  C_2
REMARK    2  A    between atoms: C_2  and  C_3
REMARK    3  A    between atoms: C_6  and  O_7
REMARK    4  A    between atoms: C_10  and  C_11
REMARK    5  A    between atoms: C_15  and  C_16
REMARK    6  A    between atoms: C_20  and  C_21
REMARK    7  A    between atoms: C_21  and  C_22
REMARK    8  A    between atoms: C_21  and  C_23
REMARK    9  A    between atoms: C_23  and  C_24
REMARK   10  A    between atoms: C_24  and  C_25
REMARK   11  A    between atoms: C_33  and  O_34
REMARK                            x       y       z     vdW  Elec       q    Type
REMARK                         _______ _______ _______ _____ _____    ______ ____
ROOT
ATOM      1  C   UNL     1      -1.853  15.027  23.383  0.00  0.00    +0.000 C 
ATOM      2  C   UNL     1      -3.343  14.570  23.210  0.00  0.00    +0.000 C 
ATOM      3  C   UNL     1      -3.756  13.468  24.215  0.00  0.00    +0.000 C 
ATOM      4  C   UNL     1      -5.205  13.025  24.056  0.00  0.00    +0.000 C 
ATOM      5  C   UNL     1      -5.457  12.524  22.645  0.00  0.00    +0.000 C 
ATOM      6  C   UNL     1      -5.174  13.641  21.653  0.00  0.00    +0.000 C 
ATOM      7  C   UNL     1      -3.720  14.203  21.715  0.00  0.00    +0.000 C 
ATOM      8  C   UNL     1      -3.741  15.496  20.855  0.00  0.00    +0.000 C 
ATOM      9  C   UNL     1      -2.672  13.178  21.143  0.00  0.00    +0.000 C 
ATOM     10  C   UNL     1      -3.035  12.583  19.754  0.00  0.00    +0.000 C 
ATOM     11  C   UNL     1      -1.990  11.597  19.210  0.00  0.00    +0.000 C 
ATOM     12  C   UNL     1      -0.576  12.186  19.217  0.00  0.00    +0.000 C 
ATOM     13  C   UNL     1      -0.499  13.249  18.082  0.00  0.00    +0.000 C 
ATOM     14  C   UNL     1      -0.250  12.779  20.591  0.00  0.00    +0.000 C 
ATOM     15  C   UNL     1       1.232  13.118  20.511  0.00  0.00    +0.000 C 
ATOM     16  C   UNL     1       1.814  11.994  19.634  0.00  0.00    +0.000 C 
ATOM     17  C   UNL     1       0.612  11.175  19.075  0.00  0.00    +0.000 C 
ATOM     18  C   UNL     1      -1.238  13.791  21.164  0.00  0.00    +0.000 C 
ATOM     19  C   UNL     1      -0.830  14.166  22.609  0.00  0.00    +0.000 C 
ENDROOT
BRANCH   1  21
ATOM     20  C   UNL     1      -1.864  16.367  25.614  0.00  0.00    +0.000 C 
ATOM     21  C   UNL     1      -1.363  15.152  24.856  0.00  0.00    +0.000 C 
ENDBRANCH   1  21
BRANCH   4  22
ATOM     22  O   UNL     1      -5.503  12.000  24.995  0.00  0.00    +0.000 OA
ATOM     23  H   UNL     1      -6.469  11.911  25.056  0.00  0.00    +0.000 HD
ENDBRANCH   4  22
BRANCH  17  24
ATOM     24  C   UNL     1       0.447   9.749  19.745  0.00  0.00    +0.000 C 
ATOM     25  C   UNL     1       0.377   9.711  21.283  0.00  0.00    +0.000 C 
BRANCH  24  26
ATOM     26  C   UNL     1       1.556   8.778  19.269  0.00  0.00    +0.000 C 
BRANCH  26  27
ATOM     27  C   UNL     1       1.911   7.720  20.323  0.00  0.00    +0.000 C 
BRANCH  27  28
ATOM     28  C   UNL     1       1.792   6.300  19.789  0.00  0.00    +0.000 C 
ATOM     29  N   UNL     1       1.354   5.369  20.793  0.00  0.00    +0.000 N 
ATOM     30  C   UNL     1       2.338   4.468  21.129  0.00  0.00    +0.000 C 
ATOM     31  O   UNL     1       2.234   3.622  21.990  0.00  0.00    +0.000 OA
ATOM     32  N   UNL     1       3.416   4.699  20.346  0.00  0.00    +0.000 N 
ATOM     33  C   UNL     1       3.188   5.738  19.499  0.00  0.00    +0.000 C 
ATOM     34  O   UNL     1       3.980   6.171  18.680  0.00  0.00    +0.000 OA
ATOM     35  H   UNL     1       0.454   5.369  21.254  0.00  0.00    +0.000 HD
ATOM     36  H   UNL     1       4.266   4.169  20.389  0.00  0.00    +0.000 HD
ENDBRANCH  27  28
ENDBRANCH  26  27
ENDBRANCH  24  26
ENDBRANCH  17  24
BRANCH  19  37
ATOM     37  O   UNL     1      -0.496  13.002  23.373  0.00  0.00    +0.000 OA
ATOM     38  H   UNL     1      -1.157  12.881  24.070  0.00  0.00    +0.000 HD
ENDBRANCH  19  37
TORSDOF 7
ENDMDL
MODEL 3
REMARK VINA RESULT:      -7.0      7.362      9.564
REMARK  Name = 
REMARK  11 active torsions:
REMARK  status: ('A' for Active; 'I' for Inactive)
REMARK    1  A    between atoms: C_1  and  C_2
REMARK    2  A    between atoms: C_2  and  C_3
REMARK    3  A    between atoms: C_6  and  O_7
REMARK    4  A    between atoms: C_10  and  C_11
REMARK    5  A    between atoms: C_15  and  C_16
REMARK    6  A    between atoms: C_20  and  C_21
REMARK    7  A    between atoms: C_21  and  C_22
REMARK    8  A    between atoms: C_21  and  C_23
REMARK    9  A    between atoms: C_23  and  C_24
REMARK   10  A    between atoms: C_24  and  C_25
REMARK   11  A    between atoms: C_33  and  O_34
REMARK                            x       y       z     vdW  Elec       q    Type
REMARK                         _______ _______ _______ _____ _____    ______ ____
ROOT
ATOM      1  C   UNL     1       9.002  16.128  21.565  0.00  0.00    +0.000 C 
ATOM      2  C   UNL     1       7.614  16.575  20.990  0.00  0.00    +0.000 C 
ATOM      3  C   UNL     1       6.418  16.039  21.813  0.00  0.00    +0.000 C 
ATOM      4  C   UNL     1       5.066  16.476  21.262  0.00  0.00    +0.000 C 
ATOM      5  C   UNL     1       4.910  16.030  19.819  0.00  0.00    +0.000 C 
ATOM      6  C   UNL     1       6.010  16.654  18.974  0.00  0.00    +0.000 C 
ATOM      7  C   UNL     1       7.456  16.298  19.437  0.00  0.00    +0.000 C 
ATOM      8  C   UNL     1       8.389  17.255  18.644  0.00  0.00    +0.000 C 
ATOM      9  C   UNL     1       7.817  14.798  19.129  0.00  0.00    +0.000 C 
ATOM     10  C   UNL     1       7.514  14.341  17.675  0.00  0.00    +0.000 C 
ATOM     11  C   UNL     1       7.887  12.878  17.395  0.00  0.00    +0.000 C 
ATOM     12  C   UNL     1       9.332  12.560  17.794  0.00  0.00    +0.000 C 
ATOM     13  C   UNL     1      10.273  13.238  16.755  0.00  0.00    +0.000 C 
ATOM     14  C   UNL     1       9.608  13.034  19.225  0.00  0.00    +0.000 C 
ATOM     15  C   UNL     1      10.981  12.463  19.551  0.00  0.00    +0.000 C 
ATOM     16  C   UNL     1      10.991  11.106  18.822  0.00  0.00    +0.000 C 
ATOM     17  C   UNL     1       9.709  11.046  17.939  0.00  0.00    +0.000 C 
ATOM     18  C   UNL     1       9.287  14.491  19.548  0.00  0.00    +0.000 C 
ATOM     19  C   UNL     1       9.485  14.750  21.061  0.00  0.00    +0.000 C 
ENDROOT
BRANCH   1  21
ATOM     20  C   UNL     1      10.454  16.576  23.678  0.00  0.00    +0.000 C 
ATOM     21  C   UNL     1       9.113  16.140  23.118  0.00  0.00    +0.000 C 
ENDBRANCH   1  21
BRANCH   4  22
ATOM     22  O   UNL     1       4.021  15.929  22.054  0.00  0.00    +0.000 OA
ATOM     23  H   UNL     1       3.544  15.271  21.522  0.00  0.00    +0.000 HD
ENDBRANCH   4  22
BRANCH  17  24
ATOM     24  C   UNL     1       8.599  10.063  18.494  0.00  0.00    +0.000 C 
ATOM     25  C   UNL     1       8.900   9.363  19.833  0.00  0.00    +0.000 C 
BRANCH  24  26
ATOM     26  C   UNL     1       8.226   8.990  17.441  0.00  0.00    +0.000 C 
BRANCH  26  27
ATOM     27  C   UNL     1       8.055   7.592  18.051  0.00  0.00    +0.000 C 
BRANCH  27  28
ATOM     28  C   UNL     1       6.782   6.903  17.584  0.00  0.00    +0.000 C 
ATOM     29  N   UNL     1       6.134   6.169  18.638  0.00  0.00    +0.000 N 
ATOM     30  C   UNL     1       6.176   4.810  18.425  0.00  0.00    +0.000 C 
ATOM     31  O   UNL     1       5.751   3.978  19.196  0.00  0.00    +0.000 OA
ATOM     32  N   UNL     1       6.768   4.582  17.231  0.00  0.00    +0.000 N 
ATOM     33  C   UNL     1       7.135   5.750  16.638  0.00  0.00    +0.000 C 
ATOM     34  O   UNL     1       7.689   5.852  15.558  0.00  0.00    +0.000 OA
ATOM     35  H   UNL     1       5.723   6.563  19.474  0.00  0.00    +0.000 HD
ATOM     36  H   UNL     1       6.911   3.669  16.840  0.00  0.00    +0.000 HD
ENDBRANCH  27  28
ENDBRANCH  26  27
ENDBRANCH  24  26
ENDBRANCH  17  24
BRANCH  19  37
ATOM     37  O   UNL     1       8.894  13.709  21.849  0.00  0.00    +0.000 OA
ATOM     38  H   UNL     1       9.242  13.758  22.751  0.00  0.00    +0.000 HD
ENDBRANCH  19  37
TORSDOF 7
ENDMDL
MODEL 4
REMARK VINA RESULT:      -7.0      5.442      7.493
REMARK  Name = 
REMARK  11 active torsions:
REMARK  status: ('A' for Active; 'I' for Inactive)
REMARK    1  A    between atoms: C_1  and  C_2
REMARK    2  A    between atoms: C_2  and  C_3
REMARK    3  A    between atoms: C_6  and  O_7
REMARK    4  A    between atoms: C_10  and  C_11
REMARK    5  A    between atoms: C_15  and  C_16
REMARK    6  A    between atoms: C_20  and  C_21
REMARK    7  A    between atoms: C_21  and  C_22
REMARK    8  A    between atoms: C_21  and  C_23
REMARK    9  A    between atoms: C_23  and  C_24
REMARK   10  A    between atoms: C_24  and  C_25
REMARK   11  A    between atoms: C_33  and  O_34
REMARK                            x       y       z     vdW  Elec       q    Type
REMARK                         _______ _______ _______ _____ _____    ______ ____
ROOT
ATOM      1  C   UNL     1      -0.958  13.093  21.360  0.00  0.00    +0.000 C 
ATOM      2  C   UNL     1      -0.682  11.748  20.602  0.00  0.00    +0.000 C 
ATOM      3  C   UNL     1       0.041  10.699  21.481  0.00  0.00    +0.000 C 
ATOM      4  C   UNL     1       0.306   9.387  20.751  0.00  0.00    +0.000 C 
ATOM      5  C   UNL     1       1.127   9.631  19.498  0.00  0.00    +0.000 C 
ATOM      6  C   UNL     1       0.369  10.565  18.568  0.00  0.00    +0.000 C 
ATOM      7  C   UNL     1       0.017  11.950  19.194  0.00  0.00    +0.000 C 
ATOM      8  C   UNL     1      -0.987  12.604  18.207  0.00  0.00    +0.000 C 
ATOM      9  C   UNL     1       1.293  12.856  19.363  0.00  0.00    +0.000 C 
ATOM     10  C   UNL     1       2.183  12.970  18.095  0.00  0.00    +0.000 C 
ATOM     11  C   UNL     1       3.414  13.870  18.281  0.00  0.00    +0.000 C 
ATOM     12  C   UNL     1       3.046  15.250  18.835  0.00  0.00    +0.000 C 
ATOM     13  C   UNL     1       2.348  16.049  17.695  0.00  0.00    +0.000 C 
ATOM     14  C   UNL     1       2.156  15.109  20.075  0.00  0.00    +0.000 C 
ATOM     15  C   UNL     1       2.060  16.524  20.630  0.00  0.00    +0.000 C 
ATOM     16  C   UNL     1       3.448  17.123  20.336  0.00  0.00    +0.000 C 
ATOM     17  C   UNL     1       4.212  16.103  19.441  0.00  0.00    +0.000 C 
ATOM     18  C   UNL     1       0.901  14.253  19.935  0.00  0.00    +0.000 C 
ATOM     19  C   UNL     1       0.212  14.101  21.313  0.00  0.00    +0.000 C 
ENDROOT
BRANCH   1  21
ATOM     20  C   UNL     1      -2.820  12.434  23.055  0.00  0.00    +0.000 C 
ATOM     21  C   UNL     1      -1.405  12.940  22.843  0.00  0.00    +0.000 C 
ENDBRANCH   1  21
BRANCH   4  22
ATOM     22  O   UNL     1       0.989   8.485  21.612  0.00  0.00    +0.000 OA
ATOM     23  H   UNL     1       1.799   8.188  21.165  0.00  0.00    +0.000 HD
ENDBRANCH   4  22
BRANCH  17  24
ATOM     24  C   UNL     1       5.368  15.331  20.200  0.00  0.00    +0.000 C 
ATOM     25  C   UNL     1       5.428  15.504  21.729  0.00  0.00    +0.000 C 
BRANCH  24  26
ATOM     26  C   UNL     1       6.755  15.677  19.603  0.00  0.00    +0.000 C 
BRANCH  26  27
ATOM     27  C   UNL     1       7.262  14.611  18.622  0.00  0.00    +0.000 C 
BRANCH  27  28
ATOM     28  C   UNL     1       8.694  14.186  18.911  0.00  0.00    +0.000 C 
ATOM     29  N   UNL     1       9.649  15.213  18.590  0.00  0.00    +0.000 N 
ATOM     30  C   UNL     1      10.447  14.865  17.525  0.00  0.00    +0.000 C 
ATOM     31  O   UNL     1      11.287  15.584  17.029  0.00  0.00    +0.000 OA
ATOM     32  N   UNL     1      10.125  13.610  17.141  0.00  0.00    +0.000 N 
ATOM     33  C   UNL     1       9.124  13.106  17.913  0.00  0.00    +0.000 C 
ATOM     34  O   UNL     1       8.630  11.999  17.796  0.00  0.00    +0.000 OA
ATOM     35  H   UNL     1       9.728  16.115  19.042  0.00  0.00    +0.000 HD
ATOM     36  H   UNL     1      10.571  13.121  16.387  0.00  0.00    +0.000 HD
ENDBRANCH  27  28
ENDBRANCH  26  27
ENDBRANCH  24  26
ENDBRANCH  17  24
BRANCH  19  37
ATOM     37  O   UNL     1       1.162  13.791  22.338  0.00  0.00    +0.000 OA
ATOM     38  H   UNL     1       2.023  13.618  21.930  0.00  0.00    +0.000 HD
ENDBRANCH  19  37
TORSDOF 7
ENDMDL
MODEL 5
REMARK VINA RESULT:      -6.8      4.761      6.939
REMARK  Name = 
REMARK  11 active torsions:
REMARK  status: ('A' for Active; 'I' for Inactive)
REMARK    1  A    between atoms: C_1  and  C_2
REMARK    2  A    between atoms: C_2  and  C_3
REMARK    3  A    between atoms: C_6  and  O_7
REMARK    4  A    between atoms: C_10  and  C_11
REMARK    5  A    between atoms: C_15  and  C_16
REMARK    6  A    between atoms: C_20  and  C_21
REMARK    7  A    between atoms: C_21  and  C_22
REMARK    8  A    between atoms: C_21  and  C_23
REMARK    9  A    between atoms: C_23  and  C_24
REMARK   10  A    between atoms: C_24  and  C_25
REMARK   11  A    between atoms: C_33  and  O_34
REMARK                            x       y       z     vdW  Elec       q    Type
REMARK                         _______ _______ _______ _____ _____    ______ ____
ROOT
ATOM      1  C   UNL     1      -2.074  13.656  22.062  0.00  0.00    +0.000 C 
ATOM      2  C   UNL     1      -1.637  12.183  21.751  0.00  0.00    +0.000 C 
ATOM      3  C   UNL     1      -1.065  11.449  22.987  0.00  0.00    +0.000 C 
ATOM      4  C   UNL     1      -0.643  10.015  22.691  0.00  0.00    +0.000 C 
ATOM      5  C   UNL     1       0.389   9.982  21.578  0.00  0.00    +0.000 C 
ATOM      6  C   UNL     1      -0.206  10.588  20.317  0.00  0.00    +0.000 C 
ATOM      7  C   UNL     1      -0.695  12.061  20.481  0.00  0.00    +0.000 C 
ATOM      8  C   UNL     1      -1.515  12.367  19.198  0.00  0.00    +0.000 C 
ATOM      9  C   UNL     1       0.509  13.065  20.618  0.00  0.00    +0.000 C 
ATOM     10  C   UNL     1       1.614  12.907  19.536  0.00  0.00    +0.000 C 
ATOM     11  C   UNL     1       2.771  13.907  19.683  0.00  0.00    +0.000 C 
ATOM     12  C   UNL     1       2.278  15.355  19.777  0.00  0.00    +0.000 C 
ATOM     13  C   UNL     1       1.785  15.782  18.363  0.00  0.00    +0.000 C 
ATOM     14  C   UNL     1       1.180  15.479  20.838  0.00  0.00    +0.000 C 
ATOM     15  C   UNL     1       0.954  16.979  20.970  0.00  0.00    +0.000 C 
ATOM     16  C   UNL     1       2.359  17.577  20.768  0.00  0.00    +0.000 C 
ATOM     17  C   UNL     1       3.296  16.414  20.323  0.00  0.00    +0.000 C 
ATOM     18  C   UNL     1      -0.010  14.532  20.719  0.00  0.00    +0.000 C 
ATOM     19  C   UNL     1      -0.937  14.695  21.948  0.00  0.00    +0.000 C 
ENDROOT
BRANCH   1  21
ATOM     20  C   UNL     1      -4.230  13.412  23.500  0.00  0.00    +0.000 C 
ATOM     21  C   UNL     1      -2.782  13.863  23.434  0.00  0.00    +0.000 C 
ENDBRANCH   1  21
BRANCH   4  22
ATOM     22  O   UNL     1      -0.110   9.416  23.865  0.00  0.00    +0.000 OA
ATOM     23  H   UNL     1       0.619   8.829  23.606  0.00  0.00    +0.000 HD
ENDBRANCH   4  22
BRANCH  17  24
ATOM     24  C   UNL     1       4.309  15.947  21.446  0.00  0.00    +0.000 C 
ATOM     25  C   UNL     1       3.835  16.081  22.906  0.00  0.00    +0.000 C 
BRANCH  24  26
ATOM     26  C   UNL     1       5.676  16.660  21.297  0.00  0.00    +0.000 C 
BRANCH  26  27
ATOM     27  C   UNL     1       6.261  16.534  19.883  0.00  0.00    +0.000 C 
BRANCH  27  28
ATOM     28  C   UNL     1       6.626  15.101  19.528  0.00  0.00    +0.000 C 
ATOM     29  N   UNL     1       8.048  14.884  19.510  0.00  0.00    +0.000 N 
ATOM     30  C   UNL     1       8.518  14.633  18.242  0.00  0.00    +0.000 C 
ATOM     31  O   UNL     1       9.686  14.476  17.958  0.00  0.00    +0.000 OA
ATOM     32  N   UNL     1       7.467  14.602  17.394  0.00  0.00    +0.000 N 
ATOM     33  C   UNL     1       6.301  14.834  18.054  0.00  0.00    +0.000 C 
ATOM     34  O   UNL     1       5.194  14.867  17.547  0.00  0.00    +0.000 OA
ATOM     35  H   UNL     1       8.670  14.942  20.306  0.00  0.00    +0.000 HD
ATOM     36  H   UNL     1       7.544  14.427  16.409  0.00  0.00    +0.000 HD
ENDBRANCH  27  28
ENDBRANCH  26  27
ENDBRANCH  24  26
ENDBRANCH  17  24
BRANCH  19  37
ATOM     37  O   UNL     1      -0.184  14.728  23.167  0.00  0.00    +0.000 OA
ATOM     38  H   UNL     1      -0.690  14.283  23.863  0.00  0.00    +0.000 HD
ENDBRANCH  19  37
TORSDOF 7
ENDMDL
MODEL 6
REMARK VINA RESULT:      -6.8      2.143      3.034
REMARK  Name = 
REMARK  11 active torsions:
REMARK  status: ('A' for Active; 'I' for Inactive)
REMARK    1  A    between atoms: C_1  and  C_2
REMARK    2  A    between atoms: C_2  and  C_3
REMARK    3  A    between atoms: C_6  and  O_7
REMARK    4  A    between atoms: C_10  and  C_11
REMARK    5  A    between atoms: C_15  and  C_16
REMARK    6  A    between atoms: C_20  and  C_21
REMARK    7  A    between atoms: C_21  and  C_22
REMARK    8  A    between atoms: C_21  and  C_23
REMARK    9  A    between atoms: C_23  and  C_24
REMARK   10  A    between atoms: C_24  and  C_25
REMARK   11  A    between atoms: C_33  and  O_34
REMARK                            x       y       z     vdW  Elec       q    Type
REMARK                         _______ _______ _______ _____ _____    ______ ____
ROOT
ATOM      1  C   UNL     1      -5.422  13.394  21.329  0.00  0.00    +0.000 C 
ATOM      2  C   UNL     1      -6.280  12.388  20.486  0.00  0.00    +0.000 C 
ATOM      3  C   UNL     1      -6.725  11.147  21.297  0.00  0.00    +0.000 C 
ATOM      4  C   UNL     1      -7.564  10.169  20.484  0.00  0.00    +0.000 C 
ATOM      5  C   UNL     1      -6.803   9.707  19.254  0.00  0.00    +0.000 C 
ATOM      6  C   UNL     1      -6.468  10.908  18.384  0.00  0.00    +0.000 C 
ATOM      7  C   UNL     1      -5.617  12.002  19.098  0.00  0.00    +0.000 C 
ATOM      8  C   UNL     1      -5.650  13.232  18.151  0.00  0.00    +0.000 C 
ATOM      9  C   UNL     1      -4.135  11.529  19.335  0.00  0.00    +0.000 C 
ATOM     10  C   UNL     1      -3.434  10.934  18.082  0.00  0.00    +0.000 C 
ATOM     11  C   UNL     1      -1.984  10.492  18.335  0.00  0.00    +0.000 C 
ATOM     12  C   UNL     1      -1.143  11.600  18.977  0.00  0.00    +0.000 C 
ATOM     13  C   UNL     1      -0.866  12.678  17.889  0.00  0.00    +0.000 C 
ATOM     14  C   UNL     1      -1.863  12.179  20.199  0.00  0.00    +0.000 C 
ATOM     15  C   UNL     1      -0.830  13.091  20.846  0.00  0.00    +0.000 C 
ATOM     16  C   UNL     1       0.503  12.360  20.601  0.00  0.00    +0.000 C 
ATOM     17  C   UNL     1       0.206  11.166  19.645  0.00  0.00    +0.000 C 
ATOM     18  C   UNL     1      -3.295  12.665  19.996  0.00  0.00    +0.000 C 
ATOM     19  C   UNL     1      -3.911  13.074  21.356  0.00  0.00    +0.000 C 
ENDROOT
BRANCH   1  21
ATOM     20  C   UNL     1      -5.534  14.940  23.419  0.00  0.00    +0.000 C 
ATOM     21  C   UNL     1      -5.898  13.605  22.796  0.00  0.00    +0.000 C 
ENDBRANCH   1  21
BRANCH   4  22
ATOM     22  O   UNL     1      -7.915   9.050  21.287  0.00  0.00    +0.000 OA
ATOM     23  H   UNL     1      -7.912   8.257  20.726  0.00  0.00    +0.000 HD
ENDBRANCH   4  22
BRANCH  17  24
ATOM     24  C   UNL     1       0.251   9.753  20.359  0.00  0.00    +0.000 C 
ATOM     25  C   UNL     1       0.042   9.741  21.885  0.00  0.00    +0.000 C 
BRANCH  24  26
ATOM     26  C   UNL     1       1.564   9.002  20.028  0.00  0.00    +0.000 C 
BRANCH  26  27
ATOM     27  C   UNL     1       1.327   7.541  19.618  0.00  0.00    +0.000 C 
BRANCH  27  28
ATOM     28  C   UNL     1       2.560   6.672  19.814  0.00  0.00    +0.000 C 
ATOM     29  N   UNL     1       3.401   6.639  18.648  0.00  0.00    +0.000 N 
ATOM     30  C   UNL     1       3.418   5.398  18.056  0.00  0.00    +0.000 C 
ATOM     31  O   UNL     1       4.004   5.131  17.029  0.00  0.00    +0.000 OA
ATOM     32  N   UNL     1       2.674   4.555  18.806  0.00  0.00    +0.000 N 
ATOM     33  C   UNL     1       2.149   5.198  19.884  0.00  0.00    +0.000 C 
ATOM     34  O   UNL     1       1.437   4.692  20.733  0.00  0.00    +0.000 OA
ATOM     35  H   UNL     1       3.904   7.423  18.252  0.00  0.00    +0.000 HD
ATOM     36  H   UNL     1       2.534   3.585  18.592  0.00  0.00    +0.000 HD
ENDBRANCH  27  28
ENDBRANCH  26  27
ENDBRANCH  24  26
ENDBRANCH  17  24
BRANCH  19  37
ATOM     37  O   UNL     1      -3.639  12.094  22.365  0.00  0.00    +0.000 OA
ATOM     38  H   UNL     1      -2.852  12.360  22.860  0.00  0.00    +0.000 HD
ENDBRANCH  19  37
TORSDOF 7
ENDMDL
MODEL 7
REMARK VINA RESULT:      -6.8      6.927      9.210
REMARK  Name = 
REMARK  11 active torsions:
REMARK  status: ('A' for Active; 'I' for Inactive)
REMARK    1  A    between atoms: C_1  and  C_2
REMARK    2  A    between atoms: C_2  and  C_3
REMARK    3  A    between atoms: C_6  and  O_7
REMARK    4  A    between atoms: C_10  and  C_11
REMARK    5  A    between atoms: C_15  and  C_16
REMARK    6  A    between atoms: C_20  and  C_21
REMARK    7  A    between atoms: C_21  and  C_22
REMARK    8  A    between atoms: C_21  and  C_23
REMARK    9  A    between atoms: C_23  and  C_24
REMARK   10  A    between atoms: C_24  and  C_25
REMARK   11  A    between atoms: C_33  and  O_34
REMARK                            x       y       z     vdW  Elec       q    Type
REMARK                         _______ _______ _______ _____ _____    ______ ____
ROOT
ATOM      1  C   UNL     1       8.408  16.555  21.581  0.00  0.00    +0.000 C 
ATOM      2  C   UNL     1       7.010  16.842  20.931  0.00  0.00    +0.000 C 
ATOM      3  C   UNL     1       5.837  16.212  21.719  0.00  0.00    +0.000 C 
ATOM      4  C   UNL     1       4.476  16.493  21.094  0.00  0.00    +0.000 C 
ATOM      5  C   UNL     1       4.433  15.990  19.662  0.00  0.00    +0.000 C 
ATOM      6  C   UNL     1       5.503  16.696  18.845  0.00  0.00    +0.000 C 
ATOM      7  C   UNL     1       6.955  16.504  19.383  0.00  0.00    +0.000 C 
ATOM      8  C   UNL     1       7.823  17.526  18.599  0.00  0.00    +0.000 C 
ATOM      9  C   UNL     1       7.478  15.039  19.143  0.00  0.00    +0.000 C 
ATOM     10  C   UNL     1       7.291  14.510  17.694  0.00  0.00    +0.000 C 
ATOM     11  C   UNL     1       7.821  13.084  17.482  0.00  0.00    +0.000 C 
ATOM     12  C   UNL     1       9.270  12.927  17.956  0.00  0.00    +0.000 C 
ATOM     13  C   UNL     1      10.186  13.666  16.936  0.00  0.00    +0.000 C 
ATOM     14  C   UNL     1       9.430  13.470  19.379  0.00  0.00    +0.000 C 
ATOM     15  C   UNL     1      10.836  13.051  19.785  0.00  0.00    +0.000 C 
ATOM     16  C   UNL     1      11.016  11.681  19.105  0.00  0.00    +0.000 C 
ATOM     17  C   UNL     1       9.789  11.464  18.169  0.00  0.00    +0.000 C 
ATOM     18  C   UNL     1       8.950  14.895  19.637  0.00  0.00    +0.000 C 
ATOM     19  C   UNL     1       9.049  15.219  21.148  0.00  0.00    +0.000 C 
ENDROOT
BRANCH   1  21
ATOM     20  C   UNL     1       8.506  18.022  23.729  0.00  0.00    +0.000 C 
ATOM     21  C   UNL     1       8.443  16.626  23.136  0.00  0.00    +0.000 C 
ENDBRANCH   1  21
BRANCH   4  22
ATOM     22  O   UNL     1       3.454  15.867  21.859  0.00  0.00    +0.000 OA
ATOM     23  H   UNL     1       2.600  16.254  21.606  0.00  0.00    +0.000 HD
ENDBRANCH   4  22
BRANCH  17  24
ATOM     24  C   UNL     1       8.758  10.391  18.709  0.00  0.00    +0.000 C 
ATOM     25  C   UNL     1       9.038   9.803  20.105  0.00  0.00    +0.000 C 
BRANCH  24  26
ATOM     26  C   UNL     1       8.585   9.227  17.702  0.00  0.00    +0.000 C 
BRANCH  26  27
ATOM     27  C   UNL     1       8.226   7.899  18.383  0.00  0.00    +0.000 C 
BRANCH  27  28
ATOM     28  C   UNL     1       7.627   6.890  17.415  0.00  0.00    +0.000 C 
ATOM     29  N   UNL     1       6.376   7.334  16.861  0.00  0.00    +0.000 N 
ATOM     30  C   UNL     1       5.317   6.572  17.296  0.00  0.00    +0.000 C 
ATOM     31  O   UNL     1       4.156   6.782  17.017  0.00  0.00    +0.000 OA
ATOM     32  N   UNL     1       5.796   5.577  18.075  0.00  0.00    +0.000 N 
ATOM     33  C   UNL     1       7.150   5.654  18.185  0.00  0.00    +0.000 C 
ATOM     34  O   UNL     1       7.853   4.892  18.825  0.00  0.00    +0.000 OA
ATOM     35  H   UNL     1       6.243   8.133  16.254  0.00  0.00    +0.000 HD
ATOM     36  H   UNL     1       5.224   4.878  18.509  0.00  0.00    +0.000 HD
ENDBRANCH  27  28
ENDBRANCH  26  27
ENDBRANCH  24  26
ENDBRANCH  17  24
BRANCH  19  37
ATOM     37  O   UNL     1       8.529  14.148  21.944  0.00  0.00    +0.000 OA
ATOM     38  H   UNL     1       9.086  14.038  22.729  0.00  0.00    +0.000 HD
ENDBRANCH  19  37
TORSDOF 7
ENDMDL
MODEL 8
REMARK VINA RESULT:      -6.8      7.046     10.920
REMARK  Name = 
REMARK  11 active torsions:
REMARK  status: ('A' for Active; 'I' for Inactive)
REMARK    1  A    between atoms: C_1  and  C_2
REMARK    2  A    between atoms: C_2  and  C_3
REMARK    3  A    between atoms: C_6  and  O_7
REMARK    4  A    between atoms: C_10  and  C_11
REMARK    5  A    between atoms: C_15  and  C_16
REMARK    6  A    between atoms: C_20  and  C_21
REMARK    7  A    between atoms: C_21  and  C_22
REMARK    8  A    between atoms: C_21  and  C_23
REMARK    9  A    between atoms: C_23  and  C_24
REMARK   10  A    between atoms: C_24  and  C_25
REMARK   11  A    between atoms: C_33  and  O_34
REMARK                            x       y       z     vdW  Elec       q    Type
REMARK                         _______ _______ _______ _____ _____    ______ ____
ROOT
ATOM      1  C   UNL     1      10.138  15.968  18.651  0.00  0.00    +0.000 C 
ATOM      2  C   UNL     1      10.592  14.637  19.344  0.00  0.00    +0.000 C 
ATOM      3  C   UNL     1      10.553  13.418  18.392  0.00  0.00    +0.000 C 
ATOM      4  C   UNL     1      11.000  12.122  19.059  0.00  0.00    +0.000 C 
ATOM      5  C   UNL     1      10.141  11.825  20.275  0.00  0.00    +0.000 C 
ATOM      6  C   UNL     1      10.269  12.962  21.276  0.00  0.00    +0.000 C 
ATOM      7  C   UNL     1       9.854  14.359  20.719  0.00  0.00    +0.000 C 
ATOM      8  C   UNL     1      10.337  15.385  21.781  0.00  0.00    +0.000 C 
ATOM      9  C   UNL     1       8.298  14.469  20.516  0.00  0.00    +0.000 C 
ATOM     10  C   UNL     1       7.448  14.025  21.739  0.00  0.00    +0.000 C 
ATOM     11  C   UNL     1       5.933  14.155  21.520  0.00  0.00    +0.000 C 
ATOM     12  C   UNL     1       5.534  15.552  21.036  0.00  0.00    +0.000 C 
ATOM     13  C   UNL     1       5.676  16.531  22.239  0.00  0.00    +0.000 C 
ATOM     14  C   UNL     1       6.396  15.971  19.841  0.00  0.00    +0.000 C 
ATOM     15  C   UNL     1       5.748  17.256  19.343  0.00  0.00    +0.000 C 
ATOM     16  C   UNL     1       4.245  17.020  19.584  0.00  0.00    +0.000 C 
ATOM     17  C   UNL     1       4.109  15.700  20.400  0.00  0.00    +0.000 C 
ATOM     18  C   UNL     1       7.910  15.895  20.016  0.00  0.00    +0.000 C 
ATOM     19  C   UNL     1       8.612  16.208  18.672  0.00  0.00    +0.000 C 
ENDROOT
BRANCH   1  21
ATOM     20  C   UNL     1      12.134  16.345  17.024  0.00  0.00    +0.000 C 
ATOM     21  C   UNL     1      10.637  16.160  17.188  0.00  0.00    +0.000 C 
ENDBRANCH   1  21
BRANCH   4  22
ATOM     22  O   UNL     1      10.917  11.048  18.132  0.00  0.00    +0.000 OA
ATOM     23  H   UNL     1      11.701  11.075  17.559  0.00  0.00    +0.000 HD
ENDBRANCH   4  22
BRANCH  17  24
ATOM     24  C   UNL     1       3.553  14.482  19.554  0.00  0.00    +0.000 C 
ATOM     25  C   UNL     1       3.100  14.789  18.114  0.00  0.00    +0.000 C 
BRANCH  24  26
ATOM     26  C   UNL     1       2.400  13.765  20.299  0.00  0.00    +0.000 C 
BRANCH  26  27
ATOM     27  C   UNL     1       1.752  12.653  19.463  0.00  0.00    +0.000 C 
BRANCH  27  28
ATOM     28  C   UNL     1       0.244  12.587  19.648  0.00  0.00    +0.000 C 
ATOM     29  N   UNL     1      -0.298  11.302  19.297  0.00  0.00    +0.000 N 
ATOM     30  C   UNL     1      -1.090  11.362  18.175  0.00  0.00    +0.000 C 
ATOM     31  O   UNL     1      -1.613  10.404  17.647  0.00  0.00    +0.000 OA
ATOM     32  N   UNL     1      -1.171  12.651  17.776  0.00  0.00    +0.000 N 
ATOM     33  C   UNL     1      -0.446  13.460  18.595  0.00  0.00    +0.000 C 
ATOM     34  O   UNL     1      -0.334  14.667  18.479  0.00  0.00    +0.000 OA
ATOM     35  H   UNL     1      -0.109  10.426  19.768  0.00  0.00    +0.000 HD
ATOM     36  H   UNL     1      -1.699  12.962  16.982  0.00  0.00    +0.000 HD
ENDBRANCH  27  28
ENDBRANCH  26  27
ENDBRANCH  24  26
ENDBRANCH  17  24
BRANCH  19  37
ATOM     37  O   UNL     1       7.994  15.505  17.587  0.00  0.00    +0.000 OA
ATOM     38  H   UNL     1       7.687  16.146  16.929  0.00  0.00    +0.000 HD
ENDBRANCH  19  37
TORSDOF 7
ENDMDL
MODEL 9
REMARK VINA RESULT:      -6.7      6.210      9.872
REMARK  Name = 
REMARK  11 active torsions:
REMARK  status: ('A' for Active; 'I' for Inactive)
REMARK    1  A    between atoms: C_1  and  C_2
REMARK    2  A    between atoms: C_2  and  C_3
REMARK    3  A    between atoms: C_6  and  O_7
REMARK    4  A    between atoms: C_10  and  C_11
REMARK    5  A    between atoms: C_15  and  C_16
REMARK    6  A    between atoms: C_20  and  C_21
REMARK    7  A    between atoms: C_21  and  C_22
REMARK    8  A    between atoms: C_21  and  C_23
REMARK    9  A    between atoms: C_23  and  C_24
REMARK   10  A    between atoms: C_24  and  C_25
REMARK   11  A    between atoms: C_33  and  O_34
REMARK                            x       y       z     vdW  Elec       q    Type
REMARK                         _______ _______ _______ _____ _____    ______ ____
ROOT
ATOM      1  C   UNL     1       9.165  15.715  18.974  0.00  0.00    +0.000 C 
ATOM      2  C   UNL     1       9.681  14.611  19.961  0.00  0.00    +0.000 C 
ATOM      3  C   UNL     1       9.832  13.225  19.290  0.00  0.00    +0.000 C 
ATOM      4  C   UNL     1      10.339  12.150  20.244  0.00  0.00    +0.000 C 
ATOM      5  C   UNL     1       9.414  12.019  21.441  0.00  0.00    +0.000 C 
ATOM      6  C   UNL     1       9.355  13.345  22.182  0.00  0.00    +0.000 C 
ATOM      7  C   UNL     1       8.861  14.545  21.317  0.00  0.00    +0.000 C 
ATOM      8  C   UNL     1       9.160  15.813  22.163  0.00  0.00    +0.000 C 
ATOM      9  C   UNL     1       7.323  14.444  21.000  0.00  0.00    +0.000 C 
ATOM     10  C   UNL     1       6.420  14.173  22.235  0.00  0.00    +0.000 C 
ATOM     11  C   UNL     1       4.923  14.092  21.902  0.00  0.00    +0.000 C 
ATOM     12  C   UNL     1       4.438  15.309  21.108  0.00  0.00    +0.000 C 
ATOM     13  C   UNL     1       4.391  16.524  22.081  0.00  0.00    +0.000 C 
ATOM     14  C   UNL     1       5.354  15.563  19.906  0.00  0.00    +0.000 C 
ATOM     15  C   UNL     1       4.633  16.641  19.107  0.00  0.00    +0.000 C 
ATOM     16  C   UNL     1       3.144  16.300  19.300  0.00  0.00    +0.000 C 
ATOM     17  C   UNL     1       3.063  15.169  20.369  0.00  0.00    +0.000 C 
ATOM     18  C   UNL     1       6.849  15.686  20.185  0.00  0.00    +0.000 C 
ATOM     19  C   UNL     1       7.627  15.789  18.851  0.00  0.00    +0.000 C 
ENDROOT
BRANCH   1  21
ATOM     20  C   UNL     1      10.804  16.708  17.214  0.00  0.00    +0.000 C 
ATOM     21  C   UNL     1       9.763  15.653  17.538  0.00  0.00    +0.000 C 
ENDBRANCH   1  21
BRANCH   4  22
ATOM     22  O   UNL     1      10.431  10.905  19.564  0.00  0.00    +0.000 OA
ATOM     23  H   UNL     1      10.004  10.997  18.696  0.00  0.00    +0.000 HD
ENDBRANCH   4  22
BRANCH  17  24
ATOM     24  C   UNL     1       2.693  13.752  19.770  0.00  0.00    +0.000 C 
ATOM     25  C   UNL     1       2.285  13.713  18.285  0.00  0.00    +0.000 C 
BRANCH  24  26
ATOM     26  C   UNL     1       1.589  13.062  20.609  0.00  0.00    +0.000 C 
BRANCH  26  27
ATOM     27  C   UNL     1       0.355  12.687  19.777  0.00  0.00    +0.000 C 
BRANCH  27  28
ATOM     28  C   UNL     1       0.098  11.187  19.757  0.00  0.00    +0.000 C 
ATOM     29  N   UNL     1       1.248  10.438  19.325  0.00  0.00    +0.000 N 
ATOM     30  C   UNL     1       1.045   9.834  18.106  0.00  0.00    +0.000 C 
ATOM     31  O   UNL     1       1.882   9.197  17.505  0.00  0.00    +0.000 OA
ATOM     32  N   UNL     1      -0.223  10.082  17.711  0.00  0.00    +0.000 N 
ATOM     33  C   UNL     1      -0.878  10.845  18.627  0.00  0.00    +0.000 C 
ATOM     34  O   UNL     1      -2.032  11.225  18.537  0.00  0.00    +0.000 OA
ATOM     35  H   UNL     1       2.133  10.373  19.810  0.00  0.00    +0.000 HD
ATOM     36  H   UNL     1      -0.622   9.743  16.855  0.00  0.00    +0.000 HD
ENDBRANCH  27  28
ENDBRANCH  26  27
ENDBRANCH  24  26
ENDBRANCH  17  24
BRANCH  19  37
ATOM     37  O   UNL     1       7.167  14.817  17.905  0.00  0.00    +0.000 OA
ATOM     38  H   UNL     1       6.200  14.783  17.930  0.00  0.00    +0.000 HD
ENDBRANCH  19  37
TORSDOF 7
ENDMDL
