MODEL 1
REMARK VINA RESULT:      -7.3      0.000      0.000
REMARK  Name = 
REMARK  2 active torsions:
REMARK  status: ('A' for Active; 'I' for Inactive)
REMARK    1  A    between atoms: C_2  and  C_3
REMARK    2  A    between atoms: C_3  and  C_4
REMARK                            x       y       z     vdW  Elec       q    Type
REMARK                         _______ _______ _______ _____ _____    ______ ____
ROOT
ATOM      1  O   UNL     1       4.509   4.319  16.297  0.00  0.00    +0.000 OA
ATOM      2  C   UNL     1       4.713   3.839  17.409  0.00  0.00    +0.000 C 
ATOM      3  N   UNL     1       5.640   4.277  18.331  0.00  0.00    +0.000 N 
ATOM      4  C   UNL     1       6.347   5.433  18.141  0.00  0.00    +0.000 A 
ATOM      5  N   UNL     1       6.144   6.393  17.278  0.00  0.00    +0.000 NA
ATOM      6  C   UNL     1       7.119   7.359  17.424  0.00  0.00    +0.000 A 
ATOM      7  C   UNL     1       8.057   7.108  18.404  0.00  0.00    +0.000 A 
ATOM      8  S   UNL     1       7.664   5.643  19.210  0.00  0.00    +0.000 S 
ATOM      9  H   UNL     1       5.902   3.702  19.118  0.00  0.00    +0.000 HD
ENDROOT
BRANCH   2  10
ATOM     10  C   UNL     1       3.921   2.634  17.885  0.00  0.00    +0.000 C 
BRANCH  10  11
ATOM     11  C   UNL     1       3.040   2.931  19.071  0.00  0.00    +0.000 A 
ATOM     12  C   UNL     1       3.440   2.496  20.340  0.00  0.00    +0.000 A 
ATOM     13  F   UNL     1       4.588   1.819  20.481  0.00  0.00    +0.000 F 
ATOM     14  C   UNL     1       2.667   2.722  21.476  0.00  0.00    +0.000 A 
ATOM     15  C   UNL     1       1.456   3.397  21.363  0.00  0.00    +0.000 A 
ATOM     16  C   UNL     1       1.042   3.857  20.113  0.00  0.00    +0.000 A 
ATOM     17  C   UNL     1       1.832   3.635  18.977  0.00  0.00    +0.000 A 
ATOM     18 CL   UNL     1       1.258   4.254  17.468  0.00  0.00    +0.000 Cl
ENDBRANCH  10  11
ENDBRANCH   2  10
TORSDOF 2
ENDMDL
MODEL 2
REMARK VINA RESULT:      -7.2      1.764      2.113
REMARK  Name = 
REMARK  2 active torsions:
REMARK  status: ('A' for Active; 'I' for Inactive)
REMARK    1  A    between atoms: C_2  and  C_3
REMARK    2  A    between atoms: C_3  and  C_4
REMARK                            x       y       z     vdW  Elec       q    Type
REMARK                         _______ _______ _______ _____ _____    ______ ____
ROOT
ATOM      1  O   UNL     1       4.545   4.358  16.149  0.00  0.00    +0.000 OA
ATOM      2  C   UNL     1       4.712   3.865  17.261  0.00  0.00    +0.000 C 
ATOM      3  N   UNL     1       5.611   4.289  18.216  0.00  0.00    +0.000 N 
ATOM      4  C   UNL     1       6.327   5.445  18.062  0.00  0.00    +0.000 A 
ATOM      5  N   UNL     1       6.154   6.415  17.203  0.00  0.00    +0.000 NA
ATOM      6  C   UNL     1       7.127   7.376  17.391  0.00  0.00    +0.000 A 
ATOM      7  C   UNL     1       8.033   7.111  18.397  0.00  0.00    +0.000 A 
ATOM      8  S   UNL     1       7.610   5.638  19.174  0.00  0.00    +0.000 S 
ATOM      9  H   UNL     1       5.846   3.704  19.005  0.00  0.00    +0.000 HD
ENDROOT
BRANCH   2  10
ATOM     10  C   UNL     1       3.903   2.657  17.698  0.00  0.00    +0.000 C 
BRANCH  10  11
ATOM     11  C   UNL     1       3.037   2.925  18.901  0.00  0.00    +0.000 A 
ATOM     12  C   UNL     1       1.811   3.579  18.725  0.00  0.00    +0.000 A 
ATOM     13  F   UNL     1       1.432   3.962  17.498  0.00  0.00    +0.000 F 
ATOM     14  C   UNL     1       0.969   3.872  19.794  0.00  0.00    +0.000 A 
ATOM     15  C   UNL     1       1.344   3.513  21.085  0.00  0.00    +0.000 A 
ATOM     16  C   UNL     1       2.551   2.845  21.287  0.00  0.00    +0.000 A 
ATOM     17  C   UNL     1       3.387   2.544  20.204  0.00  0.00    +0.000 A 
ATOM     18 CL   UNL     1       4.857   1.696  20.536  0.00  0.00    +0.000 Cl
ENDBRANCH  10  11
ENDBRANCH   2  10
TORSDOF 2
ENDMDL
MODEL 3
REMARK VINA RESULT:      -6.4      3.196      3.759
REMARK  Name = 
REMARK  2 active torsions:
REMARK  status: ('A' for Active; 'I' for Inactive)
REMARK    1  A    between atoms: C_2  and  C_3
REMARK    2  A    between atoms: C_3  and  C_4
REMARK                            x       y       z     vdW  Elec       q    Type
REMARK                         _______ _______ _______ _____ _____    ______ ____
ROOT
ATOM      1  O   UNL     1       7.162   6.766  16.699  0.00  0.00    +0.000 OA
ATOM      2  C   UNL     1       6.505   5.752  16.917  0.00  0.00    +0.000 C 
ATOM      3  N   UNL     1       6.176   4.778  15.999  0.00  0.00    +0.000 N 
ATOM      4  C   UNL     1       6.702   4.778  14.736  0.00  0.00    +0.000 A 
ATOM      5  N   UNL     1       7.705   5.466  14.259  0.00  0.00    +0.000 NA
ATOM      6  C   UNL     1       7.874   5.169  12.922  0.00  0.00    +0.000 A 
ATOM      7  C   UNL     1       6.983   4.253  12.403  0.00  0.00    +0.000 A 
ATOM      8  S   UNL     1       5.940   3.700  13.651  0.00  0.00    +0.000 S 
ATOM      9  H   UNL     1       5.454   4.100  16.197  0.00  0.00    +0.000 HD
ENDROOT
BRANCH   2  10
ATOM     10  C   UNL     1       5.950   5.478  18.304  0.00  0.00    +0.000 C 
BRANCH  10  11
ATOM     11  C   UNL     1       4.505   5.052  18.293  0.00  0.00    +0.000 A 
ATOM     12  C   UNL     1       4.178   3.748  18.682  0.00  0.00    +0.000 A 
ATOM     13  F   UNL     1       5.149   2.899  19.048  0.00  0.00    +0.000 F 
ATOM     14  C   UNL     1       2.865   3.283  18.681  0.00  0.00    +0.000 A 
ATOM     15  C   UNL     1       1.836   4.128  18.281  0.00  0.00    +0.000 A 
ATOM     16  C   UNL     1       2.131   5.438  17.904  0.00  0.00    +0.000 A 
ATOM     17  C   UNL     1       3.454   5.901  17.919  0.00  0.00    +0.000 A 
ATOM     18 CL   UNL     1       3.735   7.543  17.459  0.00  0.00    +0.000 Cl
ENDBRANCH  10  11
ENDBRANCH   2  10
TORSDOF 2
ENDMDL
MODEL 4
REMARK VINA RESULT:      -6.3      4.305      4.933
REMARK  Name = 
REMARK  2 active torsions:
REMARK  status: ('A' for Active; 'I' for Inactive)
REMARK    1  A    between atoms: C_2  and  C_3
REMARK    2  A    between atoms: C_3  and  C_4
REMARK                            x       y       z     vdW  Elec       q    Type
REMARK                         _______ _______ _______ _____ _____    ______ ____
ROOT
ATOM      1  O   UNL     1       3.002   7.424  18.191  0.00  0.00    +0.000 OA
ATOM      2  C   UNL     1       2.866   6.953  19.317  0.00  0.00    +0.000 C 
ATOM      3  N   UNL     1       2.173   7.523  20.363  0.00  0.00    +0.000 N 
ATOM      4  C   UNL     1       1.413   8.647  20.190  0.00  0.00    +0.000 A 
ATOM      5  N   UNL     1       1.016   9.213  19.080  0.00  0.00    +0.000 NA
ATOM      6  C   UNL     1       0.287  10.347  19.376  0.00  0.00    +0.000 A 
ATOM      7  C   UNL     1       0.145  10.625  20.720  0.00  0.00    +0.000 A 
ATOM      8  S   UNL     1       0.899   9.387  21.642  0.00  0.00    +0.000 S 
ATOM      9  H   UNL     1       2.294   7.191  21.309  0.00  0.00    +0.000 HD
ENDROOT
BRANCH   2  10
ATOM     10  C   UNL     1       3.506   5.624  19.678  0.00  0.00    +0.000 C 
BRANCH  10  11
ATOM     11  C   UNL     1       2.684   4.433  19.258  0.00  0.00    +0.000 A 
ATOM     12  C   UNL     1       1.650   3.993  20.093  0.00  0.00    +0.000 A 
ATOM     13  F   UNL     1       1.412   4.627  21.249  0.00  0.00    +0.000 F 
ATOM     14  C   UNL     1       0.862   2.890  19.774  0.00  0.00    +0.000 A 
ATOM     15  C   UNL     1       1.098   2.191  18.595  0.00  0.00    +0.000 A 
ATOM     16  C   UNL     1       2.112   2.618  17.737  0.00  0.00    +0.000 A 
ATOM     17  C   UNL     1       2.893   3.736  18.060  0.00  0.00    +0.000 A 
ATOM     18 CL   UNL     1       4.115   4.213  16.934  0.00  0.00    +0.000 Cl
ENDBRANCH  10  11
ENDBRANCH   2  10
TORSDOF 2
ENDMDL
MODEL 5
REMARK VINA RESULT:      -6.3      4.675      5.619
REMARK  Name = 
REMARK  2 active torsions:
REMARK  status: ('A' for Active; 'I' for Inactive)
REMARK    1  A    between atoms: C_2  and  C_3
REMARK    2  A    between atoms: C_3  and  C_4
REMARK                            x       y       z     vdW  Elec       q    Type
REMARK                         _______ _______ _______ _____ _____    ______ ____
ROOT
ATOM      1  O   UNL     1       1.969   6.119  20.410  0.00  0.00    +0.000 OA
ATOM      2  C   UNL     1       2.220   6.873  19.473  0.00  0.00    +0.000 C 
ATOM      3  N   UNL     1       1.847   8.195  19.367  0.00  0.00    +0.000 N 
ATOM      4  C   UNL     1       1.264   8.862  20.410  0.00  0.00    +0.000 A 
ATOM      5  N   UNL     1       1.177   8.512  21.667  0.00  0.00    +0.000 NA
ATOM      6  C   UNL     1       0.480   9.477  22.366  0.00  0.00    +0.000 A 
ATOM      7  C   UNL     1       0.044  10.551  21.617  0.00  0.00    +0.000 A 
ATOM      8  S   UNL     1       0.582  10.373  19.995  0.00  0.00    +0.000 S 
ATOM      9  H   UNL     1       1.893   8.678  18.481  0.00  0.00    +0.000 HD
ENDROOT
BRANCH   2  10
ATOM     10  C   UNL     1       2.998   6.373  18.269  0.00  0.00    +0.000 C 
BRANCH  10  11
ATOM     11  C   UNL     1       3.173   4.876  18.253  0.00  0.00    +0.000 A 
ATOM     12  C   UNL     1       2.147   4.078  17.734  0.00  0.00    +0.000 A 
ATOM     13  F   UNL     1       1.028   4.650  17.268  0.00  0.00    +0.000 F 
ATOM     14  C   UNL     1       2.236   2.688  17.702  0.00  0.00    +0.000 A 
ATOM     15  C   UNL     1       3.370   2.059  18.202  0.00  0.00    +0.000 A 
ATOM     16  C   UNL     1       4.415   2.831  18.711  0.00  0.00    +0.000 A 
ATOM     17  C   UNL     1       4.322   4.229  18.727  0.00  0.00    +0.000 A 
ATOM     18 CL   UNL     1       5.668   5.115  19.354  0.00  0.00    +0.000 Cl
ENDBRANCH  10  11
ENDBRANCH   2  10
TORSDOF 2
ENDMDL
MODEL 6
REMARK VINA RESULT:      -6.3      4.528      5.248
REMARK  Name = 
REMARK  2 active torsions:
REMARK  status: ('A' for Active; 'I' for Inactive)
REMARK    1  A    between atoms: C_2  and  C_3
REMARK    2  A    between atoms: C_3  and  C_4
REMARK                            x       y       z     vdW  Elec       q    Type
REMARK                         _______ _______ _______ _____ _____    ______ ____
ROOT
ATOM      1  O   UNL     1       2.695   7.008  18.832  0.00  0.00    +0.000 OA
ATOM      2  C   UNL     1       2.337   6.767  19.982  0.00  0.00    +0.000 C 
ATOM      3  N   UNL     1       1.683   7.633  20.832  0.00  0.00    +0.000 N 
ATOM      4  C   UNL     1       1.220   8.846  20.401  0.00  0.00    +0.000 A 
ATOM      5  N   UNL     1       1.082   9.291  19.179  0.00  0.00    +0.000 NA
ATOM      6  C   UNL     1       0.601  10.584  19.211  0.00  0.00    +0.000 A 
ATOM      7  C   UNL     1       0.383  11.104  20.471  0.00  0.00    +0.000 A 
ATOM      8  S   UNL     1       0.735   9.906  21.651  0.00  0.00    +0.000 S 
ATOM      9  H   UNL     1       1.625   7.444  21.822  0.00  0.00    +0.000 HD
ENDROOT
BRANCH   2  10
ATOM     10  C   UNL     1       2.619   5.413  20.609  0.00  0.00    +0.000 C 
BRANCH  10  11
ATOM     11  C   UNL     1       2.607   4.282  19.613  0.00  0.00    +0.000 A 
ATOM     12  C   UNL     1       1.413   3.586  19.391  0.00  0.00    +0.000 A 
ATOM     13  F   UNL     1       0.307   3.926  20.067  0.00  0.00    +0.000 F 
ATOM     14  C   UNL     1       1.334   2.521  18.497  0.00  0.00    +0.000 A 
ATOM     15  C   UNL     1       2.469   2.122  17.799  0.00  0.00    +0.000 A 
ATOM     16  C   UNL     1       3.668   2.809  17.988  0.00  0.00    +0.000 A 
ATOM     17  C   UNL     1       3.735   3.888  18.881  0.00  0.00    +0.000 A 
ATOM     18 CL   UNL     1       5.252   4.700  19.045  0.00  0.00    +0.000 Cl
ENDBRANCH  10  11
ENDBRANCH   2  10
TORSDOF 2
ENDMDL
MODEL 7
REMARK VINA RESULT:      -6.3      3.617      4.190
REMARK  Name = 
REMARK  2 active torsions:
REMARK  status: ('A' for Active; 'I' for Inactive)
REMARK    1  A    between atoms: C_2  and  C_3
REMARK    2  A    between atoms: C_3  and  C_4
REMARK                            x       y       z     vdW  Elec       q    Type
REMARK                         _______ _______ _______ _____ _____    ______ ____
ROOT
ATOM      1  O   UNL     1       6.961   6.256  16.617  0.00  0.00    +0.000 OA
ATOM      2  C   UNL     1       6.372   5.179  16.627  0.00  0.00    +0.000 C 
ATOM      3  N   UNL     1       6.173   4.347  15.546  0.00  0.00    +0.000 N 
ATOM      4  C   UNL     1       6.771   4.586  14.339  0.00  0.00    +0.000 A 
ATOM      5  N   UNL     1       7.746   5.407  14.049  0.00  0.00    +0.000 NA
ATOM      6  C   UNL     1       8.017   5.342  12.697  0.00  0.00    +0.000 A 
ATOM      7  C   UNL     1       7.230   4.466  11.978  0.00  0.00    +0.000 A 
ATOM      8  S   UNL     1       6.160   3.651  13.046  0.00  0.00    +0.000 S 
ATOM      9  H   UNL     1       5.494   3.600  15.582  0.00  0.00    +0.000 HD
ENDROOT
BRANCH   2  10
ATOM     10  C   UNL     1       5.757   4.647  17.910  0.00  0.00    +0.000 C 
BRANCH  10  11
ATOM     11  C   UNL     1       4.251   4.661  17.899  0.00  0.00    +0.000 A 
ATOM     12  C   UNL     1       3.583   5.891  17.928  0.00  0.00    +0.000 A 
ATOM     13  F   UNL     1       4.287   7.031  17.974  0.00  0.00    +0.000 F 
ATOM     14  C   UNL     1       2.193   5.977  17.936  0.00  0.00    +0.000 A 
ATOM     15  C   UNL     1       1.430   4.815  17.917  0.00  0.00    +0.000 A 
ATOM     16  C   UNL     1       2.070   3.576  17.871  0.00  0.00    +0.000 A 
ATOM     17  C   UNL     1       3.469   3.499  17.852  0.00  0.00    +0.000 A 
ATOM     18 CL   UNL     1       4.185   1.927  17.773  0.00  0.00    +0.000 Cl
ENDBRANCH  10  11
ENDBRANCH   2  10
TORSDOF 2
ENDMDL
MODEL 8
REMARK VINA RESULT:      -6.2      2.367      2.671
REMARK  Name = 
REMARK  2 active torsions:
REMARK  status: ('A' for Active; 'I' for Inactive)
REMARK    1  A    between atoms: C_2  and  C_3
REMARK    2  A    between atoms: C_3  and  C_4
REMARK                            x       y       z     vdW  Elec       q    Type
REMARK                         _______ _______ _______ _____ _____    ______ ____
ROOT
ATOM      1  O   UNL     1       3.456   6.832  17.927  0.00  0.00    +0.000 OA
ATOM      2  C   UNL     1       3.139   5.690  17.605  0.00  0.00    +0.000 C 
ATOM      3  N   UNL     1       3.923   4.788  16.918  0.00  0.00    +0.000 N 
ATOM      4  C   UNL     1       5.241   5.042  16.651  0.00  0.00    +0.000 A 
ATOM      5  N   UNL     1       6.021   5.965  17.148  0.00  0.00    +0.000 NA
ATOM      6  C   UNL     1       7.272   5.869  16.575  0.00  0.00    +0.000 A 
ATOM      7  C   UNL     1       7.419   4.866  15.639  0.00  0.00    +0.000 A 
ATOM      8  S   UNL     1       5.955   3.974  15.523  0.00  0.00    +0.000 S 
ATOM      9  H   UNL     1       3.519   3.964  16.497  0.00  0.00    +0.000 HD
ENDROOT
BRANCH   2  10
ATOM     10  C   UNL     1       1.761   5.148  17.942  0.00  0.00    +0.000 C 
BRANCH  10  11
ATOM     11  C   UNL     1       1.758   4.233  19.139  0.00  0.00    +0.000 A 
ATOM     12  C   UNL     1       1.818   2.850  18.937  0.00  0.00    +0.000 A 
ATOM     13  F   UNL     1       1.869   2.360  17.690  0.00  0.00    +0.000 F 
ATOM     14  C   UNL     1       1.804   1.946  19.997  0.00  0.00    +0.000 A 
ATOM     15  C   UNL     1       1.724   2.417  21.303  0.00  0.00    +0.000 A 
ATOM     16  C   UNL     1       1.681   3.792  21.534  0.00  0.00    +0.000 A 
ATOM     17  C   UNL     1       1.707   4.694  20.462  0.00  0.00    +0.000 A 
ATOM     18 CL   UNL     1       1.671   6.382  20.834  0.00  0.00    +0.000 Cl
ENDBRANCH  10  11
ENDBRANCH   2  10
TORSDOF 2
ENDMDL
MODEL 9
REMARK VINA RESULT:      -6.2      3.942      5.553
REMARK  Name = 
REMARK  2 active torsions:
REMARK  status: ('A' for Active; 'I' for Inactive)
REMARK    1  A    between atoms: C_2  and  C_3
REMARK    2  A    between atoms: C_3  and  C_4
REMARK                            x       y       z     vdW  Elec       q    Type
REMARK                         _______ _______ _______ _____ _____    ______ ____
ROOT
ATOM      1  O   UNL     1       2.220   5.502  19.676  0.00  0.00    +0.000 OA
ATOM      2  C   UNL     1       2.757   6.018  18.700  0.00  0.00    +0.000 C 
ATOM      3  N   UNL     1       2.594   7.318  18.270  0.00  0.00    +0.000 N 
ATOM      4  C   UNL     1       1.903   8.236  19.012  0.00  0.00    +0.000 A 
ATOM      5  N   UNL     1       1.512   8.166  20.258  0.00  0.00    +0.000 NA
ATOM      6  C   UNL     1       0.822   9.314  20.590  0.00  0.00    +0.000 A 
ATOM      7  C   UNL     1       0.697  10.243  19.578  0.00  0.00    +0.000 A 
ATOM      8  S   UNL     1       1.529   9.683  18.183  0.00  0.00    +0.000 S 
ATOM      9  H   UNL     1       2.886   7.600  17.345  0.00  0.00    +0.000 HD
ENDROOT
BRANCH   2  10
ATOM     10  C   UNL     1       3.692   5.210  17.818  0.00  0.00    +0.000 C 
BRANCH  10  11
ATOM     11  C   UNL     1       5.135   5.625  17.944  0.00  0.00    +0.000 A 
ATOM     12  C   UNL     1       5.859   5.231  19.075  0.00  0.00    +0.000 A 
ATOM     13  F   UNL     1       5.262   4.503  20.028  0.00  0.00    +0.000 F 
ATOM     14  C   UNL     1       7.191   5.592  19.263  0.00  0.00    +0.000 A 
ATOM     15  C   UNL     1       7.836   6.371  18.308  0.00  0.00    +0.000 A 
ATOM     16  C   UNL     1       7.143   6.763  17.163  0.00  0.00    +0.000 A 
ATOM     17  C   UNL     1       5.806   6.386  16.976  0.00  0.00    +0.000 A 
ATOM     18 CL   UNL     1       5.025   6.895  15.521  0.00  0.00    +0.000 Cl
ENDBRANCH  10  11
ENDBRANCH   2  10
TORSDOF 2
ENDMDL
