MODEL 1
REMARK VINA RESULT:      -7.9      0.000      0.000
REMARK  Name = 
REMARK  8 active torsions:
REMARK  status: ('A' for Active; 'I' for Inactive)
REMARK    1  A    between atoms: C_1  and  C_2
REMARK    2  A    between atoms: C_2  and  N_3
REMARK    3  A    between atoms: N_3  and  C_4
REMARK    4  A    between atoms: C_4  and  C_5
REMARK    5  A    between atoms: N_13  and  C_14
REMARK    6  A    between atoms: C_16  and  C_17
REMARK    7  A    between atoms: C_26  and  C_27
REMARK    8  A    between atoms: C_27  and  O_29
REMARK                            x       y       z     vdW  Elec       q    Type
REMARK                         _______ _______ _______ _____ _____    ______ ____
ROOT
ATOM      1  C   UNL     1       3.747   5.126  19.252  0.00  0.00    +0.000 A 
ATOM      2  C   UNL     1       3.376   6.507  19.395  0.00  0.00    +0.000 A 
ATOM      3  C   UNL     1       2.216   6.716  20.108  0.00  0.00    +0.000 A 
ATOM      4  S   UNL     1       1.706   5.236  20.807  0.00  0.00    +0.000 S 
ATOM      5  C   UNL     1       2.971   4.328  20.070  0.00  0.00    +0.000 A 
ENDROOT
BRANCH   3   6
ATOM      6  C   UNL     1       1.452   7.968  20.312  0.00  0.00    +0.000 A 
ATOM      7  C   UNL     1       0.832   8.210  21.552  0.00  0.00    +0.000 A 
ATOM      8  C   UNL     1       0.090   9.372  21.790  0.00  0.00    +0.000 A 
ATOM      9  C   UNL     1      -0.026  10.333  20.793  0.00  0.00    +0.000 A 
ATOM     10 CL   UNL     1      -0.940  11.761  21.085  0.00  0.00    +0.000 Cl
ATOM     11  C   UNL     1       0.584  10.139  19.562  0.00  0.00    +0.000 A 
ATOM     12  C   UNL     1       1.309   8.965  19.314  0.00  0.00    +0.000 A 
ATOM     13 CL   UNL     1       1.938   8.819  17.706  0.00  0.00    +0.000 Cl
ENDBRANCH   3   6
BRANCH   1  17
ATOM     14  N   UNL     1       5.589   4.092  16.257  0.00  0.00    +0.000 N 
ATOM     15  C   UNL     1       4.508   4.308  17.101  0.00  0.00    +0.000 C 
ATOM     16  O   UNL     1       3.346   4.223  16.693  0.00  0.00    +0.000 OA
ATOM     17  N   UNL     1       4.772   4.655  18.408  0.00  0.00    +0.000 N 
ATOM     18  H   UNL     1       5.573   4.240  18.859  0.00  0.00    +0.000 HD
BRANCH  14  20
ATOM     19  C   UNL     1       6.504   4.152  13.804  0.00  0.00    +0.000 C 
ATOM     20  C   UNL     1       5.368   3.919  14.801  0.00  0.00    +0.000 C 
ENDBRANCH  14  20
BRANCH  14  21
ATOM     21  C   UNL     1       7.000   4.168  16.685  0.00  0.00    +0.000 C 
BRANCH  21  22
ATOM     22  C   UNL     1       7.366   5.481  17.350  0.00  0.00    +0.000 A 
ATOM     23  C   UNL     1       7.189   6.706  16.687  0.00  0.00    +0.000 A 
ATOM     24  C   UNL     1       7.623   7.905  17.259  0.00  0.00    +0.000 A 
ATOM     25  C   UNL     1       8.207   7.903  18.521  0.00  0.00    +0.000 A 
ATOM     26  C   UNL     1       8.310   6.709  19.230  0.00  0.00    +0.000 A 
ATOM     27  C   UNL     1       7.888   5.508  18.652  0.00  0.00    +0.000 A 
ENDBRANCH  21  22
ENDBRANCH  14  21
ENDBRANCH   1  17
BRANCH   5  28
ATOM     28  C   UNL     1       3.093   2.910  20.304  0.00  0.00    +0.000 C 
ATOM     29  O   UNL     1       3.321   2.399  21.392  0.00  0.00    +0.000 OA
BRANCH  28  30
ATOM     30  O   UNL     1       2.908   2.150  19.185  0.00  0.00    +0.000 OA
ATOM     31  H   UNL     1       3.686   1.577  19.005  0.00  0.00    +0.000 HD
ENDBRANCH  28  30
ENDBRANCH   5  28
TORSDOF 7
ENDMDL
MODEL 2
REMARK VINA RESULT:      -7.7      0.459      1.018
REMARK  Name = 
REMARK  8 active torsions:
REMARK  status: ('A' for Active; 'I' for Inactive)
REMARK    1  A    between atoms: C_1  and  C_2
REMARK    2  A    between atoms: C_2  and  N_3
REMARK    3  A    between atoms: N_3  and  C_4
REMARK    4  A    between atoms: C_4  and  C_5
REMARK    5  A    between atoms: N_13  and  C_14
REMARK    6  A    between atoms: C_16  and  C_17
REMARK    7  A    between atoms: C_26  and  C_27
REMARK    8  A    between atoms: C_27  and  O_29
REMARK                            x       y       z     vdW  Elec       q    Type
REMARK                         _______ _______ _______ _____ _____    ______ ____
ROOT
ATOM      1  C   UNL     1       3.665   5.096  19.184  0.00  0.00    +0.000 A 
ATOM      2  C   UNL     1       3.384   6.491  19.387  0.00  0.00    +0.000 A 
ATOM      3  C   UNL     1       2.239   6.744  20.110  0.00  0.00    +0.000 A 
ATOM      4  S   UNL     1       1.632   5.272  20.745  0.00  0.00    +0.000 S 
ATOM      5  C   UNL     1       2.837   4.316  19.968  0.00  0.00    +0.000 A 
ENDROOT
BRANCH   3   6
ATOM      6  C   UNL     1       1.558   8.033  20.368  0.00  0.00    +0.000 A 
ATOM      7  C   UNL     1       1.113   8.337  21.668  0.00  0.00    +0.000 A 
ATOM      8  C   UNL     1       0.455   9.536  21.960  0.00  0.00    +0.000 A 
ATOM      9  C   UNL     1       0.249  10.473  20.955  0.00  0.00    +0.000 A 
ATOM     10 CL   UNL     1      -0.562  11.946  21.314  0.00  0.00    +0.000 Cl
ATOM     11  C   UNL     1       0.686  10.218  19.663  0.00  0.00    +0.000 A 
ATOM     12  C   UNL     1       1.326   9.007  19.363  0.00  0.00    +0.000 A 
ATOM     13 CL   UNL     1       1.736   8.789  17.694  0.00  0.00    +0.000 Cl
ENDBRANCH   3   6
BRANCH   1  17
ATOM     14  N   UNL     1       5.446   4.088  16.144  0.00  0.00    +0.000 N 
ATOM     15  C   UNL     1       4.378   4.338  16.995  0.00  0.00    +0.000 C 
ATOM     16  O   UNL     1       3.216   4.361  16.580  0.00  0.00    +0.000 OA
ATOM     17  N   UNL     1       4.658   4.596  18.319  0.00  0.00    +0.000 N 
ATOM     18  H   UNL     1       5.423   4.099  18.751  0.00  0.00    +0.000 HD
BRANCH  14  20
ATOM     19  C   UNL     1       6.401   4.052  13.706  0.00  0.00    +0.000 C 
ATOM     20  C   UNL     1       5.223   4.008  14.681  0.00  0.00    +0.000 C 
ENDBRANCH  14  20
BRANCH  14  21
ATOM     21  C   UNL     1       6.856   4.037  16.580  0.00  0.00    +0.000 C 
BRANCH  21  22
ATOM     22  C   UNL     1       7.333   5.310  17.252  0.00  0.00    +0.000 A 
ATOM     23  C   UNL     1       7.884   5.288  18.543  0.00  0.00    +0.000 A 
ATOM     24  C   UNL     1       8.225   6.473  19.202  0.00  0.00    +0.000 A 
ATOM     25  C   UNL     1       8.059   7.697  18.563  0.00  0.00    +0.000 A 
ATOM     26  C   UNL     1       7.597   7.732  17.250  0.00  0.00    +0.000 A 
ATOM     27  C   UNL     1       7.242   6.547  16.597  0.00  0.00    +0.000 A 
ENDBRANCH  21  22
ENDBRANCH  14  21
ENDBRANCH   1  17
BRANCH   5  28
ATOM     28  C   UNL     1       2.866   2.884  20.141  0.00  0.00    +0.000 C 
ATOM     29  O   UNL     1       1.880   2.183  20.328  0.00  0.00    +0.000 OA
BRANCH  28  30
ATOM     30  O   UNL     1       4.117   2.345  20.057  0.00  0.00    +0.000 OA
ATOM     31  H   UNL     1       4.645   2.530  20.866  0.00  0.00    +0.000 HD
ENDBRANCH  28  30
ENDBRANCH   5  28
TORSDOF 7
ENDMDL
MODEL 3
REMARK VINA RESULT:      -7.7      4.166      8.869
REMARK  Name = 
REMARK  8 active torsions:
REMARK  status: ('A' for Active; 'I' for Inactive)
REMARK    1  A    between atoms: C_1  and  C_2
REMARK    2  A    between atoms: C_2  and  N_3
REMARK    3  A    between atoms: N_3  and  C_4
REMARK    4  A    between atoms: C_4  and  C_5
REMARK    5  A    between atoms: N_13  and  C_14
REMARK    6  A    between atoms: C_16  and  C_17
REMARK    7  A    between atoms: C_26  and  C_27
REMARK    8  A    between atoms: C_27  and  O_29
REMARK                            x       y       z     vdW  Elec       q    Type
REMARK                         _______ _______ _______ _____ _____    ______ ____
ROOT
ATOM      1  C   UNL     1       1.197   9.062  19.287  0.00  0.00    +0.000 A 
ATOM      2  C   UNL     1       1.825   8.344  18.211  0.00  0.00    +0.000 A 
ATOM      3  C   UNL     1       2.562   7.250  18.608  0.00  0.00    +0.000 A 
ATOM      4  S   UNL     1       2.294   6.961  20.276  0.00  0.00    +0.000 S 
ATOM      5  C   UNL     1       1.288   8.347  20.465  0.00  0.00    +0.000 A 
ENDROOT
BRANCH   3   6
ATOM      6  C   UNL     1       3.464   6.388  17.812  0.00  0.00    +0.000 A 
ATOM      7  C   UNL     1       4.624   6.938  17.236  0.00  0.00    +0.000 A 
ATOM      8  C   UNL     1       5.502   6.167  16.466  0.00  0.00    +0.000 A 
ATOM      9  C   UNL     1       5.247   4.815  16.276  0.00  0.00    +0.000 A 
ATOM     10 CL   UNL     1       6.324   3.868  15.328  0.00  0.00    +0.000 Cl
ATOM     11  C   UNL     1       4.122   4.231  16.840  0.00  0.00    +0.000 A 
ATOM     12  C   UNL     1       3.229   5.006  17.593  0.00  0.00    +0.000 A 
ATOM     13 CL   UNL     1       1.825   4.164  18.159  0.00  0.00    +0.000 Cl
ENDBRANCH   3   6
BRANCH   1  17
ATOM     14  N   UNL     1      -1.241  11.651  18.398  0.00  0.00    +0.000 N 
ATOM     15  C   UNL     1      -0.508  10.475  18.302  0.00  0.00    +0.000 C 
ATOM     16  O   UNL     1      -0.818   9.588  17.502  0.00  0.00    +0.000 OA
ATOM     17  N   UNL     1       0.563  10.313  19.153  0.00  0.00    +0.000 N 
ATOM     18  H   UNL     1       1.113  11.125  19.389  0.00  0.00    +0.000 HD
BRANCH  14  20
ATOM     19  C   UNL     1      -3.775  11.054  18.116  0.00  0.00    +0.000 C 
ATOM     20  C   UNL     1      -2.516  11.791  17.656  0.00  0.00    +0.000 C 
ENDBRANCH  14  20
BRANCH  14  21
ATOM     21  C   UNL     1      -0.916  12.753  19.325  0.00  0.00    +0.000 C 
BRANCH  21  22
ATOM     22  C   UNL     1      -1.559  12.610  20.692  0.00  0.00    +0.000 A 
ATOM     23  C   UNL     1      -0.901  11.943  21.738  0.00  0.00    +0.000 A 
ATOM     24  C   UNL     1      -1.536  11.720  22.963  0.00  0.00    +0.000 A 
ATOM     25  C   UNL     1      -2.826  12.196  23.175  0.00  0.00    +0.000 A 
ATOM     26  C   UNL     1      -3.460  12.936  22.180  0.00  0.00    +0.000 A 
ATOM     27  C   UNL     1      -2.829  13.147  20.950  0.00  0.00    +0.000 A 
ENDBRANCH  21  22
ENDBRANCH  14  21
ENDBRANCH   1  17
BRANCH   5  28
ATOM     28  C   UNL     1       0.699   8.662  21.744  0.00  0.00    +0.000 C 
ATOM     29  O   UNL     1       1.257   9.289  22.635  0.00  0.00    +0.000 OA
BRANCH  28  30
ATOM     30  O   UNL     1      -0.580   8.208  21.886  0.00  0.00    +0.000 OA
ATOM     31  H   UNL     1      -0.889   8.283  22.816  0.00  0.00    +0.000 HD
ENDBRANCH  28  30
ENDBRANCH   5  28
TORSDOF 7
ENDMDL
MODEL 4
REMARK VINA RESULT:      -7.6      2.429      4.239
REMARK  Name = 
REMARK  8 active torsions:
REMARK  status: ('A' for Active; 'I' for Inactive)
REMARK    1  A    between atoms: C_1  and  C_2
REMARK    2  A    between atoms: C_2  and  N_3
REMARK    3  A    between atoms: N_3  and  C_4
REMARK    4  A    between atoms: C_4  and  C_5
REMARK    5  A    between atoms: N_13  and  C_14
REMARK    6  A    between atoms: C_16  and  C_17
REMARK    7  A    between atoms: C_26  and  C_27
REMARK    8  A    between atoms: C_27  and  O_29
REMARK                            x       y       z     vdW  Elec       q    Type
REMARK                         _______ _______ _______ _____ _____    ______ ____
ROOT
ATOM      1  C   UNL     1       2.583   7.486  18.317  0.00  0.00    +0.000 A 
ATOM      2  C   UNL     1       2.411   8.873  17.984  0.00  0.00    +0.000 A 
ATOM      3  C   UNL     1       1.624   9.580  18.867  0.00  0.00    +0.000 A 
ATOM      4  S   UNL     1       1.289   8.602  20.235  0.00  0.00    +0.000 S 
ATOM      5  C   UNL     1       2.105   7.229  19.588  0.00  0.00    +0.000 A 
ENDROOT
BRANCH   3   6
ATOM      6  C   UNL     1       1.101  10.960  18.760  0.00  0.00    +0.000 A 
ATOM      7  C   UNL     1       1.989  12.049  18.838  0.00  0.00    +0.000 A 
ATOM      8  C   UNL     1       1.542  13.372  18.754  0.00  0.00    +0.000 A 
ATOM      9  C   UNL     1       0.190  13.633  18.564  0.00  0.00    +0.000 A 
ATOM     10 CL   UNL     1      -0.359  15.259  18.463  0.00  0.00    +0.000 Cl
ATOM     11  C   UNL     1      -0.715  12.587  18.466  0.00  0.00    +0.000 A 
ATOM     12  C   UNL     1      -0.273  11.261  18.573  0.00  0.00    +0.000 A 
ATOM     13 CL   UNL     1      -1.525  10.065  18.522  0.00  0.00    +0.000 Cl
ENDBRANCH   3   6
BRANCH   1  17
ATOM     14  N   UNL     1       5.082   5.416  16.613  0.00  0.00    +0.000 N 
ATOM     15  C   UNL     1       4.533   6.523  17.246  0.00  0.00    +0.000 C 
ATOM     16  O   UNL     1       5.237   7.464  17.622  0.00  0.00    +0.000 OA
ATOM     17  N   UNL     1       3.174   6.526  17.472  0.00  0.00    +0.000 N 
ATOM     18  H   UNL     1       2.573   6.104  16.779  0.00  0.00    +0.000 HD
BRANCH  14  20
ATOM     19  C   UNL     1       7.355   4.712  17.708  0.00  0.00    +0.000 C 
ATOM     20  C   UNL     1       6.555   5.268  16.528  0.00  0.00    +0.000 C 
ENDBRANCH  14  20
BRANCH  14  21
ATOM     21  C   UNL     1       4.295   4.264  16.130  0.00  0.00    +0.000 C 
BRANCH  21  22
ATOM     22  C   UNL     1       3.582   3.507  17.235  0.00  0.00    +0.000 A 
ATOM     23  C   UNL     1       2.180   3.466  17.300  0.00  0.00    +0.000 A 
ATOM     24  C   UNL     1       1.526   2.857  18.375  0.00  0.00    +0.000 A 
ATOM     25  C   UNL     1       2.264   2.245  19.383  0.00  0.00    +0.000 A 
ATOM     26  C   UNL     1       3.652   2.199  19.289  0.00  0.00    +0.000 A 
ATOM     27  C   UNL     1       4.307   2.820  18.220  0.00  0.00    +0.000 A 
ENDBRANCH  21  22
ENDBRANCH  14  21
ENDBRANCH   1  17
BRANCH   5  28
ATOM     28  C   UNL     1       2.186   5.999  20.337  0.00  0.00    +0.000 C 
ATOM     29  O   UNL     1       1.237   5.450  20.881  0.00  0.00    +0.000 OA
BRANCH  28  30
ATOM     30  O   UNL     1       3.440   5.462  20.378  0.00  0.00    +0.000 OA
ATOM     31  H   UNL     1       3.652   4.976  19.551  0.00  0.00    +0.000 HD
ENDBRANCH  28  30
ENDBRANCH   5  28
TORSDOF 7
ENDMDL
MODEL 5
REMARK VINA RESULT:      -7.6      4.612      6.772
REMARK  Name = 
REMARK  8 active torsions:
REMARK  status: ('A' for Active; 'I' for Inactive)
REMARK    1  A    between atoms: C_1  and  C_2
REMARK    2  A    between atoms: C_2  and  N_3
REMARK    3  A    between atoms: N_3  and  C_4
REMARK    4  A    between atoms: C_4  and  C_5
REMARK    5  A    between atoms: N_13  and  C_14
REMARK    6  A    between atoms: C_16  and  C_17
REMARK    7  A    between atoms: C_26  and  C_27
REMARK    8  A    between atoms: C_27  and  O_29
REMARK                            x       y       z     vdW  Elec       q    Type
REMARK                         _______ _______ _______ _____ _____    ______ ____
ROOT
ATOM      1  C   UNL     1       0.040   9.923  19.425  0.00  0.00    +0.000 A 
ATOM      2  C   UNL     1      -1.116  10.128  18.595  0.00  0.00    +0.000 A 
ATOM      3  C   UNL     1      -1.910  11.189  18.973  0.00  0.00    +0.000 A 
ATOM      4  S   UNL     1      -1.116  12.082  20.201  0.00  0.00    +0.000 S 
ATOM      5  C   UNL     1       0.216  10.992  20.282  0.00  0.00    +0.000 A 
ENDROOT
BRANCH   3   6
ATOM      6  C   UNL     1      -3.242  11.591  18.467  0.00  0.00    +0.000 A 
ATOM      7  C   UNL     1      -4.183  12.151  19.350  0.00  0.00    +0.000 A 
ATOM      8  C   UNL     1      -5.458  12.536  18.923  0.00  0.00    +0.000 A 
ATOM      9  C   UNL     1      -5.810  12.391  17.587  0.00  0.00    +0.000 A 
ATOM     10 CL   UNL     1      -7.378  12.863  17.061  0.00  0.00    +0.000 Cl
ATOM     11  C   UNL     1      -4.906  11.858  16.680  0.00  0.00    +0.000 A 
ATOM     12  C   UNL     1      -3.636  11.450  17.111  0.00  0.00    +0.000 A 
ATOM     13 CL   UNL     1      -2.647  10.721  15.889  0.00  0.00    +0.000 Cl
ENDBRANCH   3   6
BRANCH   1  17
ATOM     14  N   UNL     1       2.721   7.639  18.415  0.00  0.00    +0.000 N 
ATOM     15  C   UNL     1       1.749   8.623  18.302  0.00  0.00    +0.000 C 
ATOM     16  O   UNL     1       1.675   9.342  17.301  0.00  0.00    +0.000 OA
ATOM     17  N   UNL     1       0.884   8.798  19.359  0.00  0.00    +0.000 N 
ATOM     18  H   UNL     1       0.589   7.982  19.875  0.00  0.00    +0.000 HD
BRANCH  14  20
ATOM     19  C   UNL     1       5.009   6.634  17.629  0.00  0.00    +0.000 C 
ATOM     20  C   UNL     1       3.800   7.544  17.403  0.00  0.00    +0.000 C 
ENDBRANCH  14  20
BRANCH  14  21
ATOM     21  C   UNL     1       2.857   6.741  19.579  0.00  0.00    +0.000 C 
BRANCH  21  22
ATOM     22  C   UNL     1       2.122   5.423  19.422  0.00  0.00    +0.000 A 
ATOM     23  C   UNL     1       1.562   4.766  20.529  0.00  0.00    +0.000 A 
ATOM     24  C   UNL     1       0.978   3.502  20.399  0.00  0.00    +0.000 A 
ATOM     25  C   UNL     1       0.910   2.893  19.150  0.00  0.00    +0.000 A 
ATOM     26  C   UNL     1       1.381   3.568  18.027  0.00  0.00    +0.000 A 
ATOM     27  C   UNL     1       1.978   4.826  18.160  0.00  0.00    +0.000 A 
ENDBRANCH  21  22
ENDBRANCH  14  21
ENDBRANCH   1  17
BRANCH   5  28
ATOM     28  C   UNL     1       1.308  11.229  21.195  0.00  0.00    +0.000 C 
ATOM     29  O   UNL     1       1.946  12.271  21.264  0.00  0.00    +0.000 OA
BRANCH  28  30
ATOM     30  O   UNL     1       1.574  10.175  22.020  0.00  0.00    +0.000 OA
ATOM     31  H   UNL     1       2.509  10.180  22.323  0.00  0.00    +0.000 HD
ENDBRANCH  28  30
ENDBRANCH   5  28
TORSDOF 7
ENDMDL
MODEL 6
REMARK VINA RESULT:      -7.6      4.163      8.849
REMARK  Name = 
REMARK  8 active torsions:
REMARK  status: ('A' for Active; 'I' for Inactive)
REMARK    1  A    between atoms: C_1  and  C_2
REMARK    2  A    between atoms: C_2  and  N_3
REMARK    3  A    between atoms: N_3  and  C_4
REMARK    4  A    between atoms: C_4  and  C_5
REMARK    5  A    between atoms: N_13  and  C_14
REMARK    6  A    between atoms: C_16  and  C_17
REMARK    7  A    between atoms: C_26  and  C_27
REMARK    8  A    between atoms: C_27  and  O_29
REMARK                            x       y       z     vdW  Elec       q    Type
REMARK                         _______ _______ _______ _____ _____    ______ ____
ROOT
ATOM      1  C   UNL     1       1.192   9.037  19.243  0.00  0.00    +0.000 A 
ATOM      2  C   UNL     1       1.866   8.356  18.171  0.00  0.00    +0.000 A 
ATOM      3  C   UNL     1       2.604   7.262  18.564  0.00  0.00    +0.000 A 
ATOM      4  S   UNL     1       2.282   6.923  20.213  0.00  0.00    +0.000 S 
ATOM      5  C   UNL     1       1.252   8.291  20.404  0.00  0.00    +0.000 A 
ENDROOT
BRANCH   3   6
ATOM      6  C   UNL     1       3.545   6.433  17.777  0.00  0.00    +0.000 A 
ATOM      7  C   UNL     1       4.709   7.017  17.244  0.00  0.00    +0.000 A 
ATOM      8  C   UNL     1       5.623   6.279  16.484  0.00  0.00    +0.000 A 
ATOM      9  C   UNL     1       5.401   4.926  16.262  0.00  0.00    +0.000 A 
ATOM     10 CL   UNL     1       6.523   4.019  15.326  0.00  0.00    +0.000 Cl
ATOM     11  C   UNL     1       4.274   4.308  16.784  0.00  0.00    +0.000 A 
ATOM     12  C   UNL     1       3.345   5.051  17.527  0.00  0.00    +0.000 A 
ATOM     13 CL   UNL     1       1.944   4.170  18.038  0.00  0.00    +0.000 Cl
ENDBRANCH   3   6
BRANCH   1  17
ATOM     14  N   UNL     1      -1.265  11.611  18.368  0.00  0.00    +0.000 N 
ATOM     15  C   UNL     1      -0.520  10.445  18.262  0.00  0.00    +0.000 C 
ATOM     16  O   UNL     1      -0.813   9.566  17.448  0.00  0.00    +0.000 OA
ATOM     17  N   UNL     1       0.545  10.282  19.121  0.00  0.00    +0.000 N 
ATOM     18  H   UNL     1       1.085  11.097  19.372  0.00  0.00    +0.000 HD
BRANCH  14  20
ATOM     19  C   UNL     1      -3.802  11.025  18.081  0.00  0.00    +0.000 C 
ATOM     20  C   UNL     1      -2.536  11.748  17.617  0.00  0.00    +0.000 C 
ENDBRANCH  14  20
BRANCH  14  21
ATOM     21  C   UNL     1      -0.961  12.704  19.313  0.00  0.00    +0.000 C 
BRANCH  21  22
ATOM     22  C   UNL     1      -1.628  12.545  20.666  0.00  0.00    +0.000 A 
ATOM     23  C   UNL     1      -2.872  13.137  20.937  0.00  0.00    +0.000 A 
ATOM     24  C   UNL     1      -3.436  13.078  22.214  0.00  0.00    +0.000 A 
ATOM     25  C   UNL     1      -2.783  12.391  23.232  0.00  0.00    +0.000 A 
ATOM     26  C   UNL     1      -1.592  11.724  22.959  0.00  0.00    +0.000 A 
ATOM     27  C   UNL     1      -1.021  11.795  21.684  0.00  0.00    +0.000 A 
ENDBRANCH  21  22
ENDBRANCH  14  21
ENDBRANCH   1  17
BRANCH   5  28
ATOM     28  C   UNL     1       0.614   8.562  21.669  0.00  0.00    +0.000 C 
ATOM     29  O   UNL     1      -0.519   8.210  21.970  0.00  0.00    +0.000 OA
BRANCH  28  30
ATOM     30  O   UNL     1       1.403   9.247  22.547  0.00  0.00    +0.000 OA
ATOM     31  H   UNL     1       2.319   9.350  22.205  0.00  0.00    +0.000 HD
ENDBRANCH  28  30
ENDBRANCH   5  28
TORSDOF 7
ENDMDL
MODEL 7
REMARK VINA RESULT:      -7.2      4.559      8.405
REMARK  Name = 
REMARK  8 active torsions:
REMARK  status: ('A' for Active; 'I' for Inactive)
REMARK    1  A    between atoms: C_1  and  C_2
REMARK    2  A    between atoms: C_2  and  N_3
REMARK    3  A    between atoms: N_3  and  C_4
REMARK    4  A    between atoms: C_4  and  C_5
REMARK    5  A    between atoms: N_13  and  C_14
REMARK    6  A    between atoms: C_16  and  C_17
REMARK    7  A    between atoms: C_26  and  C_27
REMARK    8  A    between atoms: C_27  and  O_29
REMARK                            x       y       z     vdW  Elec       q    Type
REMARK                         _______ _______ _______ _____ _____    ______ ____
ROOT
ATOM      1  C   UNL     1       1.603   9.151  19.401  0.00  0.00    +0.000 A 
ATOM      2  C   UNL     1       2.252   8.482  18.306  0.00  0.00    +0.000 A 
ATOM      3  C   UNL     1       2.684   7.206  18.591  0.00  0.00    +0.000 A 
ATOM      4  S   UNL     1       2.084   6.734  20.126  0.00  0.00    +0.000 S 
ATOM      5  C   UNL     1       1.350   8.264  20.429  0.00  0.00    +0.000 A 
ENDROOT
BRANCH   3   6
ATOM      6  C   UNL     1       3.523   6.296  17.779  0.00  0.00    +0.000 A 
ATOM      7  C   UNL     1       4.716   6.774  17.208  0.00  0.00    +0.000 A 
ATOM      8  C   UNL     1       5.537   5.956  16.423  0.00  0.00    +0.000 A 
ATOM      9  C   UNL     1       5.189   4.627  16.214  0.00  0.00    +0.000 A 
ATOM     10 CL   UNL     1       6.198   3.623  15.248  0.00  0.00    +0.000 Cl
ATOM     11  C   UNL     1       4.029   4.113  16.773  0.00  0.00    +0.000 A 
ATOM     12  C   UNL     1       3.193   4.936  17.541  0.00  0.00    +0.000 A 
ATOM     13 CL   UNL     1       1.736   4.184  18.098  0.00  0.00    +0.000 Cl
ENDBRANCH   3   6
BRANCH   1  17
ATOM     14  N   UNL     1      -0.312  12.259  19.076  0.00  0.00    +0.000 N 
ATOM     15  C   UNL     1       0.096  10.957  18.817  0.00  0.00    +0.000 C 
ATOM     16  O   UNL     1      -0.569  10.205  18.098  0.00  0.00    +0.000 OA
ATOM     17  N   UNL     1       1.256  10.516  19.414  0.00  0.00    +0.000 N 
ATOM     18  H   UNL     1       2.014  11.172  19.529  0.00  0.00    +0.000 HD
BRANCH  14  20
ATOM     19  C   UNL     1      -2.900  12.407  19.452  0.00  0.00    +0.000 C 
ATOM     20  C   UNL     1      -1.649  12.718  18.628  0.00  0.00    +0.000 C 
ENDBRANCH  14  20
BRANCH  14  21
ATOM     21  C   UNL     1       0.442  13.210  19.916  0.00  0.00    +0.000 C 
BRANCH  21  22
ATOM     22  C   UNL     1       1.240  14.226  19.122  0.00  0.00    +0.000 A 
ATOM     23  C   UNL     1       2.418  13.862  18.451  0.00  0.00    +0.000 A 
ATOM     24  C   UNL     1       3.207  14.820  17.808  0.00  0.00    +0.000 A 
ATOM     25  C   UNL     1       2.809  16.152  17.791  0.00  0.00    +0.000 A 
ATOM     26  C   UNL     1       1.599  16.517  18.375  0.00  0.00    +0.000 A 
ATOM     27  C   UNL     1       0.817  15.561  19.031  0.00  0.00    +0.000 A 
ENDBRANCH  21  22
ENDBRANCH  14  21
ENDBRANCH   1  17
BRANCH   5  28
ATOM     28  C   UNL     1       0.624   8.503  21.653  0.00  0.00    +0.000 C 
ATOM     29  O   UNL     1      -0.482   8.047  21.909  0.00  0.00    +0.000 OA
BRANCH  28  30
ATOM     30  O   UNL     1       1.295   9.288  22.545  0.00  0.00    +0.000 OA
ATOM     31  H   UNL     1       0.685   9.889  23.028  0.00  0.00    +0.000 HD
ENDBRANCH  28  30
ENDBRANCH   5  28
TORSDOF 7
ENDMDL
MODEL 8
REMARK VINA RESULT:      -7.2      4.067      6.338
REMARK  Name = 
REMARK  8 active torsions:
REMARK  status: ('A' for Active; 'I' for Inactive)
REMARK    1  A    between atoms: C_1  and  C_2
REMARK    2  A    between atoms: C_2  and  N_3
REMARK    3  A    between atoms: N_3  and  C_4
REMARK    4  A    between atoms: C_4  and  C_5
REMARK    5  A    between atoms: N_13  and  C_14
REMARK    6  A    between atoms: C_16  and  C_17
REMARK    7  A    between atoms: C_26  and  C_27
REMARK    8  A    between atoms: C_27  and  O_29
REMARK                            x       y       z     vdW  Elec       q    Type
REMARK                         _______ _______ _______ _____ _____    ______ ____
ROOT
ATOM      1  C   UNL     1       0.646  10.465  19.285  0.00  0.00    +0.000 A 
ATOM      2  C   UNL     1      -0.626  10.491  19.953  0.00  0.00    +0.000 A 
ATOM      3  C   UNL     1      -1.007  11.734  20.410  0.00  0.00    +0.000 A 
ATOM      4  S   UNL     1       0.082  12.915  19.812  0.00  0.00    +0.000 S 
ATOM      5  C   UNL     1       1.095  11.750  19.046  0.00  0.00    +0.000 A 
ENDROOT
BRANCH   3   6
ATOM      6  C   UNL     1      -2.151  12.107  21.271  0.00  0.00    +0.000 A 
ATOM      7  C   UNL     1      -1.973  12.202  22.663  0.00  0.00    +0.000 A 
ATOM      8  C   UNL     1      -3.026  12.540  23.520  0.00  0.00    +0.000 A 
ATOM      9  C   UNL     1      -4.282  12.815  22.994  0.00  0.00    +0.000 A 
ATOM     10 CL   UNL     1      -5.577  13.229  24.048  0.00  0.00    +0.000 Cl
ATOM     11  C   UNL     1      -4.495  12.749  21.625  0.00  0.00    +0.000 A 
ATOM     12  C   UNL     1      -3.447  12.388  20.767  0.00  0.00    +0.000 A 
ATOM     13 CL   UNL     1      -3.882  12.258  19.095  0.00  0.00    +0.000 Cl
ENDBRANCH   3   6
BRANCH   1  17
ATOM     14  N   UNL     1       2.166   7.132  19.408  0.00  0.00    +0.000 N 
ATOM     15  C   UNL     1       1.723   8.370  19.855  0.00  0.00    +0.000 C 
ATOM     16  O   UNL     1       1.651   8.631  21.059  0.00  0.00    +0.000 OA
ATOM     17  N   UNL     1       1.331   9.293  18.910  0.00  0.00    +0.000 N 
ATOM     18  H   UNL     1       1.835   9.325  18.036  0.00  0.00    +0.000 HD
BRANCH  14  20
ATOM     19  C   UNL     1       1.448   4.844  20.460  0.00  0.00    +0.000 C 
ATOM     20  C   UNL     1       2.403   6.037  20.377  0.00  0.00    +0.000 C 
ENDBRANCH  14  20
BRANCH  14  21
ATOM     21  C   UNL     1       2.284   6.762  17.983  0.00  0.00    +0.000 C 
BRANCH  21  22
ATOM     22  C   UNL     1       3.606   6.108  17.631  0.00  0.00    +0.000 A 
ATOM     23  C   UNL     1       3.695   4.726  17.400  0.00  0.00    +0.000 A 
ATOM     24  C   UNL     1       4.930   4.109  17.179  0.00  0.00    +0.000 A 
ATOM     25  C   UNL     1       6.093   4.871  17.147  0.00  0.00    +0.000 A 
ATOM     26  C   UNL     1       6.014   6.255  17.286  0.00  0.00    +0.000 A 
ATOM     27  C   UNL     1       4.780   6.870  17.521  0.00  0.00    +0.000 A 
ENDBRANCH  21  22
ENDBRANCH  14  21
ENDBRANCH   1  17
BRANCH   5  28
ATOM     28  C   UNL     1       2.265  12.161  18.309  0.00  0.00    +0.000 C 
ATOM     29  O   UNL     1       2.976  13.113  18.603  0.00  0.00    +0.000 OA
BRANCH  28  30
ATOM     30  O   UNL     1       2.543  11.369  17.233  0.00  0.00    +0.000 OA
ATOM     31  H   UNL     1       2.077  11.680  16.426  0.00  0.00    +0.000 HD
ENDBRANCH  28  30
ENDBRANCH   5  28
TORSDOF 7
ENDMDL
MODEL 9
REMARK VINA RESULT:      -7.2      3.976      6.321
REMARK  Name = 
REMARK  8 active torsions:
REMARK  status: ('A' for Active; 'I' for Inactive)
REMARK    1  A    between atoms: C_1  and  C_2
REMARK    2  A    between atoms: C_2  and  N_3
REMARK    3  A    between atoms: N_3  and  C_4
REMARK    4  A    between atoms: C_4  and  C_5
REMARK    5  A    between atoms: N_13  and  C_14
REMARK    6  A    between atoms: C_16  and  C_17
REMARK    7  A    between atoms: C_26  and  C_27
REMARK    8  A    between atoms: C_27  and  O_29
REMARK                            x       y       z     vdW  Elec       q    Type
REMARK                         _______ _______ _______ _____ _____    ______ ____
ROOT
ATOM      1  C   UNL     1       0.754  10.421  19.217  0.00  0.00    +0.000 A 
ATOM      2  C   UNL     1      -0.488  10.499  19.937  0.00  0.00    +0.000 A 
ATOM      3  C   UNL     1      -0.825  11.766  20.361  0.00  0.00    +0.000 A 
ATOM      4  S   UNL     1       0.261  12.901  19.673  0.00  0.00    +0.000 S 
ATOM      5  C   UNL     1       1.216  11.686  18.911  0.00  0.00    +0.000 A 
ENDROOT
BRANCH   3   6
ATOM      6  C   UNL     1      -1.924  12.195  21.254  0.00  0.00    +0.000 A 
ATOM      7  C   UNL     1      -2.888  13.105  20.783  0.00  0.00    +0.000 A 
ATOM      8  C   UNL     1      -3.939  13.550  21.593  0.00  0.00    +0.000 A 
ATOM      9  C   UNL     1      -4.061  13.070  22.891  0.00  0.00    +0.000 A 
ATOM     10 CL   UNL     1      -5.351  13.619  23.887  0.00  0.00    +0.000 Cl
ATOM     11  C   UNL     1      -3.140  12.160  23.388  0.00  0.00    +0.000 A 
ATOM     12  C   UNL     1      -2.073  11.730  22.586  0.00  0.00    +0.000 A 
ATOM     13 CL   UNL     1      -0.953  10.665  23.367  0.00  0.00    +0.000 Cl
ENDBRANCH   3   6
BRANCH   1  17
ATOM     14  N   UNL     1       2.168   7.045  19.390  0.00  0.00    +0.000 N 
ATOM     15  C   UNL     1       1.766   8.303  19.818  0.00  0.00    +0.000 C 
ATOM     16  O   UNL     1       1.710   8.587  21.018  0.00  0.00    +0.000 OA
ATOM     17  N   UNL     1       1.399   9.222  18.860  0.00  0.00    +0.000 N 
ATOM     18  H   UNL     1       1.899   9.222  17.983  0.00  0.00    +0.000 HD
BRANCH  14  20
ATOM     19  C   UNL     1       1.383   4.800  20.488  0.00  0.00    +0.000 C 
ATOM     20  C   UNL     1       2.375   5.959  20.378  0.00  0.00    +0.000 C 
ENDBRANCH  14  20
BRANCH  14  21
ATOM     21  C   UNL     1       2.266   6.646  17.972  0.00  0.00    +0.000 C 
BRANCH  21  22
ATOM     22  C   UNL     1       3.602   6.030  17.603  0.00  0.00    +0.000 A 
ATOM     23  C   UNL     1       3.723   4.655  17.350  0.00  0.00    +0.000 A 
ATOM     24  C   UNL     1       4.971   4.072  17.113  0.00  0.00    +0.000 A 
ATOM     25  C   UNL     1       6.115   4.863  17.087  0.00  0.00    +0.000 A 
ATOM     26  C   UNL     1       6.003   6.242  17.248  0.00  0.00    +0.000 A 
ATOM     27  C   UNL     1       4.755   6.822  17.498  0.00  0.00    +0.000 A 
ENDBRANCH  21  22
ENDBRANCH  14  21
ENDBRANCH   1  17
BRANCH   5  28
ATOM     28  C   UNL     1       2.362  12.045  18.110  0.00  0.00    +0.000 C 
ATOM     29  O   UNL     1       3.056  13.036  18.290  0.00  0.00    +0.000 OA
BRANCH  28  30
ATOM     30  O   UNL     1       2.637  11.153  17.114  0.00  0.00    +0.000 OA
ATOM     31  H   UNL     1       2.337  11.485  16.239  0.00  0.00    +0.000 HD
ENDBRANCH  28  30
ENDBRANCH   5  28
TORSDOF 7
ENDMDL
