MODEL 1
REMARK VINA RESULT:      -8.1      0.000      0.000
REMARK  Name = 
REMARK  6 active torsions:
REMARK  status: ('A' for Active; 'I' for Inactive)
REMARK    1  A    between atoms: C_1  and  O_2
REMARK    2  A    between atoms: O_2  and  C_3
REMARK    3  A    between atoms: C_7  and  N_8
REMARK    4  A    between atoms: C_11  and  C_12
REMARK    5  A    between atoms: C_20  and  C_21
REMARK    6  A    between atoms: C_22  and  C_23
REMARK                            x       y       z     vdW  Elec       q    Type
REMARK                         _______ _______ _______ _____ _____    ______ ____
ROOT
ATOM      1  N   UNL     1       2.825   7.960  18.050  0.00  0.00    +0.000 N 
ATOM      2  C   UNL     1       3.010   6.538  18.138  0.00  0.00    +0.000 A 
ATOM      3  N   UNL     1       2.036   5.672  18.544  0.00  0.00    +0.000 NA
ATOM      4  C   UNL     1       2.608   4.444  18.510  0.00  0.00    +0.000 A 
ATOM      5  C   UNL     1       3.893   4.604  18.099  0.00  0.00    +0.000 A 
ATOM      6  S   UNL     1       5.166   3.556  17.865  0.00  0.00    +0.000 S 
ATOM      7  C   UNL     1       6.169   4.839  17.400  0.00  0.00    +0.000 A 
ATOM      8  C   UNL     1       7.604   4.609  17.057  0.00  0.00    +0.000 C 
ATOM      9  C   UNL     1       5.446   6.061  17.422  0.00  0.00    +0.000 A 
ATOM     10  C   UNL     1       6.030   7.389  17.040  0.00  0.00    +0.000 C 
ATOM     11  N   UNL     1       4.161   5.870  17.849  0.00  0.00    +0.000 N 
ATOM     12  H   UNL     1       3.486   8.494  17.466  0.00  0.00    +0.000 HD
ENDROOT
BRANCH   4  13
ATOM     13  C   UNL     1       1.988   3.106  18.843  0.00  0.00    +0.000 C 
ATOM     14  C   UNL     1       0.767   3.241  19.766  0.00  0.00    +0.000 C 
ATOM     15  C   UNL     1       1.195   3.526  21.214  0.00  0.00    +0.000 C 
ATOM     16  N   UNL     1       2.095   2.470  21.704  0.00  0.00    +0.000 NA
ATOM     17  C   UNL     1       3.317   2.395  20.887  0.00  0.00    +0.000 C 
ATOM     18  C   UNL     1       2.981   2.088  19.422  0.00  0.00    +0.000 C 
ATOM     19  H   UNL     1       1.599   1.548  21.671  0.00  0.00    +0.000 HD
ENDBRANCH   4  13
BRANCH   1  24
ATOM     20  C   UNL     1       0.592   9.190  20.836  0.00  0.00    +0.000 A 
ATOM     21  C   UNL     1      -0.264  10.038  20.132  0.00  0.00    +0.000 A 
ATOM     22  C   UNL     1      -0.111  10.220  18.764  0.00  0.00    +0.000 A 
ATOM     23  C   UNL     1       0.904   9.557  18.076  0.00  0.00    +0.000 A 
ATOM     24  C   UNL     1       1.800   8.693  18.746  0.00  0.00    +0.000 A 
ATOM     25  C   UNL     1       1.625   8.513  20.138  0.00  0.00    +0.000 A 
BRANCH  20  27
ATOM     26  C   UNL     1      -0.511   9.780  22.929  0.00  0.00    +0.000 C 
ATOM     27  O   UNL     1       0.380   9.056  22.170  0.00  0.00    +0.000 OA
ENDBRANCH  20  27
ENDBRANCH   1  24
TORSDOF 3
ENDMDL
MODEL 2
REMARK VINA RESULT:      -8.0      1.177      1.756
REMARK  Name = 
REMARK  6 active torsions:
REMARK  status: ('A' for Active; 'I' for Inactive)
REMARK    1  A    between atoms: C_1  and  O_2
REMARK    2  A    between atoms: O_2  and  C_3
REMARK    3  A    between atoms: C_7  and  N_8
REMARK    4  A    between atoms: C_11  and  C_12
REMARK    5  A    between atoms: C_20  and  C_21
REMARK    6  A    between atoms: C_22  and  C_23
REMARK                            x       y       z     vdW  Elec       q    Type
REMARK                         _______ _______ _______ _____ _____    ______ ____
ROOT
ATOM      1  N   UNL     1       2.497   7.727  18.031  0.00  0.00    +0.000 N 
ATOM      2  C   UNL     1       2.702   6.305  18.056  0.00  0.00    +0.000 A 
ATOM      3  N   UNL     1       1.922   5.441  18.771  0.00  0.00    +0.000 NA
ATOM      4  C   UNL     1       2.449   4.213  18.551  0.00  0.00    +0.000 A 
ATOM      5  C   UNL     1       3.520   4.370  17.730  0.00  0.00    +0.000 A 
ATOM      6  S   UNL     1       4.641   3.320  17.084  0.00  0.00    +0.000 S 
ATOM      7  C   UNL     1       5.427   4.600  16.303  0.00  0.00    +0.000 A 
ATOM      8  C   UNL     1       6.662   4.368  15.497  0.00  0.00    +0.000 C 
ATOM      9  C   UNL     1       4.754   5.823  16.563  0.00  0.00    +0.000 A 
ATOM     10  C   UNL     1       5.174   7.149  16.002  0.00  0.00    +0.000 C 
ATOM     11  N   UNL     1       3.688   5.634  17.399  0.00  0.00    +0.000 N 
ATOM     12  H   UNL     1       2.922   8.258  17.256  0.00  0.00    +0.000 HD
ENDROOT
BRANCH   4  13
ATOM     13  C   UNL     1       1.979   2.876  19.079  0.00  0.00    +0.000 C 
ATOM     14  C   UNL     1       0.977   3.024  20.233  0.00  0.00    +0.000 C 
ATOM     15  C   UNL     1       1.690   3.412  21.539  0.00  0.00    +0.000 C 
ATOM     16  N   UNL     1       2.722   2.420  21.878  0.00  0.00    +0.000 NA
ATOM     17  C   UNL     1       3.744   2.338  20.823  0.00  0.00    +0.000 C 
ATOM     18  C   UNL     1       3.119   1.930  19.482  0.00  0.00    +0.000 C 
ATOM     19  H   UNL     1       2.275   1.480  22.001  0.00  0.00    +0.000 HD
ENDBRANCH   4  13
BRANCH   1  24
ATOM     20  C   UNL     1       0.405  10.421  19.650  0.00  0.00    +0.000 A 
ATOM     21  C   UNL     1       0.401   9.989  20.978  0.00  0.00    +0.000 A 
ATOM     22  C   UNL     1       1.063   8.825  21.343  0.00  0.00    +0.000 A 
ATOM     23  C   UNL     1       1.739   8.070  20.387  0.00  0.00    +0.000 A 
ATOM     24  C   UNL     1       1.766   8.463  19.029  0.00  0.00    +0.000 A 
ATOM     25  C   UNL     1       1.093   9.656  18.674  0.00  0.00    +0.000 A 
BRANCH  20  27
ATOM     26  C   UNL     1      -1.296  11.715  18.476  0.00  0.00    +0.000 C 
ATOM     27  O   UNL     1      -0.258  11.572  19.367  0.00  0.00    +0.000 OA
ENDBRANCH  20  27
ENDBRANCH   1  24
TORSDOF 3
ENDMDL
MODEL 3
REMARK VINA RESULT:      -7.8      0.975      1.533
REMARK  Name = 
REMARK  6 active torsions:
REMARK  status: ('A' for Active; 'I' for Inactive)
REMARK    1  A    between atoms: C_1  and  O_2
REMARK    2  A    between atoms: O_2  and  C_3
REMARK    3  A    between atoms: C_7  and  N_8
REMARK    4  A    between atoms: C_11  and  C_12
REMARK    5  A    between atoms: C_20  and  C_21
REMARK    6  A    between atoms: C_22  and  C_23
REMARK                            x       y       z     vdW  Elec       q    Type
REMARK                         _______ _______ _______ _____ _____    ______ ____
ROOT
ATOM      1  N   UNL     1       2.656   8.023  18.212  0.00  0.00    +0.000 N 
ATOM      2  C   UNL     1       3.001   6.710  18.682  0.00  0.00    +0.000 A 
ATOM      3  N   UNL     1       2.172   5.938  19.445  0.00  0.00    +0.000 NA
ATOM      4  C   UNL     1       2.865   4.801  19.692  0.00  0.00    +0.000 A 
ATOM      5  C   UNL     1       4.076   4.921  19.087  0.00  0.00    +0.000 A 
ATOM      6  S   UNL     1       5.423   3.945  18.999  0.00  0.00    +0.000 S 
ATOM      7  C   UNL     1       6.229   5.098  18.056  0.00  0.00    +0.000 A 
ATOM      8  C   UNL     1       7.636   4.879  17.609  0.00  0.00    +0.000 C 
ATOM      9  C   UNL     1       5.385   6.216  17.821  0.00  0.00    +0.000 A 
ATOM     10  C   UNL     1       5.780   7.406  16.998  0.00  0.00    +0.000 C 
ATOM     11  N   UNL     1       4.180   6.070  18.449  0.00  0.00    +0.000 N 
ATOM     12  H   UNL     1       3.191   8.404  17.417  0.00  0.00    +0.000 HD
ENDROOT
BRANCH   4  13
ATOM     13  C   UNL     1       2.431   3.583  20.476  0.00  0.00    +0.000 C 
ATOM     14  C   UNL     1       3.190   2.316  20.054  0.00  0.00    +0.000 C 
ATOM     15  C   UNL     1       2.666   1.776  18.714  0.00  0.00    +0.000 C 
ATOM     16  N   UNL     1       1.222   1.507  18.795  0.00  0.00    +0.000 NA
ATOM     17  C   UNL     1       0.470   2.734  19.103  0.00  0.00    +0.000 C 
ATOM     18  C   UNL     1       0.917   3.330  20.444  0.00  0.00    +0.000 C 
ATOM     19  H   UNL     1       1.042   0.794  19.543  0.00  0.00    +0.000 HD
ENDBRANCH   4  13
BRANCH   1  24
ATOM     20  C   UNL     1       0.485   9.713  20.799  0.00  0.00    +0.000 A 
ATOM     21  C   UNL     1      -0.413  10.402  19.980  0.00  0.00    +0.000 A 
ATOM     22  C   UNL     1      -0.307  10.327  18.598  0.00  0.00    +0.000 A 
ATOM     23  C   UNL     1       0.700   9.565  18.009  0.00  0.00    +0.000 A 
ATOM     24  C   UNL     1       1.637   8.856  18.796  0.00  0.00    +0.000 A 
ATOM     25  C   UNL     1       1.510   8.936  20.203  0.00  0.00    +0.000 A 
BRANCH  20  27
ATOM     26  C   UNL     1      -0.741  10.428  22.781  0.00  0.00    +0.000 C 
ATOM     27  O   UNL     1       0.317   9.827  22.141  0.00  0.00    +0.000 OA
ENDBRANCH  20  27
ENDBRANCH   1  24
TORSDOF 3
ENDMDL
MODEL 4
REMARK VINA RESULT:      -7.6      1.025      1.365
REMARK  Name = 
REMARK  6 active torsions:
REMARK  status: ('A' for Active; 'I' for Inactive)
REMARK    1  A    between atoms: C_1  and  O_2
REMARK    2  A    between atoms: O_2  and  C_3
REMARK    3  A    between atoms: C_7  and  N_8
REMARK    4  A    between atoms: C_11  and  C_12
REMARK    5  A    between atoms: C_20  and  C_21
REMARK    6  A    between atoms: C_22  and  C_23
REMARK                            x       y       z     vdW  Elec       q    Type
REMARK                         _______ _______ _______ _____ _____    ______ ____
ROOT
ATOM      1  N   UNL     1       2.611   7.757  17.570  0.00  0.00    +0.000 N 
ATOM      2  C   UNL     1       3.087   6.433  17.859  0.00  0.00    +0.000 A 
ATOM      3  N   UNL     1       2.563   5.638  18.839  0.00  0.00    +0.000 NA
ATOM      4  C   UNL     1       3.292   4.497  18.806  0.00  0.00    +0.000 A 
ATOM      5  C   UNL     1       4.225   4.637  17.828  0.00  0.00    +0.000 A 
ATOM      6  S   UNL     1       5.456   3.667  17.262  0.00  0.00    +0.000 S 
ATOM      7  C   UNL     1       5.899   4.847  16.131  0.00  0.00    +0.000 A 
ATOM      8  C   UNL     1       7.069   4.645  15.226  0.00  0.00    +0.000 C 
ATOM      9  C   UNL     1       5.033   5.968  16.225  0.00  0.00    +0.000 A 
ATOM     10  C   UNL     1       5.131   7.181  15.349  0.00  0.00    +0.000 C 
ATOM     11  N   UNL     1       4.113   5.802  17.223  0.00  0.00    +0.000 N 
ATOM     12  H   UNL     1       2.846   8.160  16.650  0.00  0.00    +0.000 HD
ENDROOT
BRANCH   4  13
ATOM     13  C   UNL     1       3.143   3.257  19.659  0.00  0.00    +0.000 C 
ATOM     14  C   UNL     1       2.418   2.123  18.920  0.00  0.00    +0.000 C 
ATOM     15  C   UNL     1       0.906   2.387  18.846  0.00  0.00    +0.000 C 
ATOM     16  N   UNL     1       0.346   2.561  20.195  0.00  0.00    +0.000 NA
ATOM     17  C   UNL     1       0.963   3.707  20.881  0.00  0.00    +0.000 C 
ATOM     18  C   UNL     1       2.479   3.514  21.019  0.00  0.00    +0.000 C 
ATOM     19  H   UNL     1       0.513   1.691  20.756  0.00  0.00    +0.000 HD
ENDBRANCH   4  13
BRANCH   1  24
ATOM     20  C   UNL     1       1.077   9.018  20.781  0.00  0.00    +0.000 A 
ATOM     21  C   UNL     1       0.310  10.083  20.307  0.00  0.00    +0.000 A 
ATOM     22  C   UNL     1       0.300  10.398  18.954  0.00  0.00    +0.000 A 
ATOM     23  C   UNL     1       1.059   9.654  18.053  0.00  0.00    +0.000 A 
ATOM     24  C   UNL     1       1.856   8.570  18.487  0.00  0.00    +0.000 A 
ATOM     25  C   UNL     1       1.850   8.257  19.867  0.00  0.00    +0.000 A 
BRANCH  20  27
ATOM     26  C   UNL     1       0.249   9.411  23.041  0.00  0.00    +0.000 C 
ATOM     27  O   UNL     1       1.034   8.764  22.115  0.00  0.00    +0.000 OA
ENDBRANCH  20  27
ENDBRANCH   1  24
TORSDOF 3
ENDMDL
MODEL 5
REMARK VINA RESULT:      -7.6      1.559      2.461
REMARK  Name = 
REMARK  6 active torsions:
REMARK  status: ('A' for Active; 'I' for Inactive)
REMARK    1  A    between atoms: C_1  and  O_2
REMARK    2  A    between atoms: O_2  and  C_3
REMARK    3  A    between atoms: C_7  and  N_8
REMARK    4  A    between atoms: C_11  and  C_12
REMARK    5  A    between atoms: C_20  and  C_21
REMARK    6  A    between atoms: C_22  and  C_23
REMARK                            x       y       z     vdW  Elec       q    Type
REMARK                         _______ _______ _______ _____ _____    ______ ____
ROOT
ATOM      1  N   UNL     1       2.555   8.051  18.134  0.00  0.00    +0.000 N 
ATOM      2  C   UNL     1       2.936   6.755  18.623  0.00  0.00    +0.000 A 
ATOM      3  N   UNL     1       2.122   5.964  19.382  0.00  0.00    +0.000 NA
ATOM      4  C   UNL     1       2.849   4.853  19.652  0.00  0.00    +0.000 A 
ATOM      5  C   UNL     1       4.064   5.007  19.064  0.00  0.00    +0.000 A 
ATOM      6  S   UNL     1       5.444   4.076  19.007  0.00  0.00    +0.000 S 
ATOM      7  C   UNL     1       6.224   5.245  18.063  0.00  0.00    +0.000 A 
ATOM      8  C   UNL     1       7.645   5.069  17.639  0.00  0.00    +0.000 C 
ATOM      9  C   UNL     1       5.348   6.332  17.803  0.00  0.00    +0.000 A 
ATOM     10  C   UNL     1       5.715   7.526  16.973  0.00  0.00    +0.000 C 
ATOM     11  N   UNL     1       4.139   6.152  18.415  0.00  0.00    +0.000 N 
ATOM     12  H   UNL     1       3.089   8.441  17.343  0.00  0.00    +0.000 HD
ENDROOT
BRANCH   4  13
ATOM     13  C   UNL     1       2.444   3.629  20.443  0.00  0.00    +0.000 C 
ATOM     14  C   UNL     1       3.217   2.374  20.013  0.00  0.00    +0.000 C 
ATOM     15  C   UNL     1       2.685   1.823  18.680  0.00  0.00    +0.000 C 
ATOM     16  N   UNL     1       1.247   1.532  18.780  0.00  0.00    +0.000 NA
ATOM     17  C   UNL     1       0.480   2.747  19.095  0.00  0.00    +0.000 C 
ATOM     18  C   UNL     1       0.933   3.353  20.430  0.00  0.00    +0.000 C 
ATOM     19  H   UNL     1       1.087   0.818  19.530  0.00  0.00    +0.000 HD
ENDBRANCH   4  13
BRANCH   1  24
ATOM     20  C   UNL     1      -0.506  10.250  18.370  0.00  0.00    +0.000 A 
ATOM     21  C   UNL     1      -0.533  10.519  19.740  0.00  0.00    +0.000 A 
ATOM     22  C   UNL     1       0.429   9.980  20.584  0.00  0.00    +0.000 A 
ATOM     23  C   UNL     1       1.434   9.161  20.072  0.00  0.00    +0.000 A 
ATOM     24  C   UNL     1       1.500   8.855  18.694  0.00  0.00    +0.000 A 
ATOM     25  C   UNL     1       0.516   9.419  17.846  0.00  0.00    +0.000 A 
BRANCH  20  27
ATOM     26  C   UNL     1      -2.234  10.179  16.651  0.00  0.00    +0.000 C 
ATOM     27  O   UNL     1      -1.474  10.816  17.605  0.00  0.00    +0.000 OA
ENDBRANCH  20  27
ENDBRANCH   1  24
TORSDOF 3
ENDMDL
MODEL 6
REMARK VINA RESULT:      -7.5      1.360      4.220
REMARK  Name = 
REMARK  6 active torsions:
REMARK  status: ('A' for Active; 'I' for Inactive)
REMARK    1  A    between atoms: C_1  and  O_2
REMARK    2  A    between atoms: O_2  and  C_3
REMARK    3  A    between atoms: C_7  and  N_8
REMARK    4  A    between atoms: C_11  and  C_12
REMARK    5  A    between atoms: C_20  and  C_21
REMARK    6  A    between atoms: C_22  and  C_23
REMARK                            x       y       z     vdW  Elec       q    Type
REMARK                         _______ _______ _______ _____ _____    ______ ____
ROOT
ATOM      1  N   UNL     1       1.928   6.790  20.453  0.00  0.00    +0.000 N 
ATOM      2  C   UNL     1       2.645   6.075  19.434  0.00  0.00    +0.000 A 
ATOM      3  N   UNL     1       3.400   6.682  18.472  0.00  0.00    +0.000 NA
ATOM      4  C   UNL     1       3.883   5.677  17.703  0.00  0.00    +0.000 A 
ATOM      5  C   UNL     1       3.405   4.510  18.210  0.00  0.00    +0.000 A 
ATOM      6  S   UNL     1       3.556   2.912  17.765  0.00  0.00    +0.000 S 
ATOM      7  C   UNL     1       2.570   2.433  19.055  0.00  0.00    +0.000 A 
ATOM      8  C   UNL     1       2.212   0.998  19.259  0.00  0.00    +0.000 C 
ATOM      9  C   UNL     1       2.173   3.564  19.816  0.00  0.00    +0.000 A 
ATOM     10  C   UNL     1       1.316   3.490  21.045  0.00  0.00    +0.000 C 
ATOM     11  N   UNL     1       2.660   4.722  19.276  0.00  0.00    +0.000 N 
ATOM     12  H   UNL     1       1.640   6.266  21.293  0.00  0.00    +0.000 HD
ENDROOT
BRANCH   4  13
ATOM     13  C   UNL     1       4.795   5.763  16.500  0.00  0.00    +0.000 C 
ATOM     14  C   UNL     1       5.781   4.588  16.429  0.00  0.00    +0.000 C 
ATOM     15  C   UNL     1       6.923   4.759  17.443  0.00  0.00    +0.000 C 
ATOM     16  N   UNL     1       7.624   6.033  17.220  0.00  0.00    +0.000 NA
ATOM     17  C   UNL     1       6.712   7.176  17.382  0.00  0.00    +0.000 C 
ATOM     18  C   UNL     1       5.548   7.096  16.385  0.00  0.00    +0.000 C 
ATOM     19  H   UNL     1       8.025   6.044  16.252  0.00  0.00    +0.000 HD
ENDBRANCH   4  13
BRANCH   1  24
ATOM     20  C   UNL     1       0.688  10.214  21.449  0.00  0.00    +0.000 A 
ATOM     21  C   UNL     1       0.732  10.878  20.221  0.00  0.00    +0.000 A 
ATOM     22  C   UNL     1       1.173  10.222  19.080  0.00  0.00    +0.000 A 
ATOM     23  C   UNL     1       1.579   8.890  19.146  0.00  0.00    +0.000 A 
ATOM     24  C   UNL     1       1.559   8.178  20.367  0.00  0.00    +0.000 A 
ATOM     25  C   UNL     1       1.100   8.859  21.520  0.00  0.00    +0.000 A 
BRANCH  20  27
ATOM     26  C   UNL     1      -1.012  10.832  23.084  0.00  0.00    +0.000 C 
ATOM     27  O   UNL     1       0.240  10.917  22.521  0.00  0.00    +0.000 OA
ENDBRANCH  20  27
ENDBRANCH   1  24
TORSDOF 3
ENDMDL
MODEL 7
REMARK VINA RESULT:      -7.3      3.102      6.363
REMARK  Name = 
REMARK  6 active torsions:
REMARK  status: ('A' for Active; 'I' for Inactive)
REMARK    1  A    between atoms: C_1  and  O_2
REMARK    2  A    between atoms: O_2  and  C_3
REMARK    3  A    between atoms: C_7  and  N_8
REMARK    4  A    between atoms: C_11  and  C_12
REMARK    5  A    between atoms: C_20  and  C_21
REMARK    6  A    between atoms: C_22  and  C_23
REMARK                            x       y       z     vdW  Elec       q    Type
REMARK                         _______ _______ _______ _____ _____    ______ ____
ROOT
ATOM      1  N   UNL     1       4.779   6.932  17.242  0.00  0.00    +0.000 N 
ATOM      2  C   UNL     1       3.904   6.460  18.279  0.00  0.00    +0.000 A 
ATOM      3  N   UNL     1       3.976   5.206  18.816  0.00  0.00    +0.000 NA
ATOM      4  C   UNL     1       2.979   5.149  19.732  0.00  0.00    +0.000 A 
ATOM      5  C   UNL     1       2.340   6.348  19.715  0.00  0.00    +0.000 A 
ATOM      6  S   UNL     1       1.028   6.967  20.534  0.00  0.00    +0.000 S 
ATOM      7  C   UNL     1       1.170   8.436  19.704  0.00  0.00    +0.000 A 
ATOM      8  C   UNL     1       0.199   9.547  19.931  0.00  0.00    +0.000 C 
ATOM      9  C   UNL     1       2.278   8.393  18.816  0.00  0.00    +0.000 A 
ATOM     10  C   UNL     1       2.702   9.540  17.947  0.00  0.00    +0.000 C 
ATOM     11  N   UNL     1       2.893   7.173  18.849  0.00  0.00    +0.000 N 
ATOM     12  H   UNL     1       4.858   7.951  17.109  0.00  0.00    +0.000 HD
ENDROOT
BRANCH   4  13
ATOM     13  C   UNL     1       2.599   4.004  20.644  0.00  0.00    +0.000 C 
ATOM     14  C   UNL     1       3.508   2.781  20.453  0.00  0.00    +0.000 C 
ATOM     15  C   UNL     1       3.151   2.019  19.167  0.00  0.00    +0.000 C 
ATOM     16  N   UNL     1       1.737   1.611  19.185  0.00  0.00    +0.000 NA
ATOM     17  C   UNL     1       0.849   2.782  19.268  0.00  0.00    +0.000 C 
ATOM     18  C   UNL     1       1.124   3.591  20.543  0.00  0.00    +0.000 C 
ATOM     19  H   UNL     1       1.565   0.987  20.009  0.00  0.00    +0.000 HD
ENDBRANCH   4  13
BRANCH   1  24
ATOM     20  C   UNL     1       5.602   4.604  14.385  0.00  0.00    +0.000 A 
ATOM     21  C   UNL     1       6.943   4.320  14.654  0.00  0.00    +0.000 A 
ATOM     22  C   UNL     1       7.579   4.891  15.748  0.00  0.00    +0.000 A 
ATOM     23  C   UNL     1       6.886   5.756  16.593  0.00  0.00    +0.000 A 
ATOM     24  C   UNL     1       5.530   6.079  16.358  0.00  0.00    +0.000 A 
ATOM     25  C   UNL     1       4.894   5.483  15.243  0.00  0.00    +0.000 A 
BRANCH  20  27
ATOM     26  C   UNL     1       5.712   3.304  12.325  0.00  0.00    +0.000 C 
ATOM     27  O   UNL     1       5.044   4.006  13.302  0.00  0.00    +0.000 OA
ENDBRANCH  20  27
ENDBRANCH   1  24
TORSDOF 3
ENDMDL
MODEL 8
REMARK VINA RESULT:      -7.2      6.805     10.527
REMARK  Name = 
REMARK  6 active torsions:
REMARK  status: ('A' for Active; 'I' for Inactive)
REMARK    1  A    between atoms: C_1  and  O_2
REMARK    2  A    between atoms: O_2  and  C_3
REMARK    3  A    between atoms: C_7  and  N_8
REMARK    4  A    between atoms: C_11  and  C_12
REMARK    5  A    between atoms: C_20  and  C_21
REMARK    6  A    between atoms: C_22  and  C_23
REMARK                            x       y       z     vdW  Elec       q    Type
REMARK                         _______ _______ _______ _____ _____    ______ ____
ROOT
ATOM      1  N   UNL     1      -4.723  12.351  18.909  0.00  0.00    +0.000 N 
ATOM      2  C   UNL     1      -4.267  12.513  20.262  0.00  0.00    +0.000 A 
ATOM      3  N   UNL     1      -2.970  12.337  20.649  0.00  0.00    +0.000 NA
ATOM      4  C   UNL     1      -2.959  12.558  21.986  0.00  0.00    +0.000 A 
ATOM      5  C   UNL     1      -4.232  12.848  22.361  0.00  0.00    +0.000 A 
ATOM      6  S   UNL     1      -4.953  13.188  23.824  0.00  0.00    +0.000 S 
ATOM      7  C   UNL     1      -6.463  13.344  23.073  0.00  0.00    +0.000 A 
ATOM      8  C   UNL     1      -7.693  13.629  23.868  0.00  0.00    +0.000 C 
ATOM      9  C   UNL     1      -6.337  13.144  21.672  0.00  0.00    +0.000 A 
ATOM     10  C   UNL     1      -7.480  13.238  20.705  0.00  0.00    +0.000 C 
ATOM     11  N   UNL     1      -5.049  12.844  21.327  0.00  0.00    +0.000 N 
ATOM     12  H   UNL     1      -5.623  12.783  18.652  0.00  0.00    +0.000 HD
ENDROOT
BRANCH   4  13
ATOM     13  C   UNL     1      -1.786  12.516  22.940  0.00  0.00    +0.000 C 
ATOM     14  C   UNL     1      -0.660  13.472  22.521  0.00  0.00    +0.000 C 
ATOM     15  C   UNL     1       0.141  12.902  21.339  0.00  0.00    +0.000 C 
ATOM     16  N   UNL     1       0.688  11.579  21.677  0.00  0.00    +0.000 NA
ATOM     17  C   UNL     1      -0.387  10.624  21.986  0.00  0.00    +0.000 C 
ATOM     18  C   UNL     1      -1.227  11.106  23.176  0.00  0.00    +0.000 C 
ATOM     19  H   UNL     1       1.323  11.666  22.507  0.00  0.00    +0.000 HD
ENDBRANCH   4  13
BRANCH   1  24
ATOM     20  C   UNL     1      -2.042  10.313  17.200  0.00  0.00    +0.000 A 
ATOM     21  C   UNL     1      -2.576  10.201  15.914  0.00  0.00    +0.000 A 
ATOM     22  C   UNL     1      -3.803  10.773  15.608  0.00  0.00    +0.000 A 
ATOM     23  C   UNL     1      -4.520  11.466  16.582  0.00  0.00    +0.000 A 
ATOM     24  C   UNL     1      -4.025  11.600  17.899  0.00  0.00    +0.000 A 
ATOM     25  C   UNL     1      -2.769  11.018  18.193  0.00  0.00    +0.000 A 
BRANCH  20  27
ATOM     26  C   UNL     1       0.099  10.135  18.354  0.00  0.00    +0.000 C 
ATOM     27  O   UNL     1      -0.835   9.734  17.427  0.00  0.00    +0.000 OA
ENDBRANCH  20  27
ENDBRANCH   1  24
TORSDOF 3
ENDMDL
MODEL 9
REMARK VINA RESULT:      -7.2      7.539     10.626
REMARK  Name = 
REMARK  6 active torsions:
REMARK  status: ('A' for Active; 'I' for Inactive)
REMARK    1  A    between atoms: C_1  and  O_2
REMARK    2  A    between atoms: O_2  and  C_3
REMARK    3  A    between atoms: C_7  and  N_8
REMARK    4  A    between atoms: C_11  and  C_12
REMARK    5  A    between atoms: C_20  and  C_21
REMARK    6  A    between atoms: C_22  and  C_23
REMARK                            x       y       z     vdW  Elec       q    Type
REMARK                         _______ _______ _______ _____ _____    ______ ____
ROOT
ATOM      1  N   UNL     1      -4.523  12.113  18.736  0.00  0.00    +0.000 N 
ATOM      2  C   UNL     1      -4.046  12.344  20.071  0.00  0.00    +0.000 A 
ATOM      3  N   UNL     1      -2.730  12.274  20.426  0.00  0.00    +0.000 NA
ATOM      4  C   UNL     1      -2.701  12.530  21.756  0.00  0.00    +0.000 A 
ATOM      5  C   UNL     1      -3.982  12.736  22.160  0.00  0.00    +0.000 A 
ATOM      6  S   UNL     1      -4.689  13.060  23.633  0.00  0.00    +0.000 S 
ATOM      7  C   UNL     1      -6.224  13.084  22.920  0.00  0.00    +0.000 A 
ATOM      8  C   UNL     1      -7.452  13.299  23.742  0.00  0.00    +0.000 C 
ATOM      9  C   UNL     1      -6.120  12.858  21.522  0.00  0.00    +0.000 A 
ATOM     10  C   UNL     1      -7.291  12.841  20.585  0.00  0.00    +0.000 C 
ATOM     11  N   UNL     1      -4.823  12.644  21.149  0.00  0.00    +0.000 N 
ATOM     12  H   UNL     1      -5.459  12.471  18.493  0.00  0.00    +0.000 HD
ENDROOT
BRANCH   4  13
ATOM     13  C   UNL     1      -1.504  12.600  22.678  0.00  0.00    +0.000 C 
ATOM     14  C   UNL     1      -0.376  13.469  22.104  0.00  0.00    +0.000 C 
ATOM     15  C   UNL     1       0.386  12.727  20.994  0.00  0.00    +0.000 C 
ATOM     16  N   UNL     1       0.923  11.454  21.499  0.00  0.00    +0.000 NA
ATOM     17  C   UNL     1      -0.157  10.570  21.963  0.00  0.00    +0.000 C 
ATOM     18  C   UNL     1      -0.958  11.227  23.094  0.00  0.00    +0.000 C 
ATOM     19  H   UNL     1       1.580  11.644  22.293  0.00  0.00    +0.000 HD
ENDBRANCH   4  13
BRANCH   1  24
ATOM     20  C   UNL     1      -3.564  10.681  15.376  0.00  0.00    +0.000 A 
ATOM     21  C   UNL     1      -2.457   9.905  15.726  0.00  0.00    +0.000 A 
ATOM     22  C   UNL     1      -2.018   9.857  17.042  0.00  0.00    +0.000 A 
ATOM     23  C   UNL     1      -2.676  10.584  18.032  0.00  0.00    +0.000 A 
ATOM     24  C   UNL     1      -3.797  11.390  17.725  0.00  0.00    +0.000 A 
ATOM     25  C   UNL     1      -4.237  11.422  16.380  0.00  0.00    +0.000 A 
BRANCH  20  27
ATOM     26  C   UNL     1      -3.579   9.748  13.123  0.00  0.00    +0.000 C 
ATOM     27  O   UNL     1      -3.940  10.677  14.071  0.00  0.00    +0.000 OA
ENDBRANCH  20  27
ENDBRANCH   1  24
TORSDOF 3
ENDMDL
