MODEL 1
REMARK VINA RESULT:      -5.8      0.000      0.000
REMARK  Name = 
REMARK  5 active torsions:
REMARK  status: ('A' for Active; 'I' for Inactive)
REMARK    1  A    between atoms: C_1  and  C_2
REMARK    2  A    between atoms: C_2  and  N_3
REMARK    3  A    between atoms: C_7  and  C_8
REMARK    4  A    between atoms: N_16  and  C_17
REMARK    5  A    between atoms: C_17  and  C_18
REMARK                            x       y       z     vdW  Elec       q    Type
REMARK                         _______ _______ _______ _____ _____    ______ ____
ROOT
ATOM      1  N   UNL     1       4.511   5.405  17.973  0.00  0.00    +0.000 N 
ATOM      2  C   UNL     1       4.173   6.687  17.543  0.00  0.00    +0.000 C 
ATOM      3  O   UNL     1       4.834   7.309  16.710  0.00  0.00    +0.000 OA
ATOM      4  C   UNL     1       2.980   7.295  18.160  0.00  0.00    +0.000 C 
ATOM      5  C   UNL     1       2.568   8.444  17.579  0.00  0.00    +0.000 C 
ATOM      6  C   UNL     1       2.375   6.679  19.354  0.00  0.00    +0.000 C 
ATOM      7  O   UNL     1       1.486   7.241  19.991  0.00  0.00    +0.000 OA
ATOM      8  N   UNL     1       2.878   5.426  19.719  0.00  0.00    +0.000 N 
ATOM      9  C   UNL     1       3.872   4.705  19.019  0.00  0.00    +0.000 C 
ATOM     10  S   UNL     1       4.285   3.105  19.419  0.00  0.00    +0.000 S 
ENDROOT
BRANCH   5  11
ATOM     11  C   UNL     1       1.538   9.285  18.068  0.00  0.00    +0.000 A 
ATOM     12  C   UNL     1       0.184   9.236  17.756  0.00  0.00    +0.000 A 
ATOM     13  C   UNL     1      -0.578  10.204  18.470  0.00  0.00    +0.000 A 
ATOM     14  C   UNL     1       0.216  10.936  19.311  0.00  0.00    +0.000 A 
ATOM     15 BR   UNL     1      -0.435  12.302  20.416  0.00  0.00    +0.000 Br
ATOM     16  S   UNL     1       1.847  10.477  19.265  0.00  0.00    +0.000 S 
ENDBRANCH   5  11
BRANCH   1  18
ATOM     17  C   UNL     1       5.342   4.095  16.019  0.00  0.00    +0.000 C 
ATOM     18  C   UNL     1       5.708   4.860  17.290  0.00  0.00    +0.000 C 
ENDBRANCH   1  18
BRANCH   8  19
ATOM     19  C   UNL     1       2.282   4.895  20.969  0.00  0.00    +0.000 C 
ATOM     20  C   UNL     1       1.128   3.928  20.735  0.00  0.00    +0.000 C 
ENDBRANCH   8  19
TORSDOF 3
ENDMDL
MODEL 2
REMARK VINA RESULT:      -5.7      3.664      6.427
REMARK  Name = 
REMARK  5 active torsions:
REMARK  status: ('A' for Active; 'I' for Inactive)
REMARK    1  A    between atoms: C_1  and  C_2
REMARK    2  A    between atoms: C_2  and  N_3
REMARK    3  A    between atoms: C_7  and  C_8
REMARK    4  A    between atoms: N_16  and  C_17
REMARK    5  A    between atoms: C_17  and  C_18
REMARK                            x       y       z     vdW  Elec       q    Type
REMARK                         _______ _______ _______ _____ _____    ______ ____
ROOT
ATOM      1  N   UNL     1       2.944   4.849  19.978  0.00  0.00    +0.000 N 
ATOM      2  C   UNL     1       3.778   4.041  19.207  0.00  0.00    +0.000 C 
ATOM      3  O   UNL     1       4.175   2.937  19.584  0.00  0.00    +0.000 OA
ATOM      4  C   UNL     1       4.199   4.584  17.903  0.00  0.00    +0.000 C 
ATOM      5  C   UNL     1       4.835   3.699  17.103  0.00  0.00    +0.000 C 
ATOM      6  C   UNL     1       3.971   6.006  17.589  0.00  0.00    +0.000 C 
ATOM      7  O   UNL     1       4.450   6.531  16.588  0.00  0.00    +0.000 OA
ATOM      8  N   UNL     1       3.185   6.716  18.503  0.00  0.00    +0.000 N 
ATOM      9  C   UNL     1       2.572   6.172  19.656  0.00  0.00    +0.000 C 
ATOM     10  S   UNL     1       1.474   7.058  20.604  0.00  0.00    +0.000 S 
ENDROOT
BRANCH   5  11
ATOM     11  C   UNL     1       5.454   4.011  15.867  0.00  0.00    +0.000 A 
ATOM     12  C   UNL     1       4.929   3.850  14.591  0.00  0.00    +0.000 A 
ATOM     13  C   UNL     1       5.808   4.316  13.573  0.00  0.00    +0.000 A 
ATOM     14  C   UNL     1       6.957   4.831  14.109  0.00  0.00    +0.000 A 
ATOM     15 BR   UNL     1       8.349   5.542  13.077  0.00  0.00    +0.000 Br
ATOM     16  S   UNL     1       6.991   4.775  15.804  0.00  0.00    +0.000 S 
ENDBRANCH   5  11
BRANCH   1  18
ATOM     17  C   UNL     1       1.332   3.317  21.107  0.00  0.00    +0.000 C 
ATOM     18  C   UNL     1       2.552   4.222  21.262  0.00  0.00    +0.000 C 
ENDBRANCH   1  18
BRANCH   8  19
ATOM     19  C   UNL     1       3.054   8.155  18.172  0.00  0.00    +0.000 C 
ATOM     20  C   UNL     1       1.690   8.534  17.610  0.00  0.00    +0.000 C 
ENDBRANCH   8  19
TORSDOF 3
ENDMDL
MODEL 3
REMARK VINA RESULT:      -5.7      1.637      1.728
REMARK  Name = 
REMARK  5 active torsions:
REMARK  status: ('A' for Active; 'I' for Inactive)
REMARK    1  A    between atoms: C_1  and  C_2
REMARK    2  A    between atoms: C_2  and  N_3
REMARK    3  A    between atoms: C_7  and  C_8
REMARK    4  A    between atoms: N_16  and  C_17
REMARK    5  A    between atoms: C_17  and  C_18
REMARK                            x       y       z     vdW  Elec       q    Type
REMARK                         _______ _______ _______ _____ _____    ______ ____
ROOT
ATOM      1  N   UNL     1       4.054   4.636  18.089  0.00  0.00    +0.000 N 
ATOM      2  C   UNL     1       3.930   6.015  18.245  0.00  0.00    +0.000 C 
ATOM      3  O   UNL     1       4.769   6.814  17.825  0.00  0.00    +0.000 OA
ATOM      4  C   UNL     1       2.741   6.491  18.974  0.00  0.00    +0.000 C 
ATOM      5  C   UNL     1       2.551   7.829  18.931  0.00  0.00    +0.000 C 
ATOM      6  C   UNL     1       1.906   5.535  19.724  0.00  0.00    +0.000 C 
ATOM      7  O   UNL     1       1.008   5.911  20.473  0.00  0.00    +0.000 OA
ATOM      8  N   UNL     1       2.205   4.182  19.535  0.00  0.00    +0.000 N 
ATOM      9  C   UNL     1       3.198   3.673  18.665  0.00  0.00    +0.000 C 
ATOM     10  S   UNL     1       3.362   2.011  18.347  0.00  0.00    +0.000 S 
ENDROOT
BRANCH   5  11
ATOM     11  C   UNL     1       1.566   8.539  19.662  0.00  0.00    +0.000 A 
ATOM     12  C   UNL     1       0.450   9.198  19.161  0.00  0.00    +0.000 A 
ATOM     13  C   UNL     1      -0.358   9.767  20.186  0.00  0.00    +0.000 A 
ATOM     14  C   UNL     1       0.160   9.504  21.426  0.00  0.00    +0.000 A 
ATOM     15 BR   UNL     1      -0.632  10.089  23.019  0.00  0.00    +0.000 Br
ATOM     16  S   UNL     1       1.582   8.582  21.378  0.00  0.00    +0.000 S 
ENDBRANCH   5  11
BRANCH   1  18
ATOM     17  C   UNL     1       5.016   4.238  15.821  0.00  0.00    +0.000 C 
ATOM     18  C   UNL     1       5.264   4.243  17.328  0.00  0.00    +0.000 C 
ENDBRANCH   1  18
BRANCH   8  19
ATOM     19  C   UNL     1       1.382   3.275  20.371  0.00  0.00    +0.000 C 
ATOM     20  C   UNL     1       2.038   2.896  21.693  0.00  0.00    +0.000 C 
ENDBRANCH   8  19
TORSDOF 3
ENDMDL
MODEL 4
REMARK VINA RESULT:      -5.6      1.829      2.127
REMARK  Name = 
REMARK  5 active torsions:
REMARK  status: ('A' for Active; 'I' for Inactive)
REMARK    1  A    between atoms: C_1  and  C_2
REMARK    2  A    between atoms: C_2  and  N_3
REMARK    3  A    between atoms: C_7  and  C_8
REMARK    4  A    between atoms: N_16  and  C_17
REMARK    5  A    between atoms: C_17  and  C_18
REMARK                            x       y       z     vdW  Elec       q    Type
REMARK                         _______ _______ _______ _____ _____    ______ ____
ROOT
ATOM      1  N   UNL     1       3.389   4.824  17.725  0.00  0.00    +0.000 N 
ATOM      2  C   UNL     1       3.357   6.182  18.039  0.00  0.00    +0.000 C 
ATOM      3  O   UNL     1       4.080   7.013  17.486  0.00  0.00    +0.000 OA
ATOM      4  C   UNL     1       2.421   6.591  19.101  0.00  0.00    +0.000 C 
ATOM      5  C   UNL     1       2.271   7.927  19.237  0.00  0.00    +0.000 C 
ATOM      6  C   UNL     1       1.784   5.570  19.953  0.00  0.00    +0.000 C 
ATOM      7  O   UNL     1       1.131   5.876  20.948  0.00  0.00    +0.000 OA
ATOM      8  N   UNL     1       1.977   4.241  19.565  0.00  0.00    +0.000 N 
ATOM      9  C   UNL     1       2.685   3.815  18.417  0.00  0.00    +0.000 C 
ATOM     10  S   UNL     1       2.704   2.192  17.912  0.00  0.00    +0.000 S 
ENDROOT
BRANCH   5  11
ATOM     11  C   UNL     1       1.540   8.568  20.268  0.00  0.00    +0.000 A 
ATOM     12  C   UNL     1       1.678   8.394  21.639  0.00  0.00    +0.000 A 
ATOM     13  C   UNL     1       0.811   9.239  22.389  0.00  0.00    +0.000 A 
ATOM     14  C   UNL     1       0.063  10.037  21.565  0.00  0.00    +0.000 A 
ATOM     15 BR   UNL     1      -1.188  11.282  22.192  0.00  0.00    +0.000 Br
ATOM     16  S   UNL     1       0.391   9.797  19.919  0.00  0.00    +0.000 S 
ENDBRANCH   5  11
BRANCH   1  18
ATOM     17  C   UNL     1       5.752   4.257  17.162  0.00  0.00    +0.000 C 
ATOM     18  C   UNL     1       4.340   4.501  16.635  0.00  0.00    +0.000 C 
ENDBRANCH   1  18
BRANCH   8  19
ATOM     19  C   UNL     1       1.377   3.261  20.502  0.00  0.00    +0.000 C 
ATOM     20  C   UNL     1       2.329   2.796  21.596  0.00  0.00    +0.000 C 
ENDBRANCH   8  19
TORSDOF 3
ENDMDL
MODEL 5
REMARK VINA RESULT:      -5.6      1.036      1.174
REMARK  Name = 
REMARK  5 active torsions:
REMARK  status: ('A' for Active; 'I' for Inactive)
REMARK    1  A    between atoms: C_1  and  C_2
REMARK    2  A    between atoms: C_2  and  N_3
REMARK    3  A    between atoms: C_7  and  C_8
REMARK    4  A    between atoms: N_16  and  C_17
REMARK    5  A    between atoms: C_17  and  C_18
REMARK                            x       y       z     vdW  Elec       q    Type
REMARK                         _______ _______ _______ _____ _____    ______ ____
ROOT
ATOM      1  N   UNL     1       4.362   5.034  18.186  0.00  0.00    +0.000 N 
ATOM      2  C   UNL     1       4.056   6.369  17.930  0.00  0.00    +0.000 C 
ATOM      3  O   UNL     1       4.714   7.071  17.160  0.00  0.00    +0.000 OA
ATOM      4  C   UNL     1       2.902   6.931  18.655  0.00  0.00    +0.000 C 
ATOM      5  C   UNL     1       2.514   8.156  18.235  0.00  0.00    +0.000 C 
ATOM      6  C   UNL     1       2.310   6.189  19.783  0.00  0.00    +0.000 C 
ATOM      7  O   UNL     1       1.460   6.693  20.513  0.00  0.00    +0.000 OA
ATOM      8  N   UNL     1       2.781   4.886  19.973  0.00  0.00    +0.000 N 
ATOM      9  C   UNL     1       3.730   4.228  19.157  0.00  0.00    +0.000 C 
ATOM     10  S   UNL     1       4.099   2.579  19.342  0.00  0.00    +0.000 S 
ENDROOT
BRANCH   5  11
ATOM     11  C   UNL     1       1.526   8.959  18.858  0.00  0.00    +0.000 A 
ATOM     12  C   UNL     1       1.477   9.366  20.185  0.00  0.00    +0.000 A 
ATOM     13  C   UNL     1       0.366  10.212  20.459  0.00  0.00    +0.000 A 
ATOM     14  C   UNL     1      -0.376  10.435  19.330  0.00  0.00    +0.000 A 
ATOM     15 BR   UNL     1      -1.915  11.502  19.301  0.00  0.00    +0.000 Br
ATOM     16  S   UNL     1       0.243   9.658  17.956  0.00  0.00    +0.000 S 
ENDBRANCH   5  11
BRANCH   1  18
ATOM     17  C   UNL     1       5.107   4.059  16.014  0.00  0.00    +0.000 C 
ATOM     18  C   UNL     1       5.520   4.542  17.403  0.00  0.00    +0.000 C 
ENDBRANCH   1  18
BRANCH   8  19
ATOM     19  C   UNL     1       2.203   4.220  21.166  0.00  0.00    +0.000 C 
ATOM     20  C   UNL     1       1.050   3.278  20.844  0.00  0.00    +0.000 C 
ENDBRANCH   8  19
TORSDOF 3
ENDMDL
MODEL 6
REMARK VINA RESULT:      -5.5      3.643      6.188
REMARK  Name = 
REMARK  5 active torsions:
REMARK  status: ('A' for Active; 'I' for Inactive)
REMARK    1  A    between atoms: C_1  and  C_2
REMARK    2  A    between atoms: C_2  and  N_3
REMARK    3  A    between atoms: C_7  and  C_8
REMARK    4  A    between atoms: N_16  and  C_17
REMARK    5  A    between atoms: C_17  and  C_18
REMARK                            x       y       z     vdW  Elec       q    Type
REMARK                         _______ _______ _______ _____ _____    ______ ____
ROOT
ATOM      1  N   UNL     1       1.222  10.863  19.182  0.00  0.00    +0.000 N 
ATOM      2  C   UNL     1       1.780   9.865  18.384  0.00  0.00    +0.000 C 
ATOM      3  O   UNL     1       2.180  10.072  17.237  0.00  0.00    +0.000 OA
ATOM      4  C   UNL     1       1.850   8.515  18.970  0.00  0.00    +0.000 C 
ATOM      5  C   UNL     1       2.574   7.626  18.254  0.00  0.00    +0.000 C 
ATOM      6  C   UNL     1       1.110   8.211  20.208  0.00  0.00    +0.000 C 
ATOM      7  O   UNL     1       1.009   7.064  20.636  0.00  0.00    +0.000 OA
ATOM      8  N   UNL     1       0.526   9.304  20.857  0.00  0.00    +0.000 N 
ATOM      9  C   UNL     1       0.626  10.653  20.445  0.00  0.00    +0.000 C 
ATOM     10  S   UNL     1       0.053  11.939  21.397  0.00  0.00    +0.000 S 
ENDROOT
BRANCH   5  11
ATOM     11  C   UNL     1       2.676   6.240  18.533  0.00  0.00    +0.000 A 
ATOM     12  C   UNL     1       1.847   5.221  18.081  0.00  0.00    +0.000 A 
ATOM     13  C   UNL     1       2.272   3.934  18.517  0.00  0.00    +0.000 A 
ATOM     14  C   UNL     1       3.417   4.018  19.263  0.00  0.00    +0.000 A 
ATOM     15 BR   UNL     1       4.275   2.528  20.006  0.00  0.00    +0.000 Br
ATOM     16  S   UNL     1       3.989   5.604  19.439  0.00  0.00    +0.000 S 
ENDBRANCH   5  11
BRANCH   1  18
ATOM     17  C   UNL     1       2.481  12.985  18.819  0.00  0.00    +0.000 C 
ATOM     18  C   UNL     1       1.209  12.192  18.527  0.00  0.00    +0.000 C 
ENDBRANCH   1  18
BRANCH   8  19
ATOM     19  C   UNL     1      -0.266   8.925  22.052  0.00  0.00    +0.000 C 
ATOM     20  C   UNL     1       0.385   9.321  23.370  0.00  0.00    +0.000 C 
ENDBRANCH   8  19
TORSDOF 3
ENDMDL
MODEL 7
REMARK VINA RESULT:      -5.5      3.734      6.566
REMARK  Name = 
REMARK  5 active torsions:
REMARK  status: ('A' for Active; 'I' for Inactive)
REMARK    1  A    between atoms: C_1  and  C_2
REMARK    2  A    between atoms: C_2  and  N_3
REMARK    3  A    between atoms: C_7  and  C_8
REMARK    4  A    between atoms: N_16  and  C_17
REMARK    5  A    between atoms: C_17  and  C_18
REMARK                            x       y       z     vdW  Elec       q    Type
REMARK                         _______ _______ _______ _____ _____    ______ ____
ROOT
ATOM      1  N   UNL     1       2.876   4.824  20.120  0.00  0.00    +0.000 N 
ATOM      2  C   UNL     1       3.823   4.066  19.435  0.00  0.00    +0.000 C 
ATOM      3  O   UNL     1       4.237   2.980  19.847  0.00  0.00    +0.000 OA
ATOM      4  C   UNL     1       4.344   4.639  18.180  0.00  0.00    +0.000 C 
ATOM      5  C   UNL     1       5.102   3.794  17.446  0.00  0.00    +0.000 C 
ATOM      6  C   UNL     1       4.075   6.050  17.849  0.00  0.00    +0.000 C 
ATOM      7  O   UNL     1       4.624   6.607  16.902  0.00  0.00    +0.000 OA
ATOM      8  N   UNL     1       3.166   6.712  18.681  0.00  0.00    +0.000 N 
ATOM      9  C   UNL     1       2.470   6.129  19.766  0.00  0.00    +0.000 C 
ATOM     10  S   UNL     1       1.238   6.950  20.601  0.00  0.00    +0.000 S 
ENDROOT
BRANCH   5  11
ATOM     11  C   UNL     1       5.824   4.147  16.279  0.00  0.00    +0.000 A 
ATOM     12  C   UNL     1       7.042   4.811  16.204  0.00  0.00    +0.000 A 
ATOM     13  C   UNL     1       7.506   4.957  14.866  0.00  0.00    +0.000 A 
ATOM     14  C   UNL     1       6.637   4.385  13.976  0.00  0.00    +0.000 A 
ATOM     15 BR   UNL     1       6.914   4.377  12.124  0.00  0.00    +0.000 Br
ATOM     16  S   UNL     1       5.291   3.669  14.718  0.00  0.00    +0.000 S 
ENDBRANCH   5  11
BRANCH   1  18
ATOM     17  C   UNL     1       1.219   3.226  21.082  0.00  0.00    +0.000 C 
ATOM     18  C   UNL     1       2.390   4.168  21.357  0.00  0.00    +0.000 C 
ENDBRANCH   1  18
BRANCH   8  19
ATOM     19  C   UNL     1       2.995   8.145  18.342  0.00  0.00    +0.000 C 
ATOM     20  C   UNL     1       1.700   8.450  17.601  0.00  0.00    +0.000 C 
ENDBRANCH   8  19
TORSDOF 3
ENDMDL
MODEL 8
REMARK VINA RESULT:      -5.4      3.652      6.266
REMARK  Name = 
REMARK  5 active torsions:
REMARK  status: ('A' for Active; 'I' for Inactive)
REMARK    1  A    between atoms: C_1  and  C_2
REMARK    2  A    between atoms: C_2  and  N_3
REMARK    3  A    between atoms: C_7  and  C_8
REMARK    4  A    between atoms: N_16  and  C_17
REMARK    5  A    between atoms: C_17  and  C_18
REMARK                            x       y       z     vdW  Elec       q    Type
REMARK                         _______ _______ _______ _____ _____    ______ ____
ROOT
ATOM      1  N   UNL     1       1.099  10.831  19.204  0.00  0.00    +0.000 N 
ATOM      2  C   UNL     1       1.721   9.844  18.442  0.00  0.00    +0.000 C 
ATOM      3  O   UNL     1       2.109  10.034  17.288  0.00  0.00    +0.000 OA
ATOM      4  C   UNL     1       1.878   8.523  19.077  0.00  0.00    +0.000 C 
ATOM      5  C   UNL     1       2.659   7.657  18.393  0.00  0.00    +0.000 C 
ATOM      6  C   UNL     1       1.158   8.217  20.326  0.00  0.00    +0.000 C 
ATOM      7  O   UNL     1       1.132   7.082  20.795  0.00  0.00    +0.000 OA
ATOM      8  N   UNL     1       0.503   9.292  20.935  0.00  0.00    +0.000 N 
ATOM      9  C   UNL     1       0.516  10.629  20.474  0.00  0.00    +0.000 C 
ATOM     10  S   UNL     1      -0.141  11.909  21.380  0.00  0.00    +0.000 S 
ENDROOT
BRANCH   5  11
ATOM     11  C   UNL     1       2.851   6.292  18.722  0.00  0.00    +0.000 A 
ATOM     12  C   UNL     1       3.773   5.756  19.613  0.00  0.00    +0.000 A 
ATOM     13  C   UNL     1       3.656   4.343  19.738  0.00  0.00    +0.000 A 
ATOM     14  C   UNL     1       2.641   3.859  18.958  0.00  0.00    +0.000 A 
ATOM     15 BR   UNL     1       2.186   2.044  18.865  0.00  0.00    +0.000 Br
ATOM     16  S   UNL     1       1.825   5.067  18.092  0.00  0.00    +0.000 S 
ENDBRANCH   5  11
BRANCH   1  18
ATOM     17  C   UNL     1       2.231  13.004  18.738  0.00  0.00    +0.000 C 
ATOM     18  C   UNL     1       1.000  12.132  18.501  0.00  0.00    +0.000 C 
ENDBRANCH   1  18
BRANCH   8  19
ATOM     19  C   UNL     1      -0.264   8.906  22.144  0.00  0.00    +0.000 C 
ATOM     20  C   UNL     1       0.392   9.335  23.450  0.00  0.00    +0.000 C 
ENDBRANCH   8  19
TORSDOF 3
ENDMDL
MODEL 9
REMARK VINA RESULT:      -5.3      5.123      7.626
REMARK  Name = 
REMARK  5 active torsions:
REMARK  status: ('A' for Active; 'I' for Inactive)
REMARK    1  A    between atoms: C_1  and  C_2
REMARK    2  A    between atoms: C_2  and  N_3
REMARK    3  A    between atoms: C_7  and  C_8
REMARK    4  A    between atoms: N_16  and  C_17
REMARK    5  A    between atoms: C_17  and  C_18
REMARK                            x       y       z     vdW  Elec       q    Type
REMARK                         _______ _______ _______ _____ _____    ______ ____
ROOT
ATOM      1  N   UNL     1       0.439  10.183  21.239  0.00  0.00    +0.000 N 
ATOM      2  C   UNL     1      -0.243  10.572  22.390  0.00  0.00    +0.000 C 
ATOM      3  O   UNL     1      -0.013  10.087  23.500  0.00  0.00    +0.000 OA
ATOM      4  C   UNL     1      -1.293  11.593  22.222  0.00  0.00    +0.000 C 
ATOM      5  C   UNL     1      -1.789  12.088  23.377  0.00  0.00    +0.000 C 
ATOM      6  C   UNL     1      -1.763  11.947  20.870  0.00  0.00    +0.000 C 
ATOM      7  O   UNL     1      -2.744  12.666  20.696  0.00  0.00    +0.000 OA
ATOM      8  N   UNL     1      -1.032  11.410  19.806  0.00  0.00    +0.000 N 
ATOM      9  C   UNL     1       0.124  10.605  19.928  0.00  0.00    +0.000 C 
ATOM     10  S   UNL     1       1.065  10.157  18.585  0.00  0.00    +0.000 S 
ENDROOT
BRANCH   5  11
ATOM     11  C   UNL     1      -2.893  12.971  23.482  0.00  0.00    +0.000 A 
ATOM     12  C   UNL     1      -4.234  12.638  23.632  0.00  0.00    +0.000 A 
ATOM     13  C   UNL     1      -5.072  13.781  23.756  0.00  0.00    +0.000 A 
ATOM     14  C   UNL     1      -4.340  14.938  23.717  0.00  0.00    +0.000 A 
ATOM     15 BR   UNL     1      -5.100  16.644  23.854  0.00  0.00    +0.000 Br
ATOM     16  S   UNL     1      -2.674  14.673  23.548  0.00  0.00    +0.000 S 
ENDBRANCH   5  11
BRANCH   1  18
ATOM     17  C   UNL     1       1.004   7.754  21.207  0.00  0.00    +0.000 C 
ATOM     18  C   UNL     1       1.490   9.172  21.498  0.00  0.00    +0.000 C 
ENDBRANCH   1  18
BRANCH   8  19
ATOM     19  C   UNL     1      -1.598  11.741  18.477  0.00  0.00    +0.000 C 
ATOM     20  C   UNL     1      -2.509  10.659  17.911  0.00  0.00    +0.000 C 
ENDBRANCH   8  19
TORSDOF 3
ENDMDL
