MODEL 1
REMARK VINA RESULT:      -8.5      0.000      0.000
REMARK  Name = 
REMARK  6 active torsions:
REMARK  status: ('A' for Active; 'I' for Inactive)
REMARK    1  A    between atoms: C_2  and  C_10
REMARK    2  A    between atoms: N_3  and  S_4
REMARK    3  A    between atoms: S_4  and  C_7
REMARK    4  A    between atoms: C_14  and  O_15
REMARK    5  A    between atoms: O_15  and  C_16
REMARK    6  A    between atoms: C_16  and  C_17
REMARK                            x       y       z     vdW  Elec       q    Type
REMARK                         _______ _______ _______ _____ _____    ______ ____
ROOT
ATOM      1  C   UNL     1       5.428   5.360  17.616  0.00  0.00    +0.000 A 
ATOM      2  C   UNL     1       6.344   5.107  18.658  0.00  0.00    +0.000 A 
ATOM      3  C   UNL     1       7.388   6.015  18.914  0.00  0.00    +0.000 A 
ATOM      4 CL   UNL     1       8.482   5.645  20.206  0.00  0.00    +0.000 Cl
ATOM      5  C   UNL     1       7.535   7.196  18.163  0.00  0.00    +0.000 A 
ATOM      6  C   UNL     1       6.617   7.440  17.146  0.00  0.00    +0.000 A 
ATOM      7  C   UNL     1       5.577   6.537  16.871  0.00  0.00    +0.000 A 
ATOM      8  F   UNL     1       4.732   6.811  15.889  0.00  0.00    +0.000 F 
ENDROOT
BRANCH   1  10
ATOM      9  O   UNL     1       4.374   3.667  16.360  0.00  0.00    +0.000 OA
ATOM     10  C   UNL     1       4.346   4.370  17.358  0.00  0.00    +0.000 C 
ATOM     11  N   UNL     1       3.343   4.257  18.335  0.00  0.00    +0.000 N 
ATOM     12  H   UNL     1       3.235   4.962  19.064  0.00  0.00    +0.000 HD
BRANCH  11  13
ATOM     13  S   UNL     1       2.058   3.209  18.266  0.00  0.00    +0.000 S 
ATOM     14  O   UNL     1       1.174   3.750  17.253  0.00  0.00    +0.000 OA
ATOM     15  O   UNL     1       2.603   1.871  18.116  0.00  0.00    +0.000 OA
BRANCH  13  16
ATOM     16  C   UNL     1       1.192   3.247  19.856  0.00  0.00    +0.000 C 
ATOM     17  C   UNL     1       2.114   3.349  21.045  0.00  0.00    +0.000 C 
ATOM     18  C   UNL     1       1.274   4.528  20.640  0.00  0.00    +0.000 C 
ENDBRANCH  13  16
ENDBRANCH  11  13
ENDBRANCH   1  10
BRANCH   5  19
ATOM     19  O   UNL     1       8.596   8.002  18.483  0.00  0.00    +0.000 OA
BRANCH  19  20
ATOM     20  C   UNL     1       8.446   9.410  18.277  0.00  0.00    +0.000 C 
BRANCH  20  21
ATOM     21  C   UNL     1       9.668  10.223  18.825  0.00  0.00    +0.000 C 
ATOM     22  C   UNL     1       9.252  10.903  20.111  0.00  0.00    +0.000 C 
ATOM     23  C   UNL     1      10.460  11.660  20.637  0.00  0.00    +0.000 C 
ATOM     24  C   UNL     1      10.484  12.927  19.845  0.00  0.00    +0.000 C 
ATOM     25  C   UNL     1      10.894  12.645  18.410  0.00  0.00    +0.000 C 
ATOM     26  C   UNL     1      10.387  11.240  17.856  0.00  0.00    +0.000 C 
ATOM     27  C   UNL     1       9.378  13.980  19.976  0.00  0.00    +0.000 C 
ATOM     28  C   UNL     1      10.650  14.168  20.725  0.00  0.00    +0.000 C 
ENDBRANCH  20  21
ENDBRANCH  19  20
ENDBRANCH   5  19
TORSDOF 6
ENDMDL
MODEL 2
REMARK VINA RESULT:      -8.0      0.657      1.264
REMARK  Name = 
REMARK  6 active torsions:
REMARK  status: ('A' for Active; 'I' for Inactive)
REMARK    1  A    between atoms: C_2  and  C_10
REMARK    2  A    between atoms: N_3  and  S_4
REMARK    3  A    between atoms: S_4  and  C_7
REMARK    4  A    between atoms: C_14  and  O_15
REMARK    5  A    between atoms: O_15  and  C_16
REMARK    6  A    between atoms: C_16  and  C_17
REMARK                            x       y       z     vdW  Elec       q    Type
REMARK                         _______ _______ _______ _____ _____    ______ ____
ROOT
ATOM      1  C   UNL     1       5.436   5.398  17.525  0.00  0.00    +0.000 A 
ATOM      2  C   UNL     1       6.353   5.144  18.565  0.00  0.00    +0.000 A 
ATOM      3  C   UNL     1       7.365   6.077  18.854  0.00  0.00    +0.000 A 
ATOM      4 CL   UNL     1       8.462   5.704  20.143  0.00  0.00    +0.000 Cl
ATOM      5  C   UNL     1       7.479   7.284  18.140  0.00  0.00    +0.000 A 
ATOM      6  C   UNL     1       6.559   7.528  17.124  0.00  0.00    +0.000 A 
ATOM      7  C   UNL     1       5.550   6.601  16.815  0.00  0.00    +0.000 A 
ATOM      8  F   UNL     1       4.704   6.875  15.836  0.00  0.00    +0.000 F 
ENDROOT
BRANCH   1  10
ATOM      9  O   UNL     1       4.406   3.758  16.180  0.00  0.00    +0.000 OA
ATOM     10  C   UNL     1       4.387   4.382  17.230  0.00  0.00    +0.000 C 
ATOM     11  N   UNL     1       3.429   4.150  18.231  0.00  0.00    +0.000 N 
ATOM     12  H   UNL     1       3.319   4.792  19.016  0.00  0.00    +0.000 HD
BRANCH  11  13
ATOM     13  S   UNL     1       2.189   3.052  18.128  0.00  0.00    +0.000 S 
ATOM     14  O   UNL     1       1.143   3.723  17.381  0.00  0.00    +0.000 OA
ATOM     15  O   UNL     1       2.754   1.810  17.631  0.00  0.00    +0.000 OA
BRANCH  13  16
ATOM     16  C   UNL     1       1.571   2.716  19.797  0.00  0.00    +0.000 C 
ATOM     17  C   UNL     1       2.180   3.598  20.857  0.00  0.00    +0.000 C 
ATOM     18  C   UNL     1       0.749   3.798  20.443  0.00  0.00    +0.000 C 
ENDBRANCH  13  16
ENDBRANCH  11  13
ENDBRANCH   1  10
BRANCH   5  19
ATOM     19  O   UNL     1       8.511   8.113  18.490  0.00  0.00    +0.000 OA
BRANCH  19  20
ATOM     20  C   UNL     1       8.723   9.283  17.693  0.00  0.00    +0.000 C 
BRANCH  20  21
ATOM     21  C   UNL     1       8.861  10.577  18.565  0.00  0.00    +0.000 C 
ATOM     22  C   UNL     1       9.705  11.577  17.805  0.00  0.00    +0.000 C 
ATOM     23  C   UNL     1       9.801  12.832  18.656  0.00  0.00    +0.000 C 
ATOM     24  C   UNL     1      10.866  12.527  19.658  0.00  0.00    +0.000 C 
ATOM     25  C   UNL     1      10.368  11.505  20.665  0.00  0.00    +0.000 C 
ATOM     26  C   UNL     1       9.366  10.430  20.053  0.00  0.00    +0.000 C 
ATOM     27  C   UNL     1      12.328  12.323  19.243  0.00  0.00    +0.000 C 
ATOM     28  C   UNL     1      11.904  13.647  19.774  0.00  0.00    +0.000 C 
ENDBRANCH  20  21
ENDBRANCH  19  20
ENDBRANCH   5  19
TORSDOF 6
ENDMDL
MODEL 3
REMARK VINA RESULT:      -7.7      5.009      7.607
REMARK  Name = 
REMARK  6 active torsions:
REMARK  status: ('A' for Active; 'I' for Inactive)
REMARK    1  A    between atoms: C_2  and  C_10
REMARK    2  A    between atoms: N_3  and  S_4
REMARK    3  A    between atoms: S_4  and  C_7
REMARK    4  A    between atoms: C_14  and  O_15
REMARK    5  A    between atoms: O_15  and  C_16
REMARK    6  A    between atoms: C_16  and  C_17
REMARK                            x       y       z     vdW  Elec       q    Type
REMARK                         _______ _______ _______ _____ _____    ______ ____
ROOT
ATOM      1  C   UNL     1       1.698   7.579  20.217  0.00  0.00    +0.000 A 
ATOM      2  C   UNL     1       1.406   6.323  20.785  0.00  0.00    +0.000 A 
ATOM      3  C   UNL     1       1.717   5.144  20.083  0.00  0.00    +0.000 A 
ATOM      4 CL   UNL     1       1.331   3.630  20.834  0.00  0.00    +0.000 Cl
ATOM      5  C   UNL     1       2.337   5.182  18.820  0.00  0.00    +0.000 A 
ATOM      6  C   UNL     1       2.631   6.429  18.276  0.00  0.00    +0.000 A 
ATOM      7  C   UNL     1       2.317   7.615  18.960  0.00  0.00    +0.000 A 
ATOM      8  F   UNL     1       2.610   8.776  18.399  0.00  0.00    +0.000 F 
ENDROOT
BRANCH   1  10
ATOM      9  O   UNL     1       1.672   8.935  22.145  0.00  0.00    +0.000 OA
ATOM     10  C   UNL     1       1.340   8.809  20.976  0.00  0.00    +0.000 C 
ATOM     11  N   UNL     1       0.662   9.817  20.270  0.00  0.00    +0.000 N 
ATOM     12  H   UNL     1       0.239   9.631  19.360  0.00  0.00    +0.000 HD
BRANCH  11  13
ATOM     13  S   UNL     1       0.186  11.273  20.906  0.00  0.00    +0.000 S 
ATOM     14  O   UNL     1      -0.793  10.947  21.925  0.00  0.00    +0.000 OA
ATOM     15  O   UNL     1       1.392  12.000  21.264  0.00  0.00    +0.000 OA
BRANCH  13  16
ATOM     16  C   UNL     1      -0.639  12.233  19.610  0.00  0.00    +0.000 C 
ATOM     17  C   UNL     1      -2.042  11.767  19.313  0.00  0.00    +0.000 C 
ATOM     18  C   UNL     1      -1.817  13.066  20.034  0.00  0.00    +0.000 C 
ENDBRANCH  13  16
ENDBRANCH  11  13
ENDBRANCH   1  10
BRANCH   5  19
ATOM     19  O   UNL     1       2.579   3.977  18.215  0.00  0.00    +0.000 OA
BRANCH  19  20
ATOM     20  C   UNL     1       3.723   3.234  18.647  0.00  0.00    +0.000 C 
BRANCH  20  21
ATOM     21  C   UNL     1       5.027   3.657  17.889  0.00  0.00    +0.000 C 
ATOM     22  C   UNL     1       5.809   4.603  18.774  0.00  0.00    +0.000 C 
ATOM     23  C   UNL     1       7.080   4.976  18.031  0.00  0.00    +0.000 C 
ATOM     24  C   UNL     1       6.657   6.044  17.075  0.00  0.00    +0.000 C 
ATOM     25  C   UNL     1       5.808   5.452  15.963  0.00  0.00    +0.000 C 
ATOM     26  C   UNL     1       4.890   4.237  16.427  0.00  0.00    +0.000 C 
ATOM     27  C   UNL     1       6.170   7.414  17.561  0.00  0.00    +0.000 C 
ATOM     28  C   UNL     1       7.580   7.265  17.110  0.00  0.00    +0.000 C 
ENDBRANCH  20  21
ENDBRANCH  19  20
ENDBRANCH   5  19
TORSDOF 6
ENDMDL
MODEL 4
REMARK VINA RESULT:      -7.6      4.983      7.608
REMARK  Name = 
REMARK  6 active torsions:
REMARK  status: ('A' for Active; 'I' for Inactive)
REMARK    1  A    between atoms: C_2  and  C_10
REMARK    2  A    between atoms: N_3  and  S_4
REMARK    3  A    between atoms: S_4  and  C_7
REMARK    4  A    between atoms: C_14  and  O_15
REMARK    5  A    between atoms: O_15  and  C_16
REMARK    6  A    between atoms: C_16  and  C_17
REMARK                            x       y       z     vdW  Elec       q    Type
REMARK                         _______ _______ _______ _____ _____    ______ ____
ROOT
ATOM      1  C   UNL     1       1.685   7.724  20.204  0.00  0.00    +0.000 A 
ATOM      2  C   UNL     1       1.410   6.485  20.818  0.00  0.00    +0.000 A 
ATOM      3  C   UNL     1       1.708   5.286  20.147  0.00  0.00    +0.000 A 
ATOM      4 CL   UNL     1       1.343   3.796  20.955  0.00  0.00    +0.000 Cl
ATOM      5  C   UNL     1       2.301   5.284  18.871  0.00  0.00    +0.000 A 
ATOM      6  C   UNL     1       2.580   6.514  18.282  0.00  0.00    +0.000 A 
ATOM      7  C   UNL     1       2.277   7.720  18.933  0.00  0.00    +0.000 A 
ATOM      8  F   UNL     1       2.554   8.864  18.329  0.00  0.00    +0.000 F 
ENDROOT
BRANCH   1  10
ATOM      9  O   UNL     1       1.609   9.100  22.116  0.00  0.00    +0.000 OA
ATOM     10  C   UNL     1       1.340   8.977  20.931  0.00  0.00    +0.000 C 
ATOM     11  N   UNL     1       0.751  10.006  20.177  0.00  0.00    +0.000 N 
ATOM     12  H   UNL     1       0.374   9.829  19.246  0.00  0.00    +0.000 HD
BRANCH  11  13
ATOM     13  S   UNL     1       0.305  11.490  20.773  0.00  0.00    +0.000 S 
ATOM     14  O   UNL     1       1.524  12.076  21.295  0.00  0.00    +0.000 OA
ATOM     15  O   UNL     1      -0.436  12.169  19.724  0.00  0.00    +0.000 OA
BRANCH  13  16
ATOM     16  C   UNL     1      -0.844  11.242  22.151  0.00  0.00    +0.000 C 
ATOM     17  C   UNL     1      -1.099  12.491  22.956  0.00  0.00    +0.000 C 
ATOM     18  C   UNL     1      -2.171  11.944  22.056  0.00  0.00    +0.000 C 
ENDBRANCH  13  16
ENDBRANCH  11  13
ENDBRANCH   1  10
BRANCH   5  19
ATOM     19  O   UNL     1       2.534   4.061  18.300  0.00  0.00    +0.000 OA
BRANCH  19  20
ATOM     20  C   UNL     1       3.661   3.313  18.766  0.00  0.00    +0.000 C 
BRANCH  20  21
ATOM     21  C   UNL     1       4.980   3.696  18.012  0.00  0.00    +0.000 C 
ATOM     22  C   UNL     1       5.757   4.669  18.872  0.00  0.00    +0.000 C 
ATOM     23  C   UNL     1       7.042   5.003  18.134  0.00  0.00    +0.000 C 
ATOM     24  C   UNL     1       6.643   6.036  17.131  0.00  0.00    +0.000 C 
ATOM     25  C   UNL     1       5.806   5.408  16.029  0.00  0.00    +0.000 C 
ATOM     26  C   UNL     1       4.870   4.219  16.527  0.00  0.00    +0.000 C 
ATOM     27  C   UNL     1       6.160   7.428  17.556  0.00  0.00    +0.000 C 
ATOM     28  C   UNL     1       7.576   7.250  17.132  0.00  0.00    +0.000 C 
ENDBRANCH  20  21
ENDBRANCH  19  20
ENDBRANCH   5  19
TORSDOF 6
ENDMDL
MODEL 5
REMARK VINA RESULT:      -7.6      4.956      7.090
REMARK  Name = 
REMARK  6 active torsions:
REMARK  status: ('A' for Active; 'I' for Inactive)
REMARK    1  A    between atoms: C_2  and  C_10
REMARK    2  A    between atoms: N_3  and  S_4
REMARK    3  A    between atoms: S_4  and  C_7
REMARK    4  A    between atoms: C_14  and  O_15
REMARK    5  A    between atoms: O_15  and  C_16
REMARK    6  A    between atoms: C_16  and  C_17
REMARK                            x       y       z     vdW  Elec       q    Type
REMARK                         _______ _______ _______ _____ _____    ______ ____
ROOT
ATOM      1  C   UNL     1       1.761   7.982  19.599  0.00  0.00    +0.000 A 
ATOM      2  C   UNL     1       1.652   6.836  20.412  0.00  0.00    +0.000 A 
ATOM      3  C   UNL     1       2.216   5.618  19.991  0.00  0.00    +0.000 A 
ATOM      4 CL   UNL     1       2.045   4.244  21.034  0.00  0.00    +0.000 Cl
ATOM      5  C   UNL     1       2.914   5.513  18.773  0.00  0.00    +0.000 A 
ATOM      6  C   UNL     1       3.025   6.656  17.987  0.00  0.00    +0.000 A 
ATOM      7  C   UNL     1       2.458   7.876  18.388  0.00  0.00    +0.000 A 
ATOM      8  F   UNL     1       2.585   8.932  17.602  0.00  0.00    +0.000 F 
ENDROOT
BRANCH   1  10
ATOM      9  O   UNL     1       1.366   9.682  21.183  0.00  0.00    +0.000 OA
ATOM     10  C   UNL     1       1.137   9.252  20.064  0.00  0.00    +0.000 C 
ATOM     11  N   UNL     1       0.332   9.939  19.139  0.00  0.00    +0.000 N 
ATOM     12  H   UNL     1       0.009   9.488  18.283  0.00  0.00    +0.000 HD
BRANCH  11  13
ATOM     13  S   UNL     1      -0.442  11.377  19.431  0.00  0.00    +0.000 S 
ATOM     14  O   UNL     1      -1.215  11.160  20.638  0.00  0.00    +0.000 OA
ATOM     15  O   UNL     1       0.566  12.422  19.393  0.00  0.00    +0.000 OA
BRANCH  13  16
ATOM     16  C   UNL     1      -1.590  11.707  18.070  0.00  0.00    +0.000 C 
ATOM     17  C   UNL     1      -2.443  10.521  17.698  0.00  0.00    +0.000 C 
ATOM     18  C   UNL     1      -3.056  11.696  18.407  0.00  0.00    +0.000 C 
ENDBRANCH  13  16
ENDBRANCH  11  13
ENDBRANCH   1  10
BRANCH   5  19
ATOM     19  O   UNL     1       3.408   4.277  18.450  0.00  0.00    +0.000 OA
BRANCH  19  20
ATOM     20  C   UNL     1       4.531   3.795  19.195  0.00  0.00    +0.000 C 
BRANCH  20  21
ATOM     21  C   UNL     1       5.894   4.273  18.589  0.00  0.00    +0.000 C 
ATOM     22  C   UNL     1       6.356   5.493  19.356  0.00  0.00    +0.000 C 
ATOM     23  C   UNL     1       7.691   5.921  18.771  0.00  0.00    +0.000 C 
ATOM     24  C   UNL     1       7.333   6.693  17.543  0.00  0.00    +0.000 C 
ATOM     25  C   UNL     1       6.806   5.759  16.466  0.00  0.00    +0.000 C 
ATOM     26  C   UNL     1       5.977   4.522  17.032  0.00  0.00    +0.000 C 
ATOM     27  C   UNL     1       6.586   8.030  17.620  0.00  0.00    +0.000 C 
ATOM     28  C   UNL     1       8.065   8.034  17.455  0.00  0.00    +0.000 C 
ENDBRANCH  20  21
ENDBRANCH  19  20
ENDBRANCH   5  19
TORSDOF 6
ENDMDL
MODEL 6
REMARK VINA RESULT:      -7.6      6.354      8.446
REMARK  Name = 
REMARK  6 active torsions:
REMARK  status: ('A' for Active; 'I' for Inactive)
REMARK    1  A    between atoms: C_2  and  C_10
REMARK    2  A    between atoms: N_3  and  S_4
REMARK    3  A    between atoms: S_4  and  C_7
REMARK    4  A    between atoms: C_14  and  O_15
REMARK    5  A    between atoms: O_15  and  C_16
REMARK    6  A    between atoms: C_16  and  C_17
REMARK                            x       y       z     vdW  Elec       q    Type
REMARK                         _______ _______ _______ _____ _____    ______ ____
ROOT
ATOM      1  C   UNL     1       2.260   7.323  19.339  0.00  0.00    +0.000 A 
ATOM      2  C   UNL     1       1.629   7.649  20.557  0.00  0.00    +0.000 A 
ATOM      3  C   UNL     1       1.009   8.902  20.714  0.00  0.00    +0.000 A 
ATOM      4 CL   UNL     1       0.255   9.244  22.237  0.00  0.00    +0.000 Cl
ATOM      5  C   UNL     1       0.981   9.845  19.670  0.00  0.00    +0.000 A 
ATOM      6  C   UNL     1       1.596   9.505  18.469  0.00  0.00    +0.000 A 
ATOM      7  C   UNL     1       2.229   8.263  18.300  0.00  0.00    +0.000 A 
ATOM      8  F   UNL     1       2.805   7.988  17.141  0.00  0.00    +0.000 F 
ENDROOT
BRANCH   1  10
ATOM      9  O   UNL     1       4.045   5.817  19.660  0.00  0.00    +0.000 OA
ATOM     10  C   UNL     1       2.924   5.996  19.209  0.00  0.00    +0.000 C 
ATOM     11  N   UNL     1       2.180   4.971  18.601  0.00  0.00    +0.000 N 
ATOM     12  H   UNL     1       1.330   5.175  18.077  0.00  0.00    +0.000 HD
BRANCH  11  13
ATOM     13  S   UNL     1       2.710   3.415  18.372  0.00  0.00    +0.000 S 
ATOM     14  O   UNL     1       2.066   2.964  17.154  0.00  0.00    +0.000 OA
ATOM     15  O   UNL     1       4.160   3.437  18.461  0.00  0.00    +0.000 OA
BRANCH  13  16
ATOM     16  C   UNL     1       2.117   2.391  19.743  0.00  0.00    +0.000 C 
ATOM     17  C   UNL     1       2.581   2.866  21.097  0.00  0.00    +0.000 C 
ATOM     18  C   UNL     1       1.143   3.034  20.693  0.00  0.00    +0.000 C 
ENDBRANCH  13  16
ENDBRANCH  11  13
ENDBRANCH   1  10
BRANCH   5  19
ATOM     19  O   UNL     1       0.367  11.041  19.935  0.00  0.00    +0.000 OA
BRANCH  19  20
ATOM     20  C   UNL     1      -1.001  11.186  19.543  0.00  0.00    +0.000 C 
BRANCH  20  21
ATOM     21  C   UNL     1      -1.679  12.433  20.207  0.00  0.00    +0.000 C 
ATOM     22  C   UNL     1      -1.189  12.540  21.634  0.00  0.00    +0.000 C 
ATOM     23  C   UNL     1      -1.836  13.770  22.248  0.00  0.00    +0.000 C 
ATOM     24  C   UNL     1      -3.207  13.320  22.635  0.00  0.00    +0.000 C 
ATOM     25  C   UNL     1      -4.062  13.103  21.398  0.00  0.00    +0.000 C 
ATOM     26  C   UNL     1      -3.251  12.557  20.140  0.00  0.00    +0.000 C 
ATOM     27  C   UNL     1      -3.432  12.273  23.732  0.00  0.00    +0.000 C 
ATOM     28  C   UNL     1      -3.574  13.717  24.067  0.00  0.00    +0.000 C 
ENDBRANCH  20  21
ENDBRANCH  19  20
ENDBRANCH   5  19
TORSDOF 6
ENDMDL
MODEL 7
REMARK VINA RESULT:      -7.6      6.074      9.178
REMARK  Name = 
REMARK  6 active torsions:
REMARK  status: ('A' for Active; 'I' for Inactive)
REMARK    1  A    between atoms: C_2  and  C_10
REMARK    2  A    between atoms: N_3  and  S_4
REMARK    3  A    between atoms: S_4  and  C_7
REMARK    4  A    between atoms: C_14  and  O_15
REMARK    5  A    between atoms: O_15  and  C_16
REMARK    6  A    between atoms: C_16  and  C_17
REMARK                            x       y       z     vdW  Elec       q    Type
REMARK                         _______ _______ _______ _____ _____    ______ ____
ROOT
ATOM      1  C   UNL     1       2.545   7.243  18.863  0.00  0.00    +0.000 A 
ATOM      2  C   UNL     1       1.854   7.589  20.042  0.00  0.00    +0.000 A 
ATOM      3  C   UNL     1       1.236   8.847  20.152  0.00  0.00    +0.000 A 
ATOM      4 CL   UNL     1       0.405   9.213  21.629  0.00  0.00    +0.000 Cl
ATOM      5  C   UNL     1       1.270   9.778  19.097  0.00  0.00    +0.000 A 
ATOM      6  C   UNL     1       1.945   9.418  17.934  0.00  0.00    +0.000 A 
ATOM      7  C   UNL     1       2.577   8.170  17.813  0.00  0.00    +0.000 A 
ATOM      8  F   UNL     1       3.211   7.878  16.690  0.00  0.00    +0.000 F 
ENDROOT
BRANCH   1  10
ATOM      9  O   UNL     1       2.559   4.887  18.946  0.00  0.00    +0.000 OA
ATOM     10  C   UNL     1       3.206   5.910  18.785  0.00  0.00    +0.000 C 
ATOM     11  N   UNL     1       4.574   5.898  18.466  0.00  0.00    +0.000 N 
ATOM     12  H   UNL     1       5.134   6.749  18.510  0.00  0.00    +0.000 HD
BRANCH  11  13
ATOM     13  S   UNL     1       5.504   4.533  18.305  0.00  0.00    +0.000 S 
ATOM     14  O   UNL     1       5.408   3.849  19.579  0.00  0.00    +0.000 OA
ATOM     15  O   UNL     1       5.077   3.864  17.088  0.00  0.00    +0.000 OA
BRANCH  13  16
ATOM     16  C   UNL     1       7.227   5.030  18.053  0.00  0.00    +0.000 C 
ATOM     17  C   UNL     1       7.423   6.524  17.990  0.00  0.00    +0.000 C 
ATOM     18  C   UNL     1       7.894   5.753  19.191  0.00  0.00    +0.000 C 
ENDBRANCH  13  16
ENDBRANCH  11  13
ENDBRANCH   1  10
BRANCH   5  19
ATOM     19  O   UNL     1       0.652  10.981  19.314  0.00  0.00    +0.000 OA
BRANCH  19  20
ATOM     20  C   UNL     1      -0.371  11.378  18.396  0.00  0.00    +0.000 C 
BRANCH  20  21
ATOM     21  C   UNL     1      -1.806  11.026  18.919  0.00  0.00    +0.000 C 
ATOM     22  C   UNL     1      -2.600  10.435  17.774  0.00  0.00    +0.000 C 
ATOM     23  C   UNL     1      -3.975  10.076  18.310  0.00  0.00    +0.000 C 
ATOM     24  C   UNL     1      -4.727  11.367  18.311  0.00  0.00    +0.000 C 
ATOM     25  C   UNL     1      -4.198  12.286  19.399  0.00  0.00    +0.000 C 
ATOM     26  C   UNL     1      -2.633  12.150  19.656  0.00  0.00    +0.000 C 
ATOM     27  C   UNL     1      -5.083  12.093  17.008  0.00  0.00    +0.000 C 
ATOM     28  C   UNL     1      -6.111  11.243  17.669  0.00  0.00    +0.000 C 
ENDBRANCH  20  21
ENDBRANCH  19  20
ENDBRANCH   5  19
TORSDOF 6
ENDMDL
MODEL 8
REMARK VINA RESULT:      -7.5      4.934      7.343
REMARK  Name = 
REMARK  6 active torsions:
REMARK  status: ('A' for Active; 'I' for Inactive)
REMARK    1  A    between atoms: C_2  and  C_10
REMARK    2  A    between atoms: N_3  and  S_4
REMARK    3  A    between atoms: S_4  and  C_7
REMARK    4  A    between atoms: C_14  and  O_15
REMARK    5  A    between atoms: O_15  and  C_16
REMARK    6  A    between atoms: C_16  and  C_17
REMARK                            x       y       z     vdW  Elec       q    Type
REMARK                         _______ _______ _______ _____ _____    ______ ____
ROOT
ATOM      1  C   UNL     1       1.670   7.687  20.207  0.00  0.00    +0.000 A 
ATOM      2  C   UNL     1       1.484   6.446  20.848  0.00  0.00    +0.000 A 
ATOM      3  C   UNL     1       1.964   5.266  20.249  0.00  0.00    +0.000 A 
ATOM      4 CL   UNL     1       1.702   3.771  21.086  0.00  0.00    +0.000 Cl
ATOM      5  C   UNL     1       2.651   5.292  19.021  0.00  0.00    +0.000 A 
ATOM      6  C   UNL     1       2.838   6.526  18.405  0.00  0.00    +0.000 A 
ATOM      7  C   UNL     1       2.355   7.710  18.984  0.00  0.00    +0.000 A 
ATOM      8  F   UNL     1       2.553   8.859  18.357  0.00  0.00    +0.000 F 
ENDROOT
BRANCH   1  10
ATOM      9  O   UNL     1       1.517   9.247  21.968  0.00  0.00    +0.000 OA
ATOM     10  C   UNL     1       1.134   8.916  20.856  0.00  0.00    +0.000 C 
ATOM     11  N   UNL     1       0.225   9.684  20.109  0.00  0.00    +0.000 N 
ATOM     12  H   UNL     1      -0.216   9.310  19.269  0.00  0.00    +0.000 HD
BRANCH  11  13
ATOM     13  S   UNL     1      -0.479  11.096  20.623  0.00  0.00    +0.000 S 
ATOM     14  O   UNL     1      -1.433  11.448  19.590  0.00  0.00    +0.000 OA
ATOM     15  O   UNL     1      -0.931  10.879  21.986  0.00  0.00    +0.000 OA
BRANCH  13  16
ATOM     16  C   UNL     1       0.789  12.387  20.690  0.00  0.00    +0.000 C 
ATOM     17  C   UNL     1       1.636  12.468  19.445  0.00  0.00    +0.000 C 
ATOM     18  C   UNL     1       0.627  13.543  19.741  0.00  0.00    +0.000 C 
ENDBRANCH  13  16
ENDBRANCH  11  13
ENDBRANCH   1  10
BRANCH   5  19
ATOM     19  O   UNL     1       3.060   4.085  18.517  0.00  0.00    +0.000 OA
BRANCH  19  20
ATOM     20  C   UNL     1       4.231   3.491  19.085  0.00  0.00    +0.000 C 
BRANCH  20  21
ATOM     21  C   UNL     1       5.542   3.965  18.371  0.00  0.00    +0.000 C 
ATOM     22  C   UNL     1       6.131   5.110  19.166  0.00  0.00    +0.000 C 
ATOM     23  C   UNL     1       7.415   5.534  18.472  0.00  0.00    +0.000 C 
ATOM     24  C   UNL     1       6.963   6.403  17.343  0.00  0.00    +0.000 C 
ATOM     25  C   UNL     1       6.289   5.567  16.269  0.00  0.00    +0.000 C 
ATOM     26  C   UNL     1       5.474   4.321  16.835  0.00  0.00    +0.000 C 
ATOM     27  C   UNL     1       6.284   7.755  17.589  0.00  0.00    +0.000 C 
ATOM     28  C   UNL     1       7.737   7.721  17.269  0.00  0.00    +0.000 C 
ENDBRANCH  20  21
ENDBRANCH  19  20
ENDBRANCH   5  19
TORSDOF 6
ENDMDL
MODEL 9
REMARK VINA RESULT:      -7.5      5.391      6.708
REMARK  Name = 
REMARK  6 active torsions:
REMARK  status: ('A' for Active; 'I' for Inactive)
REMARK    1  A    between atoms: C_2  and  C_10
REMARK    2  A    between atoms: N_3  and  S_4
REMARK    3  A    between atoms: S_4  and  C_7
REMARK    4  A    between atoms: C_14  and  O_15
REMARK    5  A    between atoms: O_15  and  C_16
REMARK    6  A    between atoms: C_16  and  C_17
REMARK                            x       y       z     vdW  Elec       q    Type
REMARK                         _______ _______ _______ _____ _____    ______ ____
ROOT
ATOM      1  C   UNL     1       2.476   7.148  19.063  0.00  0.00    +0.000 A 
ATOM      2  C   UNL     1       1.905   7.336  20.338  0.00  0.00    +0.000 A 
ATOM      3  C   UNL     1       1.263   8.548  20.650  0.00  0.00    +0.000 A 
ATOM      4 CL   UNL     1       0.584   8.718  22.236  0.00  0.00    +0.000 Cl
ATOM      5  C   UNL     1       1.153   9.586  19.706  0.00  0.00    +0.000 A 
ATOM      6  C   UNL     1       1.710   9.382  18.447  0.00  0.00    +0.000 A 
ATOM      7  C   UNL     1       2.365   8.183  18.125  0.00  0.00    +0.000 A 
ATOM      8  F   UNL     1       2.884   8.039  16.916  0.00  0.00    +0.000 F 
ENDROOT
BRANCH   1  10
ATOM      9  O   UNL     1       2.533   4.820  18.700  0.00  0.00    +0.000 OA
ATOM     10  C   UNL     1       3.166   5.861  18.770  0.00  0.00    +0.000 C 
ATOM     11  N   UNL     1       4.549   5.924  18.528  0.00  0.00    +0.000 N 
ATOM     12  H   UNL     1       5.089   6.757  18.761  0.00  0.00    +0.000 HD
BRANCH  11  13
ATOM     13  S   UNL     1       5.513   4.624  18.162  0.00  0.00    +0.000 S 
ATOM     14  O   UNL     1       5.505   3.791  19.349  0.00  0.00    +0.000 OA
ATOM     15  O   UNL     1       5.046   4.086  16.895  0.00  0.00    +0.000 OA
BRANCH  13  16
ATOM     16  C   UNL     1       7.204   5.212  17.890  0.00  0.00    +0.000 C 
ATOM     17  C   UNL     1       7.307   6.708  17.739  0.00  0.00    +0.000 C 
ATOM     18  C   UNL     1       7.814   6.042  18.987  0.00  0.00    +0.000 C 
ENDBRANCH  13  16
ENDBRANCH  11  13
ENDBRANCH   1  10
BRANCH   5  19
ATOM     19  O   UNL     1       0.524  10.731  20.118  0.00  0.00    +0.000 OA
BRANCH  19  20
ATOM     20  C   UNL     1       0.309  11.758  19.145  0.00  0.00    +0.000 C 
BRANCH  20  21
ATOM     21  C   UNL     1       0.819  13.156  19.635  0.00  0.00    +0.000 C 
ATOM     22  C   UNL     1       0.731  14.128  18.479  0.00  0.00    +0.000 C 
ATOM     23  C   UNL     1       1.203  15.481  18.985  0.00  0.00    +0.000 C 
ATOM     24  C   UNL     1       2.694  15.398  18.946  0.00  0.00    +0.000 C 
ATOM     25  C   UNL     1       3.200  14.465  20.033  0.00  0.00    +0.000 C 
ATOM     26  C   UNL     1       2.232  13.237  20.333  0.00  0.00    +0.000 C 
ATOM     27  C   UNL     1       3.461  15.277  17.624  0.00  0.00    +0.000 C 
ATOM     28  C   UNL     1       3.335  16.612  18.270  0.00  0.00    +0.000 C 
ENDBRANCH  20  21
ENDBRANCH  19  20
ENDBRANCH   5  19
TORSDOF 6
ENDMDL
