MODEL 1
REMARK VINA RESULT:      -6.8      0.000      0.000
REMARK  Name = 
REMARK  9 active torsions:
REMARK  status: ('A' for Active; 'I' for Inactive)
REMARK    1  A    between atoms: C_1  and  C_2
REMARK    2  A    between atoms: C_2  and  O_3
REMARK    3  A    between atoms: O_3  and  C_4
REMARK    4  A    between atoms: C_4  and  C_6
REMARK    5  A    between atoms: C_9  and  C_11
REMARK    6  A    between atoms: C_14  and  O_15
REMARK    7  A    between atoms: O_15  and  C_16
REMARK    8  A    between atoms: C_20  and  C_21
REMARK    9  A    between atoms: C_20  and  C_22
REMARK                            x       y       z     vdW  Elec       q    Type
REMARK                         _______ _______ _______ _____ _____    ______ ____
ROOT
ATOM      1  C   UNL     1      -1.935  12.373  21.706  0.00  0.00    +0.000 C 
ATOM      2  C   UNL     1      -2.647  12.949  22.693  0.00  0.00    +0.000 C 
ATOM      3  N   UNL     1      -3.946  13.474  22.734  0.00  0.00    +0.000 N 
ATOM      4  C   UNL     1      -4.178  14.645  23.458  0.00  0.00    +0.000 C 
ATOM      5  O   UNL     1      -5.286  15.170  23.543  0.00  0.00    +0.000 OA
ATOM      6  C   UNL     1      -4.977  12.804  21.955  0.00  0.00    +0.000 C 
ATOM      7  C   UNL     1      -4.877  13.025  20.465  0.00  0.00    +0.000 C 
ATOM      8  C   UNL     1      -6.129  12.457  19.873  0.00  0.00    +0.000 C 
ATOM      9  C   UNL     1      -4.770  14.501  20.189  0.00  0.00    +0.000 C 
ATOM     10  C   UNL     1      -3.749  12.321  19.833  0.00  0.00    +0.000 A 
ATOM     11  C   UNL     1      -2.510  12.095  20.445  0.00  0.00    +0.000 A 
ATOM     12  N   UNL     1      -1.707  11.439  19.569  0.00  0.00    +0.000 N 
ATOM     13  C   UNL     1      -2.342  11.214  18.401  0.00  0.00    +0.000 A 
ATOM     14  C   UNL     1      -1.818  10.606  17.373  0.00  0.00    +0.000 A 
ATOM     15  C   UNL     1      -2.724  10.552  16.391  0.00  0.00    +0.000 A 
ATOM     16  C   UNL     1      -3.709  10.489  15.309  0.00  0.00    +0.000 A 
ATOM     17  C   UNL     1      -4.461  11.415  16.901  0.00  0.00    +0.000 A 
ATOM     18  C   UNL     1      -3.612  11.714  18.450  0.00  0.00    +0.000 A 
ATOM     19  H   UNL     1      -0.757  11.140  19.673  0.00  0.00    +0.000 HD
ENDROOT
BRANCH   4  20
ATOM     20  C   UNL     1      -3.009  15.269  24.190  0.00  0.00    +0.000 A 
ATOM     21  C   UNL     1      -2.153  16.183  23.591  0.00  0.00    +0.000 A 
ATOM     22  C   UNL     1      -0.920  16.520  24.160  0.00  0.00    +0.000 A 
ATOM     23  C   UNL     1      -0.658  16.198  25.471  0.00  0.00    +0.000 A 
ATOM     24  C   UNL     1      -1.656  15.536  26.155  0.00  0.00    +0.000 A 
ATOM     25  C   UNL     1      -2.747  14.955  25.503  0.00  0.00    +0.000 A 
BRANCH  23  26
ATOM     26  O   UNL     1       0.550  16.555  25.980  0.00  0.00    +0.000 OA
ATOM     27  C   UNL     1       0.556  17.084  27.307  0.00  0.00    +0.000 C 
ENDBRANCH  23  26
ENDBRANCH   4  20
BRANCH   1  28
ATOM     28  C   UNL     1      -0.503  12.089  21.981  0.00  0.00    +0.000 C 
ATOM     29  O   UNL     1       0.373  12.589  21.295  0.00  0.00    +0.000 OA
BRANCH  28  30
ATOM     30  O   UNL     1      -0.296  11.296  23.073  0.00  0.00    +0.000 OA
BRANCH  30  32
ATOM     31  C   UNL     1       0.181   9.222  21.872  0.00  0.00    +0.000 C 
ATOM     32  C   UNL     1      -0.661   9.895  22.935  0.00  0.00    +0.000 C 
ENDBRANCH  30  32
ENDBRANCH  28  30
ENDBRANCH   1  28
TORSDOF 5
ENDMDL
MODEL 2
REMARK VINA RESULT:      -6.4      0.822      1.315
REMARK  Name = 
REMARK  9 active torsions:
REMARK  status: ('A' for Active; 'I' for Inactive)
REMARK    1  A    between atoms: C_1  and  C_2
REMARK    2  A    between atoms: C_2  and  O_3
REMARK    3  A    between atoms: O_3  and  C_4
REMARK    4  A    between atoms: C_4  and  C_6
REMARK    5  A    between atoms: C_9  and  C_11
REMARK    6  A    between atoms: C_14  and  O_15
REMARK    7  A    between atoms: O_15  and  C_16
REMARK    8  A    between atoms: C_20  and  C_21
REMARK    9  A    between atoms: C_20  and  C_22
REMARK                            x       y       z     vdW  Elec       q    Type
REMARK                         _______ _______ _______ _____ _____    ______ ____
ROOT
ATOM      1  C   UNL     1      -1.835  12.441  21.645  0.00  0.00    +0.000 C 
ATOM      2  C   UNL     1      -2.530  12.986  22.660  0.00  0.00    +0.000 C 
ATOM      3  N   UNL     1      -3.846  13.459  22.753  0.00  0.00    +0.000 N 
ATOM      4  C   UNL     1      -4.096  14.619  23.490  0.00  0.00    +0.000 C 
ATOM      5  O   UNL     1      -5.220  15.100  23.620  0.00  0.00    +0.000 OA
ATOM      6  C   UNL     1      -4.879  12.751  22.012  0.00  0.00    +0.000 C 
ATOM      7  C   UNL     1      -4.846  12.979  20.520  0.00  0.00    +0.000 C 
ATOM      8  C   UNL     1      -6.096  12.363  19.974  0.00  0.00    +0.000 C 
ATOM      9  C   UNL     1      -4.807  14.459  20.245  0.00  0.00    +0.000 C 
ATOM     10  C   UNL     1      -3.716  12.321  19.843  0.00  0.00    +0.000 A 
ATOM     11  C   UNL     1      -2.446  12.143  20.406  0.00  0.00    +0.000 A 
ATOM     12  N   UNL     1      -1.653  11.521  19.497  0.00  0.00    +0.000 N 
ATOM     13  C   UNL     1      -2.322  11.274  18.353  0.00  0.00    +0.000 A 
ATOM     14  C   UNL     1      -1.815  10.690  17.304  0.00  0.00    +0.000 A 
ATOM     15  C   UNL     1      -2.756  10.602  16.357  0.00  0.00    +0.000 A 
ATOM     16  C   UNL     1      -3.778  10.502  15.313  0.00  0.00    +0.000 A 
ATOM     17  C   UNL     1      -4.504  11.394  16.936  0.00  0.00    +0.000 A 
ATOM     18  C   UNL     1      -3.609  11.724  18.453  0.00  0.00    +0.000 A 
ATOM     19  H   UNL     1      -0.688  11.260  19.563  0.00  0.00    +0.000 HD
ENDROOT
BRANCH   4  20
ATOM     20  C   UNL     1      -2.926  15.286  24.179  0.00  0.00    +0.000 A 
ATOM     21  C   UNL     1      -2.113  16.214  23.542  0.00  0.00    +0.000 A 
ATOM     22  C   UNL     1      -0.875  16.594  24.070  0.00  0.00    +0.000 A 
ATOM     23  C   UNL     1      -0.567  16.301  25.379  0.00  0.00    +0.000 A 
ATOM     24  C   UNL     1      -1.526  15.622  26.100  0.00  0.00    +0.000 A 
ATOM     25  C   UNL     1      -2.618  15.001  25.489  0.00  0.00    +0.000 A 
BRANCH  23  26
ATOM     26  O   UNL     1       0.645  16.699  25.847  0.00  0.00    +0.000 OA
ATOM     27  C   UNL     1       0.782  16.799  27.266  0.00  0.00    +0.000 C 
ENDBRANCH  23  26
ENDBRANCH   4  20
BRANCH   1  28
ATOM     28  C   UNL     1      -0.384  12.213  21.864  0.00  0.00    +0.000 C 
ATOM     29  O   UNL     1       0.013  11.184  22.387  0.00  0.00    +0.000 OA
BRANCH  28  30
ATOM     30  O   UNL     1       0.413  13.210  21.378  0.00  0.00    +0.000 OA
BRANCH  30  32
ATOM     31  C   UNL     1       1.476  13.108  19.181  0.00  0.00    +0.000 C 
ATOM     32  C   UNL     1       1.604  12.794  20.655  0.00  0.00    +0.000 C 
ENDBRANCH  30  32
ENDBRANCH  28  30
ENDBRANCH   1  28
TORSDOF 5
ENDMDL
MODEL 3
REMARK VINA RESULT:      -6.2      3.910      5.293
REMARK  Name = 
REMARK  9 active torsions:
REMARK  status: ('A' for Active; 'I' for Inactive)
REMARK    1  A    between atoms: C_1  and  C_2
REMARK    2  A    between atoms: C_2  and  O_3
REMARK    3  A    between atoms: O_3  and  C_4
REMARK    4  A    between atoms: C_4  and  C_6
REMARK    5  A    between atoms: C_9  and  C_11
REMARK    6  A    between atoms: C_14  and  O_15
REMARK    7  A    between atoms: O_15  and  C_16
REMARK    8  A    between atoms: C_20  and  C_21
REMARK    9  A    between atoms: C_20  and  C_22
REMARK                            x       y       z     vdW  Elec       q    Type
REMARK                         _______ _______ _______ _____ _____    ______ ____
ROOT
ATOM      1  C   UNL     1       0.663  12.044  19.693  0.00  0.00    +0.000 C 
ATOM      2  C   UNL     1       1.233  12.761  20.678  0.00  0.00    +0.000 C 
ATOM      3  N   UNL     1       0.705  13.661  21.614  0.00  0.00    +0.000 N 
ATOM      4  C   UNL     1       1.436  14.808  21.934  0.00  0.00    +0.000 C 
ATOM      5  O   UNL     1       1.045  15.647  22.742  0.00  0.00    +0.000 OA
ATOM      6  C   UNL     1      -0.619  13.388  22.152  0.00  0.00    +0.000 C 
ATOM      7  C   UNL     1      -1.751  13.644  21.188  0.00  0.00    +0.000 C 
ATOM      8  C   UNL     1      -3.014  13.526  21.983  0.00  0.00    +0.000 C 
ATOM      9  C   UNL     1      -1.605  15.025  20.606  0.00  0.00    +0.000 C 
ATOM     10  C   UNL     1      -1.840  12.657  20.098  0.00  0.00    +0.000 A 
ATOM     11  C   UNL     1      -0.739  12.025  19.507  0.00  0.00    +0.000 A 
ATOM     12  N   UNL     1      -1.188  11.197  18.530  0.00  0.00    +0.000 N 
ATOM     13  C   UNL     1      -2.531  11.243  18.432  0.00  0.00    +0.000 A 
ATOM     14  C   UNL     1      -3.241  10.556  17.580  0.00  0.00    +0.000 A 
ATOM     15  C   UNL     1      -4.535  10.838  17.763  0.00  0.00    +0.000 A 
ATOM     16  C   UNL     1      -5.955  11.141  17.955  0.00  0.00    +0.000 A 
ATOM     17  C   UNL     1      -4.830  12.172  19.231  0.00  0.00    +0.000 A 
ATOM     18  C   UNL     1      -3.043  12.111  19.355  0.00  0.00    +0.000 A 
ATOM     19  H   UNL     1      -0.673  10.613  17.901  0.00  0.00    +0.000 HD
ENDROOT
BRANCH   4  20
ATOM     20  C   UNL     1       2.783  14.997  21.270  0.00  0.00    +0.000 A 
ATOM     21  C   UNL     1       2.924  15.578  20.017  0.00  0.00    +0.000 A 
ATOM     22  C   UNL     1       4.114  15.477  19.289  0.00  0.00    +0.000 A 
ATOM     23  C   UNL     1       5.271  15.074  19.915  0.00  0.00    +0.000 A 
ATOM     24  C   UNL     1       5.174  14.777  21.258  0.00  0.00    +0.000 A 
ATOM     25  C   UNL     1       3.942  14.601  21.895  0.00  0.00    +0.000 A 
BRANCH  23  26
ATOM     26  O   UNL     1       6.402  15.001  19.166  0.00  0.00    +0.000 OA
ATOM     27  C   UNL     1       6.242  14.620  17.798  0.00  0.00    +0.000 C 
ENDBRANCH  23  26
ENDBRANCH   4  20
BRANCH   1  28
ATOM     28  C   UNL     1       1.572  11.314  18.773  0.00  0.00    +0.000 C 
ATOM     29  O   UNL     1       2.403  11.916  18.112  0.00  0.00    +0.000 OA
BRANCH  28  30
ATOM     30  O   UNL     1       1.417   9.958  18.802  0.00  0.00    +0.000 OA
BRANCH  30  32
ATOM     31  C   UNL     1       2.491   7.857  18.166  0.00  0.00    +0.000 C 
ATOM     32  C   UNL     1       2.009   9.214  17.702  0.00  0.00    +0.000 C 
ENDBRANCH  30  32
ENDBRANCH  28  30
ENDBRANCH   1  28
TORSDOF 5
ENDMDL
MODEL 4
REMARK VINA RESULT:      -6.2      2.937      5.928
REMARK  Name = 
REMARK  9 active torsions:
REMARK  status: ('A' for Active; 'I' for Inactive)
REMARK    1  A    between atoms: C_1  and  C_2
REMARK    2  A    between atoms: C_2  and  O_3
REMARK    3  A    between atoms: O_3  and  C_4
REMARK    4  A    between atoms: C_4  and  C_6
REMARK    5  A    between atoms: C_9  and  C_11
REMARK    6  A    between atoms: C_14  and  O_15
REMARK    7  A    between atoms: O_15  and  C_16
REMARK    8  A    between atoms: C_20  and  C_21
REMARK    9  A    between atoms: C_20  and  C_22
REMARK                            x       y       z     vdW  Elec       q    Type
REMARK                         _______ _______ _______ _____ _____    ______ ____
ROOT
ATOM      1  C   UNL     1      -0.625  11.895  19.415  0.00  0.00    +0.000 C 
ATOM      2  C   UNL     1      -1.182  12.427  20.519  0.00  0.00    +0.000 C 
ATOM      3  N   UNL     1      -1.255  11.981  21.845  0.00  0.00    +0.000 N 
ATOM      4  C   UNL     1      -2.438  12.179  22.561  0.00  0.00    +0.000 C 
ATOM      5  O   UNL     1      -2.584  11.817  23.726  0.00  0.00    +0.000 OA
ATOM      6  C   UNL     1      -0.110  11.264  22.388  0.00  0.00    +0.000 C 
ATOM      7  C   UNL     1       0.051   9.856  21.867  0.00  0.00    +0.000 C 
ATOM      8  C   UNL     1       1.124   9.223  22.695  0.00  0.00    +0.000 C 
ATOM      9  C   UNL     1      -1.254   9.120  22.017  0.00  0.00    +0.000 C 
ATOM     10  C   UNL     1       0.498   9.788  20.465  0.00  0.00    +0.000 A 
ATOM     11  C   UNL     1       0.145  10.711  19.472  0.00  0.00    +0.000 A 
ATOM     12  N   UNL     1       0.717  10.329  18.303  0.00  0.00    +0.000 N 
ATOM     13  C   UNL     1       1.432   9.197  18.457  0.00  0.00    +0.000 A 
ATOM     14  C   UNL     1       2.090   8.594  17.505  0.00  0.00    +0.000 A 
ATOM     15  C   UNL     1       2.688   7.509  18.008  0.00  0.00    +0.000 A 
ATOM     16  C   UNL     1       3.347   6.318  18.549  0.00  0.00    +0.000 A 
ATOM     17  C   UNL     1       2.324   7.270  19.966  0.00  0.00    +0.000 A 
ATOM     18  C   UNL     1       1.371   8.773  19.754  0.00  0.00    +0.000 A 
ATOM     19  H   UNL     1       0.657  10.747  17.395  0.00  0.00    +0.000 HD
ENDROOT
BRANCH   4  20
ATOM     20  C   UNL     1      -3.573  12.902  21.867  0.00  0.00    +0.000 A 
ATOM     21  C   UNL     1      -4.428  12.268  20.974  0.00  0.00    +0.000 A 
ATOM     22  C   UNL     1      -5.267  12.990  20.120  0.00  0.00    +0.000 A 
ATOM     23  C   UNL     1      -5.497  14.326  20.351  0.00  0.00    +0.000 A 
ATOM     24  C   UNL     1      -4.858  14.883  21.438  0.00  0.00    +0.000 A 
ATOM     25  C   UNL     1      -3.811  14.236  22.099  0.00  0.00    +0.000 A 
BRANCH  23  26
ATOM     26  O   UNL     1      -6.327  14.981  19.498  0.00  0.00    +0.000 OA
ATOM     27  C   UNL     1      -6.928  14.201  18.463  0.00  0.00    +0.000 C 
ENDBRANCH  23  26
ENDBRANCH   4  20
BRANCH   1  28
ATOM     28  C   UNL     1      -0.897  12.576  18.124  0.00  0.00    +0.000 C 
ATOM     29  O   UNL     1      -0.474  13.701  17.912  0.00  0.00    +0.000 OA
BRANCH  28  30
ATOM     30  O   UNL     1      -1.586  11.810  17.228  0.00  0.00    +0.000 OA
BRANCH  30  32
ATOM     31  C   UNL     1      -3.117   9.944  17.606  0.00  0.00    +0.000 C 
ATOM     32  C   UNL     1      -2.945  11.447  17.596  0.00  0.00    +0.000 C 
ENDBRANCH  30  32
ENDBRANCH  28  30
ENDBRANCH   1  28
TORSDOF 5
ENDMDL
MODEL 5
REMARK VINA RESULT:      -6.1      0.686      1.056
REMARK  Name = 
REMARK  9 active torsions:
REMARK  status: ('A' for Active; 'I' for Inactive)
REMARK    1  A    between atoms: C_1  and  C_2
REMARK    2  A    between atoms: C_2  and  O_3
REMARK    3  A    between atoms: O_3  and  C_4
REMARK    4  A    between atoms: C_4  and  C_6
REMARK    5  A    between atoms: C_9  and  C_11
REMARK    6  A    between atoms: C_14  and  O_15
REMARK    7  A    between atoms: O_15  and  C_16
REMARK    8  A    between atoms: C_20  and  C_21
REMARK    9  A    between atoms: C_20  and  C_22
REMARK                            x       y       z     vdW  Elec       q    Type
REMARK                         _______ _______ _______ _____ _____    ______ ____
ROOT
ATOM      1  C   UNL     1      -2.058  12.724  21.759  0.00  0.00    +0.000 C 
ATOM      2  C   UNL     1      -2.788  13.249  22.761  0.00  0.00    +0.000 C 
ATOM      3  N   UNL     1      -4.126  13.658  22.838  0.00  0.00    +0.000 N 
ATOM      4  C   UNL     1      -4.438  14.815  23.556  0.00  0.00    +0.000 C 
ATOM      5  O   UNL     1      -5.585  15.242  23.670  0.00  0.00    +0.000 OA
ATOM      6  C   UNL     1      -5.117  12.891  22.099  0.00  0.00    +0.000 C 
ATOM      7  C   UNL     1      -5.083  13.099  20.604  0.00  0.00    +0.000 C 
ATOM      8  C   UNL     1      -6.297  12.416  20.057  0.00  0.00    +0.000 C 
ATOM      9  C   UNL     1      -5.113  14.576  20.309  0.00  0.00    +0.000 C 
ATOM     10  C   UNL     1      -3.916  12.488  19.945  0.00  0.00    +0.000 A 
ATOM     11  C   UNL     1      -2.644  12.380  20.520  0.00  0.00    +0.000 A 
ATOM     12  N   UNL     1      -1.814  11.785  19.626  0.00  0.00    +0.000 N 
ATOM     13  C   UNL     1      -2.461  11.490  18.481  0.00  0.00    +0.000 A 
ATOM     14  C   UNL     1      -1.918  10.917  17.444  0.00  0.00    +0.000 A 
ATOM     15  C   UNL     1      -2.844  10.770  16.491  0.00  0.00    +0.000 A 
ATOM     16  C   UNL     1      -3.852  10.607  15.441  0.00  0.00    +0.000 A 
ATOM     17  C   UNL     1      -4.635  11.484  17.046  0.00  0.00    +0.000 A 
ATOM     18  C   UNL     1      -3.768  11.878  18.564  0.00  0.00    +0.000 A 
ATOM     19  H   UNL     1      -0.838  11.572  19.703  0.00  0.00    +0.000 HD
ENDROOT
BRANCH   4  20
ATOM     20  C   UNL     1      -3.307  15.548  24.245  0.00  0.00    +0.000 A 
ATOM     21  C   UNL     1      -2.655  15.037  25.359  0.00  0.00    +0.000 A 
ATOM     22  C   UNL     1      -1.834  15.837  26.162  0.00  0.00    +0.000 A 
ATOM     23  C   UNL     1      -1.402  17.059  25.700  0.00  0.00    +0.000 A 
ATOM     24  C   UNL     1      -1.829  17.429  24.443  0.00  0.00    +0.000 A 
ATOM     25  C   UNL     1      -2.868  16.767  23.783  0.00  0.00    +0.000 A 
BRANCH  23  26
ATOM     26  O   UNL     1      -0.599  17.793  26.514  0.00  0.00    +0.000 OA
ATOM     27  C   UNL     1       0.397  17.077  27.247  0.00  0.00    +0.000 C 
ENDBRANCH  23  26
ENDBRANCH   4  20
BRANCH   1  28
ATOM     28  C   UNL     1      -0.599  12.571  21.992  0.00  0.00    +0.000 C 
ATOM     29  O   UNL     1       0.089  13.534  22.285  0.00  0.00    +0.000 OA
BRANCH  28  30
ATOM     30  O   UNL     1      -0.158  11.281  21.905  0.00  0.00    +0.000 OA
BRANCH  30  32
ATOM     31  C   UNL     1       0.409   9.252  23.142  0.00  0.00    +0.000 C 
ATOM     32  C   UNL     1      -0.586  10.377  22.959  0.00  0.00    +0.000 C 
ENDBRANCH  30  32
ENDBRANCH  28  30
ENDBRANCH   1  28
TORSDOF 5
ENDMDL
MODEL 6
REMARK VINA RESULT:      -6.1      2.329      7.830
REMARK  Name = 
REMARK  9 active torsions:
REMARK  status: ('A' for Active; 'I' for Inactive)
REMARK    1  A    between atoms: C_1  and  C_2
REMARK    2  A    between atoms: C_2  and  O_3
REMARK    3  A    between atoms: O_3  and  C_4
REMARK    4  A    between atoms: C_4  and  C_6
REMARK    5  A    between atoms: C_9  and  C_11
REMARK    6  A    between atoms: C_14  and  O_15
REMARK    7  A    between atoms: O_15  and  C_16
REMARK    8  A    between atoms: C_20  and  C_21
REMARK    9  A    between atoms: C_20  and  C_22
REMARK                            x       y       z     vdW  Elec       q    Type
REMARK                         _______ _______ _______ _____ _____    ______ ____
ROOT
ATOM      1  C   UNL     1      -4.029  12.974  21.785  0.00  0.00    +0.000 C 
ATOM      2  C   UNL     1      -2.914  12.278  21.497  0.00  0.00    +0.000 C 
ATOM      3  N   UNL     1      -1.560  12.516  21.766  0.00  0.00    +0.000 N 
ATOM      4  C   UNL     1      -0.612  12.207  20.788  0.00  0.00    +0.000 C 
ATOM      5  O   UNL     1       0.594  12.385  20.944  0.00  0.00    +0.000 OA
ATOM      6  C   UNL     1      -1.217  13.144  23.033  0.00  0.00    +0.000 C 
ATOM      7  C   UNL     1      -1.545  14.615  23.111  0.00  0.00    +0.000 C 
ATOM      8  C   UNL     1      -0.923  15.118  24.376  0.00  0.00    +0.000 C 
ATOM      9  C   UNL     1      -0.969  15.317  21.909  0.00  0.00    +0.000 C 
ATOM     10  C   UNL     1      -2.988  14.899  23.203  0.00  0.00    +0.000 A 
ATOM     11  C   UNL     1      -3.988  14.138  22.586  0.00  0.00    +0.000 A 
ATOM     12  N   UNL     1      -5.193  14.697  22.868  0.00  0.00    +0.000 N 
ATOM     13  C   UNL     1      -5.053  15.794  23.638  0.00  0.00    +0.000 A 
ATOM     14  C   UNL     1      -6.037  16.537  24.064  0.00  0.00    +0.000 A 
ATOM     15  C   UNL     1      -5.542  17.534  24.805  0.00  0.00    +0.000 A 
ATOM     16  C   UNL     1      -5.008  18.630  25.617  0.00  0.00    +0.000 A 
ATOM     17  C   UNL     1      -3.542  17.469  24.939  0.00  0.00    +0.000 A 
ATOM     18  C   UNL     1      -3.733  16.014  23.911  0.00  0.00    +0.000 A 
ATOM     19  H   UNL     1      -6.110  14.422  22.573  0.00  0.00    +0.000 HD
ENDROOT
BRANCH   4  20
ATOM     20  C   UNL     1      -1.104  11.596  19.494  0.00  0.00    +0.000 A 
ATOM     21  C   UNL     1      -2.003  12.243  18.656  0.00  0.00    +0.000 A 
ATOM     22  C   UNL     1      -2.677  11.564  17.635  0.00  0.00    +0.000 A 
ATOM     23  C   UNL     1      -2.244  10.322  17.233  0.00  0.00    +0.000 A 
ATOM     24  C   UNL     1      -1.146   9.809  17.890  0.00  0.00    +0.000 A 
ATOM     25  C   UNL     1      -0.669  10.357  19.084  0.00  0.00    +0.000 A 
BRANCH  23  26
ATOM     26  O   UNL     1      -2.928   9.708  16.232  0.00  0.00    +0.000 OA
ATOM     27  C   UNL     1      -2.902  10.345  14.953  0.00  0.00    +0.000 C 
ENDBRANCH  23  26
ENDBRANCH   4  20
BRANCH   1  28
ATOM     28  C   UNL     1      -5.300  12.498  21.181  0.00  0.00    +0.000 C 
ATOM     29  O   UNL     1      -6.180  12.020  21.879  0.00  0.00    +0.000 OA
BRANCH  28  30
ATOM     30  O   UNL     1      -5.386  12.706  19.834  0.00  0.00    +0.000 OA
BRANCH  30  32
ATOM     31  C   UNL     1      -7.416  12.867  18.484  0.00  0.00    +0.000 C 
ATOM     32  C   UNL     1      -6.441  13.598  19.382  0.00  0.00    +0.000 C 
ENDBRANCH  30  32
ENDBRANCH  28  30
ENDBRANCH   1  28
TORSDOF 5
ENDMDL
MODEL 7
REMARK VINA RESULT:      -6.0      2.014      2.614
REMARK  Name = 
REMARK  9 active torsions:
REMARK  status: ('A' for Active; 'I' for Inactive)
REMARK    1  A    between atoms: C_1  and  C_2
REMARK    2  A    between atoms: C_2  and  O_3
REMARK    3  A    between atoms: O_3  and  C_4
REMARK    4  A    between atoms: C_4  and  C_6
REMARK    5  A    between atoms: C_9  and  C_11
REMARK    6  A    between atoms: C_14  and  O_15
REMARK    7  A    between atoms: O_15  and  C_16
REMARK    8  A    between atoms: C_20  and  C_21
REMARK    9  A    between atoms: C_20  and  C_22
REMARK                            x       y       z     vdW  Elec       q    Type
REMARK                         _______ _______ _______ _____ _____    ______ ____
ROOT
ATOM      1  C   UNL     1      -3.546  13.142  20.959  0.00  0.00    +0.000 C 
ATOM      2  C   UNL     1      -4.608  13.565  21.669  0.00  0.00    +0.000 C 
ATOM      3  N   UNL     1      -5.976  13.622  21.373  0.00  0.00    +0.000 N 
ATOM      4  C   UNL     1      -6.714  14.729  21.800  0.00  0.00    +0.000 C 
ATOM      5  O   UNL     1      -7.916  14.857  21.581  0.00  0.00    +0.000 OA
ATOM      6  C   UNL     1      -6.546  12.552  20.569  0.00  0.00    +0.000 C 
ATOM      7  C   UNL     1      -6.173  12.602  19.107  0.00  0.00    +0.000 C 
ATOM      8  C   UNL     1      -7.020  11.576  18.422  0.00  0.00    +0.000 C 
ATOM      9  C   UNL     1      -6.455  13.981  18.571  0.00  0.00    +0.000 C 
ATOM     10  C   UNL     1      -4.770  12.245  18.838  0.00  0.00    +0.000 A 
ATOM     11  C   UNL     1      -3.699  12.529  19.694  0.00  0.00    +0.000 A 
ATOM     12  N   UNL     1      -2.555  12.075  19.122  0.00  0.00    +0.000 N 
ATOM     13  C   UNL     1      -2.801  11.504  17.926  0.00  0.00    +0.000 A 
ATOM     14  C   UNL     1      -1.894  10.983  17.148  0.00  0.00    +0.000 A 
ATOM     15  C   UNL     1      -2.486  10.503  16.049  0.00  0.00    +0.000 A 
ATOM     16  C   UNL     1      -3.125   9.975  14.841  0.00  0.00    +0.000 A 
ATOM     17  C   UNL     1      -4.471  10.788  16.060  0.00  0.00    +0.000 A 
ATOM     18  C   UNL     1      -4.138  11.550  17.647  0.00  0.00    +0.000 A 
ATOM     19  H   UNL     1      -1.611  12.130  19.451  0.00  0.00    +0.000 HD
ENDROOT
BRANCH   4  20
ATOM     20  C   UNL     1      -5.993  15.797  22.594  0.00  0.00    +0.000 A 
ATOM     21  C   UNL     1      -5.386  16.893  21.994  0.00  0.00    +0.000 A 
ATOM     22  C   UNL     1      -4.477  17.701  22.685  0.00  0.00    +0.000 A 
ATOM     23  C   UNL     1      -4.395  17.625  24.056  0.00  0.00    +0.000 A 
ATOM     24  C   UNL     1      -5.232  16.721  24.675  0.00  0.00    +0.000 A 
ATOM     25  C   UNL     1      -5.913  15.728  23.965  0.00  0.00    +0.000 A 
BRANCH  23  26
ATOM     26  O   UNL     1      -3.503  18.437  24.681  0.00  0.00    +0.000 OA
ATOM     27  C   UNL     1      -2.495  17.798  25.467  0.00  0.00    +0.000 C 
ENDBRANCH  23  26
ENDBRANCH   4  20
BRANCH   1  28
ATOM     28  C   UNL     1      -2.201  13.394  21.536  0.00  0.00    +0.000 C 
ATOM     29  O   UNL     1      -1.873  14.517  21.882  0.00  0.00    +0.000 OA
BRANCH  28  30
ATOM     30  O   UNL     1      -1.442  12.268  21.682  0.00  0.00    +0.000 OA
BRANCH  30  32
ATOM     31  C   UNL     1      -0.913  10.371  23.128  0.00  0.00    +0.000 C 
ATOM     32  C   UNL     1      -1.136  11.865  23.046  0.00  0.00    +0.000 C 
ENDBRANCH  30  32
ENDBRANCH  28  30
ENDBRANCH   1  28
TORSDOF 5
ENDMDL
MODEL 8
REMARK VINA RESULT:      -6.0      4.489      6.075
REMARK  Name = 
REMARK  9 active torsions:
REMARK  status: ('A' for Active; 'I' for Inactive)
REMARK    1  A    between atoms: C_1  and  C_2
REMARK    2  A    between atoms: C_2  and  O_3
REMARK    3  A    between atoms: O_3  and  C_4
REMARK    4  A    between atoms: C_4  and  C_6
REMARK    5  A    between atoms: C_9  and  C_11
REMARK    6  A    between atoms: C_14  and  O_15
REMARK    7  A    between atoms: O_15  and  C_16
REMARK    8  A    between atoms: C_20  and  C_21
REMARK    9  A    between atoms: C_20  and  C_22
REMARK                            x       y       z     vdW  Elec       q    Type
REMARK                         _______ _______ _______ _____ _____    ______ ____
ROOT
ATOM      1  C   UNL     1       1.113  11.948  19.112  0.00  0.00    +0.000 C 
ATOM      2  C   UNL     1       1.775  12.827  19.886  0.00  0.00    +0.000 C 
ATOM      3  N   UNL     1       1.342  13.905  20.669  0.00  0.00    +0.000 N 
ATOM      4  C   UNL     1       2.108  15.073  20.695  0.00  0.00    +0.000 C 
ATOM      5  O   UNL     1       1.798  16.062  21.354  0.00  0.00    +0.000 OA
ATOM      6  C   UNL     1       0.068  13.777  21.362  0.00  0.00    +0.000 C 
ATOM      7  C   UNL     1      -1.143  13.871  20.466  0.00  0.00    +0.000 C 
ATOM      8  C   UNL     1      -2.331  13.942  21.373  0.00  0.00    +0.000 C 
ATOM      9  C   UNL     1      -1.037  15.109  19.615  0.00  0.00    +0.000 C 
ATOM     10  C   UNL     1      -1.337  12.693  19.602  0.00  0.00    +0.000 A 
ATOM     11  C   UNL     1      -0.299  11.930  19.054  0.00  0.00    +0.000 A 
ATOM     12  N   UNL     1      -0.840  10.941  18.299  0.00  0.00    +0.000 N 
ATOM     13  C   UNL     1      -2.187  11.002  18.309  0.00  0.00    +0.000 A 
ATOM     14  C   UNL     1      -2.976  10.182  17.671  0.00  0.00    +0.000 A 
ATOM     15  C   UNL     1      -4.246  10.528  17.905  0.00  0.00    +0.000 A 
ATOM     16  C   UNL     1      -5.641  10.900  18.155  0.00  0.00    +0.000 A 
ATOM     17  C   UNL     1      -4.397  12.129  19.104  0.00  0.00    +0.000 A 
ATOM     18  C   UNL     1      -2.607  12.045  19.084  0.00  0.00    +0.000 A 
ATOM     19  H   UNL     1      -0.389  10.232  17.755  0.00  0.00    +0.000 HD
ENDROOT
BRANCH   4  20
ATOM     20  C   UNL     1       3.393  15.094  19.895  0.00  0.00    +0.000 A 
ATOM     21  C   UNL     1       3.413  15.267  18.517  0.00  0.00    +0.000 A 
ATOM     22  C   UNL     1       4.553  14.988  17.757  0.00  0.00    +0.000 A 
ATOM     23  C   UNL     1       5.772  14.834  18.377  0.00  0.00    +0.000 A 
ATOM     24  C   UNL     1       5.785  14.959  19.750  0.00  0.00    +0.000 A 
ATOM     25  C   UNL     1       4.614  14.947  20.511  0.00  0.00    +0.000 A 
BRANCH  23  26
ATOM     26  O   UNL     1       6.850  14.572  17.593  0.00  0.00    +0.000 OA
ATOM     27  C   UNL     1       8.029  14.112  18.257  0.00  0.00    +0.000 C 
ENDBRANCH  23  26
ENDBRANCH   4  20
BRANCH   1  28
ATOM     28  C   UNL     1       1.931  11.030  18.278  0.00  0.00    +0.000 C 
ATOM     29  O   UNL     1       2.761  11.469  17.500  0.00  0.00    +0.000 OA
BRANCH  28  30
ATOM     30  O   UNL     1       1.698   9.706  18.521  0.00  0.00    +0.000 OA
BRANCH  30  32
ATOM     31  C   UNL     1       2.511   7.410  18.336  0.00  0.00    +0.000 C 
ATOM     32  C   UNL     1       2.388   8.758  17.661  0.00  0.00    +0.000 C 
ENDBRANCH  30  32
ENDBRANCH  28  30
ENDBRANCH   1  28
TORSDOF 5
ENDMDL
MODEL 9
REMARK VINA RESULT:      -6.0      0.800      1.726
REMARK  Name = 
REMARK  9 active torsions:
REMARK  status: ('A' for Active; 'I' for Inactive)
REMARK    1  A    between atoms: C_1  and  C_2
REMARK    2  A    between atoms: C_2  and  O_3
REMARK    3  A    between atoms: O_3  and  C_4
REMARK    4  A    between atoms: C_4  and  C_6
REMARK    5  A    between atoms: C_9  and  C_11
REMARK    6  A    between atoms: C_14  and  O_15
REMARK    7  A    between atoms: O_15  and  C_16
REMARK    8  A    between atoms: C_20  and  C_21
REMARK    9  A    between atoms: C_20  and  C_22
REMARK                            x       y       z     vdW  Elec       q    Type
REMARK                         _______ _______ _______ _____ _____    ______ ____
ROOT
ATOM      1  C   UNL     1      -1.818  12.349  21.612  0.00  0.00    +0.000 C 
ATOM      2  C   UNL     1      -2.503  12.931  22.615  0.00  0.00    +0.000 C 
ATOM      3  N   UNL     1      -3.798  13.460  22.687  0.00  0.00    +0.000 N 
ATOM      4  C   UNL     1      -4.008  14.635  23.412  0.00  0.00    +0.000 C 
ATOM      5  O   UNL     1      -5.111  15.164  23.525  0.00  0.00    +0.000 OA
ATOM      6  C   UNL     1      -4.851  12.792  21.938  0.00  0.00    +0.000 C 
ATOM      7  C   UNL     1      -4.790  13.007  20.445  0.00  0.00    +0.000 C 
ATOM      8  C   UNL     1      -6.058  12.441  19.887  0.00  0.00    +0.000 C 
ATOM      9  C   UNL     1      -4.684  14.481  20.160  0.00  0.00    +0.000 C 
ATOM     10  C   UNL     1      -3.680  12.296  19.787  0.00  0.00    +0.000 A 
ATOM     11  C   UNL     1      -2.426  12.068  20.368  0.00  0.00    +0.000 A 
ATOM     12  N   UNL     1      -1.649  11.406  19.474  0.00  0.00    +0.000 N 
ATOM     13  C   UNL     1      -2.314  11.180  18.323  0.00  0.00    +0.000 A 
ATOM     14  C   UNL     1      -1.819  10.566  17.284  0.00  0.00    +0.000 A 
ATOM     15  C   UNL     1      -2.750  10.511  16.326  0.00  0.00    +0.000 A 
ATOM     16  C   UNL     1      -3.763  10.448  15.269  0.00  0.00    +0.000 A 
ATOM     17  C   UNL     1      -4.470  11.382  16.877  0.00  0.00    +0.000 A 
ATOM     18  C   UNL     1      -3.581  11.684  18.403  0.00  0.00    +0.000 A 
ATOM     19  H   UNL     1      -0.697  11.105  19.554  0.00  0.00    +0.000 HD
ENDROOT
BRANCH   4  20
ATOM     20  C   UNL     1      -2.819  15.257  24.112  0.00  0.00    +0.000 A 
ATOM     21  C   UNL     1      -2.525  15.013  25.448  0.00  0.00    +0.000 A 
ATOM     22  C   UNL     1      -1.623  15.810  26.161  0.00  0.00    +0.000 A 
ATOM     23  C   UNL     1      -0.773  16.656  25.488  0.00  0.00    +0.000 A 
ATOM     24  C   UNL     1      -0.877  16.669  24.113  0.00  0.00    +0.000 A 
ATOM     25  C   UNL     1      -1.962  16.099  23.442  0.00  0.00    +0.000 A 
BRANCH  23  26
ATOM     26  O   UNL     1       0.091  17.401  26.225  0.00  0.00    +0.000 OA
ATOM     27  C   UNL     1       0.218  17.056  27.606  0.00  0.00    +0.000 C 
ENDBRANCH  23  26
ENDBRANCH   4  20
BRANCH   1  28
ATOM     28  C   UNL     1      -0.381  12.061  21.851  0.00  0.00    +0.000 C 
ATOM     29  O   UNL     1      -0.039  11.290  22.733  0.00  0.00    +0.000 OA
BRANCH  28  30
ATOM     30  O   UNL     1       0.461  12.680  20.972  0.00  0.00    +0.000 OA
BRANCH  30  32
ATOM     31  C   UNL     1       0.374  15.110  20.740  0.00  0.00    +0.000 C 
ATOM     32  C   UNL     1       1.049  13.935  21.412  0.00  0.00    +0.000 C 
ENDBRANCH  30  32
ENDBRANCH  28  30
ENDBRANCH   1  28
TORSDOF 5
ENDMDL
