MODEL 1
REMARK VINA RESULT:      -7.1      0.000      0.000
REMARK  Name = 
REMARK  16 active torsions:
REMARK  status: ('A' for Active; 'I' for Inactive)
REMARK    1  A    between atoms: C_1  and  C_2
REMARK    2  A    between atoms: C_2  and  N_3
REMARK    3  A    between atoms: N_3  and  C_4
REMARK    4  A    between atoms: N_3  and  C_6
REMARK    5  A    between atoms: C_4  and  C_5
REMARK    6  A    between atoms: C_6  and  C_7
REMARK    7  A    between atoms: C_7  and  N_8
REMARK    8  A    between atoms: C_9  and  C_11
REMARK    9  A    between atoms: C_12  and  C_13
REMARK   10  A    between atoms: C_15  and  C_16
REMARK   11  A    between atoms: C_24  and  C_25
REMARK   12  A    between atoms: C_25  and  C_26
REMARK   13  A    between atoms: C_26  and  N_27
REMARK   14  A    between atoms: N_27  and  C_28
REMARK   15  A    between atoms: N_27  and  C_29
REMARK   16  A    between atoms: C_32  and  C_33
REMARK                            x       y       z     vdW  Elec       q    Type
REMARK                         _______ _______ _______ _____ _____    ______ ____
ROOT
ATOM      1  C   UNL     1      -0.600  12.373  18.986  0.00  0.00    +0.000 A 
ATOM      2  C   UNL     1      -1.527  11.408  18.590  0.00  0.00    +0.000 A 
ATOM      3  C   UNL     1      -3.002  11.443  18.389  0.00  0.00    +0.000 C 
ATOM      4  N   UNL     1      -0.829  10.262  18.266  0.00  0.00    +0.000 N 
ATOM      5  C   UNL     1       0.523  10.456  18.398  0.00  0.00    +0.000 A 
ATOM      6  C   UNL     1       0.706  11.748  18.863  0.00  0.00    +0.000 A 
ATOM      7  C   UNL     1       2.015  12.410  19.137  0.00  0.00    +0.000 C 
ATOM      8  H   UNL     1      -1.253   9.420  17.901  0.00  0.00    +0.000 HD
ENDROOT
BRANCH   5   9
ATOM      9  C   UNL     1       1.411   9.401  18.047  0.00  0.00    +0.000 C 
ATOM     10  C   UNL     1       1.757   8.417  18.898  0.00  0.00    +0.000 C 
ATOM     11  C   UNL     1       1.318   8.307  20.344  0.00  0.00    +0.000 C 
ATOM     12  O   UNL     1       0.714   9.102  21.029  0.00  0.00    +0.000 OA
ATOM     13  N   UNL     1       1.815   7.089  20.776  0.00  0.00    +0.000 N 
ATOM     14  C   UNL     1       2.565   6.463  19.795  0.00  0.00    +0.000 A 
ATOM     15  C   UNL     1       3.230   5.262  19.936  0.00  0.00    +0.000 A 
ATOM     16  C   UNL     1       3.976   4.810  18.851  0.00  0.00    +0.000 A 
ATOM     17  C   UNL     1       4.041   5.556  17.653  0.00  0.00    +0.000 A 
ATOM     18  C   UNL     1       3.323   6.773  17.532  0.00  0.00    +0.000 A 
ATOM     19  C   UNL     1       2.588   7.225  18.619  0.00  0.00    +0.000 A 
ATOM     20  H   UNL     1       1.677   6.757  21.718  0.00  0.00    +0.000 HD
BRANCH  17  21
ATOM     21  C   UNL     1       4.869   5.007  16.506  0.00  0.00    +0.000 C 
BRANCH  21  22
ATOM     22  C   UNL     1       5.846   6.044  15.924  0.00  0.00    +0.000 C 
BRANCH  22  23
ATOM     23  N   UNL     1       7.214   5.967  16.478  0.00  0.00    +0.000 NA
ATOM     24  C   UNL     1       7.455   6.984  17.504  0.00  0.00    +0.000 C 
ATOM     25  C   UNL     1       7.432   4.634  17.050  0.00  0.00    +0.000 C 
ENDBRANCH  22  23
ENDBRANCH  21  22
ENDBRANCH  17  21
ENDBRANCH   5   9
BRANCH   1  27
ATOM     26  N   UNL     1      -0.373  14.743  18.480  0.00  0.00    +0.000 N 
ATOM     27  C   UNL     1      -0.842  13.779  19.354  0.00  0.00    +0.000 C 
ATOM     28  O   UNL     1      -1.456  14.085  20.374  0.00  0.00    +0.000 OA
ATOM     29  H   UNL     1      -0.161  14.467  17.532  0.00  0.00    +0.000 HD
BRANCH  26  30
ATOM     30  C   UNL     1      -0.620  16.150  18.734  0.00  0.00    +0.000 C 
BRANCH  30  31
ATOM     31  C   UNL     1       0.653  16.971  19.043  0.00  0.00    +0.000 C 
BRANCH  31  32
ATOM     32  N   UNL     1       1.925  16.212  19.125  0.00  0.00    +0.000 NA
BRANCH  32  34
ATOM     33  C   UNL     1       4.305  16.297  18.265  0.00  0.00    +0.000 C 
ATOM     34  C   UNL     1       2.824  16.559  18.012  0.00  0.00    +0.000 C 
ENDBRANCH  32  34
BRANCH  32  35
ATOM     35  C   UNL     1       2.551  16.376  20.458  0.00  0.00    +0.000 C 
ATOM     36  C   UNL     1       2.081  17.559  21.307  0.00  0.00    +0.000 C 
ENDBRANCH  32  35
ENDBRANCH  31  32
ENDBRANCH  30  31
ENDBRANCH  26  30
ENDBRANCH   1  27
TORSDOF 10
ENDMDL
MODEL 2
REMARK VINA RESULT:      -7.1      2.835      4.179
REMARK  Name = 
REMARK  16 active torsions:
REMARK  status: ('A' for Active; 'I' for Inactive)
REMARK    1  A    between atoms: C_1  and  C_2
REMARK    2  A    between atoms: C_2  and  N_3
REMARK    3  A    between atoms: N_3  and  C_4
REMARK    4  A    between atoms: N_3  and  C_6
REMARK    5  A    between atoms: C_4  and  C_5
REMARK    6  A    between atoms: C_6  and  C_7
REMARK    7  A    between atoms: C_7  and  N_8
REMARK    8  A    between atoms: C_9  and  C_11
REMARK    9  A    between atoms: C_12  and  C_13
REMARK   10  A    between atoms: C_15  and  C_16
REMARK   11  A    between atoms: C_24  and  C_25
REMARK   12  A    between atoms: C_25  and  C_26
REMARK   13  A    between atoms: C_26  and  N_27
REMARK   14  A    between atoms: N_27  and  C_28
REMARK   15  A    between atoms: N_27  and  C_29
REMARK   16  A    between atoms: C_32  and  C_33
REMARK                            x       y       z     vdW  Elec       q    Type
REMARK                         _______ _______ _______ _____ _____    ______ ____
ROOT
ATOM      1  C   UNL     1      -2.039  11.857  19.383  0.00  0.00    +0.000 A 
ATOM      2  C   UNL     1      -1.021  12.258  20.250  0.00  0.00    +0.000 A 
ATOM      3  C   UNL     1      -0.998  13.151  21.441  0.00  0.00    +0.000 C 
ATOM      4  N   UNL     1       0.124  11.571  19.899  0.00  0.00    +0.000 N 
ATOM      5  C   UNL     1      -0.118  10.708  18.860  0.00  0.00    +0.000 A 
ATOM      6  C   UNL     1      -1.445  10.871  18.497  0.00  0.00    +0.000 A 
ATOM      7  C   UNL     1      -2.164  10.124  17.423  0.00  0.00    +0.000 C 
ATOM      8  H   UNL     1       1.002  11.636  20.396  0.00  0.00    +0.000 HD
ENDROOT
BRANCH   5   9
ATOM      9  C   UNL     1       0.933   9.867  18.401  0.00  0.00    +0.000 C 
ATOM     10  C   UNL     1       1.394   8.815  19.104  0.00  0.00    +0.000 C 
ATOM     11  C   UNL     1       0.923   8.404  20.484  0.00  0.00    +0.000 C 
ATOM     12  O   UNL     1       0.180   8.978  21.248  0.00  0.00    +0.000 OA
ATOM     13  N   UNL     1       1.584   7.215  20.747  0.00  0.00    +0.000 N 
ATOM     14  C   UNL     1       2.457   6.877  19.727  0.00  0.00    +0.000 A 
ATOM     15  C   UNL     1       3.292   5.778  19.716  0.00  0.00    +0.000 A 
ATOM     16  C   UNL     1       4.139   5.626  18.620  0.00  0.00    +0.000 A 
ATOM     17  C   UNL     1       4.133   6.563  17.563  0.00  0.00    +0.000 A 
ATOM     18  C   UNL     1       3.242   7.666  17.593  0.00  0.00    +0.000 A 
ATOM     19  C   UNL     1       2.407   7.820  18.691  0.00  0.00    +0.000 A 
ATOM     20  H   UNL     1       1.464   6.715  21.613  0.00  0.00    +0.000 HD
BRANCH  17  21
ATOM     21  C   UNL     1       5.077   6.338  16.397  0.00  0.00    +0.000 C 
BRANCH  21  22
ATOM     22  C   UNL     1       6.551   6.586  16.765  0.00  0.00    +0.000 C 
BRANCH  22  23
ATOM     23  N   UNL     1       7.443   5.437  16.507  0.00  0.00    +0.000 NA
ATOM     24  C   UNL     1       7.631   4.602  17.697  0.00  0.00    +0.000 C 
ATOM     25  C   UNL     1       6.883   4.622  15.422  0.00  0.00    +0.000 C 
ENDBRANCH  22  23
ENDBRANCH  21  22
ENDBRANCH  17  21
ENDBRANCH   5   9
BRANCH   1  27
ATOM     26  N   UNL     1      -3.778  13.426  20.046  0.00  0.00    +0.000 N 
ATOM     27  C   UNL     1      -3.460  12.246  19.398  0.00  0.00    +0.000 C 
ATOM     28  O   UNL     1      -4.322  11.572  18.838  0.00  0.00    +0.000 OA
ATOM     29  H   UNL     1      -3.038  14.093  20.216  0.00  0.00    +0.000 HD
BRANCH  26  30
ATOM     30  C   UNL     1      -5.144  13.915  20.058  0.00  0.00    +0.000 C 
BRANCH  30  31
ATOM     31  C   UNL     1      -5.705  14.192  21.472  0.00  0.00    +0.000 C 
BRANCH  31  32
ATOM     32  N   UNL     1      -4.748  14.069  22.598  0.00  0.00    +0.000 NA
BRANCH  32  34
ATOM     33  C   UNL     1      -3.063  15.904  23.047  0.00  0.00    +0.000 C 
ATOM     34  C   UNL     1      -4.484  15.379  23.217  0.00  0.00    +0.000 C 
ENDBRANCH  32  34
BRANCH  32  35
ATOM     35  C   UNL     1      -5.203  13.044  23.566  0.00  0.00    +0.000 C 
ATOM     36  C   UNL     1      -4.169  12.526  24.568  0.00  0.00    +0.000 C 
ENDBRANCH  32  35
ENDBRANCH  31  32
ENDBRANCH  30  31
ENDBRANCH  26  30
ENDBRANCH   1  27
TORSDOF 10
ENDMDL
MODEL 3
REMARK VINA RESULT:      -7.0      2.974      4.840
REMARK  Name = 
REMARK  16 active torsions:
REMARK  status: ('A' for Active; 'I' for Inactive)
REMARK    1  A    between atoms: C_1  and  C_2
REMARK    2  A    between atoms: C_2  and  N_3
REMARK    3  A    between atoms: N_3  and  C_4
REMARK    4  A    between atoms: N_3  and  C_6
REMARK    5  A    between atoms: C_4  and  C_5
REMARK    6  A    between atoms: C_6  and  C_7
REMARK    7  A    between atoms: C_7  and  N_8
REMARK    8  A    between atoms: C_9  and  C_11
REMARK    9  A    between atoms: C_12  and  C_13
REMARK   10  A    between atoms: C_15  and  C_16
REMARK   11  A    between atoms: C_24  and  C_25
REMARK   12  A    between atoms: C_25  and  C_26
REMARK   13  A    between atoms: C_26  and  N_27
REMARK   14  A    between atoms: N_27  and  C_28
REMARK   15  A    between atoms: N_27  and  C_29
REMARK   16  A    between atoms: C_32  and  C_33
REMARK                            x       y       z     vdW  Elec       q    Type
REMARK                         _______ _______ _______ _____ _____    ______ ____
ROOT
ATOM      1  C   UNL     1      -1.210  11.747  19.212  0.00  0.00    +0.000 A 
ATOM      2  C   UNL     1      -0.116  12.172  19.968  0.00  0.00    +0.000 A 
ATOM      3  C   UNL     1       0.034  13.174  21.058  0.00  0.00    +0.000 C 
ATOM      4  N   UNL     1       0.966  11.389  19.617  0.00  0.00    +0.000 N 
ATOM      5  C   UNL     1       0.609  10.444  18.688  0.00  0.00    +0.000 A 
ATOM      6  C   UNL     1      -0.730  10.647  18.395  0.00  0.00    +0.000 A 
ATOM      7  C   UNL     1      -1.557   9.841  17.450  0.00  0.00    +0.000 C 
ATOM      8  H   UNL     1       1.878  11.451  20.048  0.00  0.00    +0.000 HD
ENDROOT
BRANCH   5   9
ATOM      9  C   UNL     1       1.581   9.502  18.251  0.00  0.00    +0.000 C 
ATOM     10  C   UNL     1       1.926   8.415  18.966  0.00  0.00    +0.000 C 
ATOM     11  C   UNL     1       1.393   8.059  20.339  0.00  0.00    +0.000 C 
ATOM     12  O   UNL     1       0.695   8.706  21.088  0.00  0.00    +0.000 OA
ATOM     13  N   UNL     1       1.931   6.813  20.619  0.00  0.00    +0.000 N 
ATOM     14  C   UNL     1       2.785   6.386  19.615  0.00  0.00    +0.000 A 
ATOM     15  C   UNL     1       3.510   5.212  19.624  0.00  0.00    +0.000 A 
ATOM     16  C   UNL     1       4.357   4.973  18.545  0.00  0.00    +0.000 A 
ATOM     17  C   UNL     1       4.461   5.900  17.484  0.00  0.00    +0.000 A 
ATOM     18  C   UNL     1       3.681   7.084  17.494  0.00  0.00    +0.000 A 
ATOM     19  C   UNL     1       2.845   7.324  18.575  0.00  0.00    +0.000 A 
ATOM     20  H   UNL     1       1.748   6.331  21.484  0.00  0.00    +0.000 HD
BRANCH  17  21
ATOM     21  C   UNL     1       5.400   5.579  16.336  0.00  0.00    +0.000 C 
BRANCH  21  22
ATOM     22  C   UNL     1       6.876   5.855  16.675  0.00  0.00    +0.000 C 
BRANCH  22  23
ATOM     23  N   UNL     1       7.076   6.743  17.839  0.00  0.00    +0.000 NA
ATOM     24  C   UNL     1       7.847   6.097  18.904  0.00  0.00    +0.000 C 
ATOM     25  C   UNL     1       7.767   7.962  17.405  0.00  0.00    +0.000 C 
ENDBRANCH  22  23
ENDBRANCH  21  22
ENDBRANCH  17  21
ENDBRANCH   5   9
BRANCH   1  27
ATOM     26  N   UNL     1      -3.027  12.757  20.478  0.00  0.00    +0.000 N 
ATOM     27  C   UNL     1      -2.605  12.217  19.276  0.00  0.00    +0.000 C 
ATOM     28  O   UNL     1      -3.353  12.161  18.303  0.00  0.00    +0.000 OA
ATOM     29  H   UNL     1      -2.327  13.068  21.136  0.00  0.00    +0.000 HD
BRANCH  26  30
ATOM     30  C   UNL     1      -4.367  13.298  20.612  0.00  0.00    +0.000 C 
BRANCH  30  31
ATOM     31  C   UNL     1      -5.357  12.365  21.346  0.00  0.00    +0.000 C 
BRANCH  31  32
ATOM     32  N   UNL     1      -5.686  12.722  22.748  0.00  0.00    +0.000 NA
BRANCH  32  34
ATOM     33  C   UNL     1      -6.310  14.943  23.791  0.00  0.00    +0.000 C 
ATOM     34  C   UNL     1      -5.272  14.101  23.056  0.00  0.00    +0.000 C 
ENDBRANCH  32  34
BRANCH  32  35
ATOM     35  C   UNL     1      -7.115  12.460  23.037  0.00  0.00    +0.000 C 
ATOM     36  C   UNL     1      -7.914  11.707  21.971  0.00  0.00    +0.000 C 
ENDBRANCH  32  35
ENDBRANCH  31  32
ENDBRANCH  30  31
ENDBRANCH  26  30
ENDBRANCH   1  27
TORSDOF 10
ENDMDL
MODEL 4
REMARK VINA RESULT:      -6.9      2.721      3.961
REMARK  Name = 
REMARK  16 active torsions:
REMARK  status: ('A' for Active; 'I' for Inactive)
REMARK    1  A    between atoms: C_1  and  C_2
REMARK    2  A    between atoms: C_2  and  N_3
REMARK    3  A    between atoms: N_3  and  C_4
REMARK    4  A    between atoms: N_3  and  C_6
REMARK    5  A    between atoms: C_4  and  C_5
REMARK    6  A    between atoms: C_6  and  C_7
REMARK    7  A    between atoms: C_7  and  N_8
REMARK    8  A    between atoms: C_9  and  C_11
REMARK    9  A    between atoms: C_12  and  C_13
REMARK   10  A    between atoms: C_15  and  C_16
REMARK   11  A    between atoms: C_24  and  C_25
REMARK   12  A    between atoms: C_25  and  C_26
REMARK   13  A    between atoms: C_26  and  N_27
REMARK   14  A    between atoms: N_27  and  C_28
REMARK   15  A    between atoms: N_27  and  C_29
REMARK   16  A    between atoms: C_32  and  C_33
REMARK                            x       y       z     vdW  Elec       q    Type
REMARK                         _______ _______ _______ _____ _____    ______ ____
ROOT
ATOM      1  C   UNL     1      -0.920  11.683  19.186  0.00  0.00    +0.000 A 
ATOM      2  C   UNL     1       0.215  12.112  19.876  0.00  0.00    +0.000 A 
ATOM      3  C   UNL     1       0.436  13.159  20.912  0.00  0.00    +0.000 C 
ATOM      4  N   UNL     1       1.262  11.286  19.519  0.00  0.00    +0.000 N 
ATOM      5  C   UNL     1       0.843  10.310  18.651  0.00  0.00    +0.000 A 
ATOM      6  C   UNL     1      -0.501  10.534  18.403  0.00  0.00    +0.000 A 
ATOM      7  C   UNL     1      -1.388   9.710  17.531  0.00  0.00    +0.000 C 
ATOM      8  H   UNL     1       2.192  11.343  19.910  0.00  0.00    +0.000 HD
ENDROOT
BRANCH   5   9
ATOM      9  C   UNL     1       1.772   9.323  18.219  0.00  0.00    +0.000 C 
ATOM     10  C   UNL     1       2.060   8.220  18.935  0.00  0.00    +0.000 C 
ATOM     11  C   UNL     1       1.502   7.888  20.304  0.00  0.00    +0.000 C 
ATOM     12  O   UNL     1       0.831   8.567  21.049  0.00  0.00    +0.000 OA
ATOM     13  N   UNL     1       1.979   6.619  20.586  0.00  0.00    +0.000 N 
ATOM     14  C   UNL     1       2.818   6.152  19.588  0.00  0.00    +0.000 A 
ATOM     15  C   UNL     1       3.487   4.945  19.600  0.00  0.00    +0.000 A 
ATOM     16  C   UNL     1       4.328   4.667  18.526  0.00  0.00    +0.000 A 
ATOM     17  C   UNL     1       4.483   5.588  17.467  0.00  0.00    +0.000 A 
ATOM     18  C   UNL     1       3.760   6.808  17.473  0.00  0.00    +0.000 A 
ATOM     19  C   UNL     1       2.929   7.087  18.549  0.00  0.00    +0.000 A 
ATOM     20  H   UNL     1       1.767   6.146  21.450  0.00  0.00    +0.000 HD
BRANCH  17  21
ATOM     21  C   UNL     1       5.413   5.224  16.325  0.00  0.00    +0.000 C 
BRANCH  21  22
ATOM     22  C   UNL     1       6.854   5.717  16.546  0.00  0.00    +0.000 C 
BRANCH  22  23
ATOM     23  N   UNL     1       7.048   6.486  17.791  0.00  0.00    +0.000 NA
ATOM     24  C   UNL     1       7.841   5.752  18.780  0.00  0.00    +0.000 C 
ATOM     25  C   UNL     1       7.712   7.757  17.478  0.00  0.00    +0.000 C 
ENDBRANCH  22  23
ENDBRANCH  21  22
ENDBRANCH  17  21
ENDBRANCH   5   9
BRANCH   1  27
ATOM     26  N   UNL     1      -2.610  12.936  20.410  0.00  0.00    +0.000 N 
ATOM     27  C   UNL     1      -2.298  12.194  19.286  0.00  0.00    +0.000 C 
ATOM     28  O   UNL     1      -3.128  11.995  18.401  0.00  0.00    +0.000 OA
ATOM     29  H   UNL     1      -1.852  13.335  20.946  0.00  0.00    +0.000 HD
BRANCH  26  30
ATOM     30  C   UNL     1      -3.927  13.527  20.561  0.00  0.00    +0.000 C 
BRANCH  30  31
ATOM     31  C   UNL     1      -4.250  13.997  21.998  0.00  0.00    +0.000 C 
BRANCH  31  32
ATOM     32  N   UNL     1      -3.292  13.591  23.056  0.00  0.00    +0.000 NA
BRANCH  32  34
ATOM     33  C   UNL     1      -1.625  14.903  24.438  0.00  0.00    +0.000 C 
ATOM     34  C   UNL     1      -3.075  14.681  24.023  0.00  0.00    +0.000 C 
ENDBRANCH  32  34
BRANCH  32  35
ATOM     35  C   UNL     1      -3.715  12.320  23.689  0.00  0.00    +0.000 C 
ATOM     36  C   UNL     1      -4.532  12.423  24.979  0.00  0.00    +0.000 C 
ENDBRANCH  32  35
ENDBRANCH  31  32
ENDBRANCH  30  31
ENDBRANCH  26  30
ENDBRANCH   1  27
TORSDOF 10
ENDMDL
MODEL 5
REMARK VINA RESULT:      -6.9      2.678      4.980
REMARK  Name = 
REMARK  16 active torsions:
REMARK  status: ('A' for Active; 'I' for Inactive)
REMARK    1  A    between atoms: C_1  and  C_2
REMARK    2  A    between atoms: C_2  and  N_3
REMARK    3  A    between atoms: N_3  and  C_4
REMARK    4  A    between atoms: N_3  and  C_6
REMARK    5  A    between atoms: C_4  and  C_5
REMARK    6  A    between atoms: C_6  and  C_7
REMARK    7  A    between atoms: C_7  and  N_8
REMARK    8  A    between atoms: C_9  and  C_11
REMARK    9  A    between atoms: C_12  and  C_13
REMARK   10  A    between atoms: C_15  and  C_16
REMARK   11  A    between atoms: C_24  and  C_25
REMARK   12  A    between atoms: C_25  and  C_26
REMARK   13  A    between atoms: C_26  and  N_27
REMARK   14  A    between atoms: N_27  and  C_28
REMARK   15  A    between atoms: N_27  and  C_29
REMARK   16  A    between atoms: C_32  and  C_33
REMARK                            x       y       z     vdW  Elec       q    Type
REMARK                         _______ _______ _______ _____ _____    ______ ____
ROOT
ATOM      1  C   UNL     1      -0.811  12.043  20.156  0.00  0.00    +0.000 A 
ATOM      2  C   UNL     1       0.457  12.572  20.403  0.00  0.00    +0.000 A 
ATOM      3  C   UNL     1       0.928  13.756  21.174  0.00  0.00    +0.000 C 
ATOM      4  N   UNL     1       1.386  11.709  19.856  0.00  0.00    +0.000 N 
ATOM      5  C   UNL     1       0.773  10.618  19.295  0.00  0.00    +0.000 A 
ATOM      6  C   UNL     1      -0.593  10.798  19.442  0.00  0.00    +0.000 A 
ATOM      7  C   UNL     1      -1.660   9.853  19.000  0.00  0.00    +0.000 C 
ATOM      8  H   UNL     1       2.387  11.826  19.933  0.00  0.00    +0.000 HD
ENDROOT
BRANCH   5   9
ATOM      9  C   UNL     1       1.576   9.585  18.736  0.00  0.00    +0.000 C 
ATOM     10  C   UNL     1       1.835   8.428  19.373  0.00  0.00    +0.000 C 
ATOM     11  C   UNL     1       1.377   8.071  20.772  0.00  0.00    +0.000 C 
ATOM     12  O   UNL     1       0.833   8.761  21.605  0.00  0.00    +0.000 OA
ATOM     13  N   UNL     1       1.771   6.756  20.952  0.00  0.00    +0.000 N 
ATOM     14  C   UNL     1       2.477   6.277  19.860  0.00  0.00    +0.000 A 
ATOM     15  C   UNL     1       3.042   5.023  19.757  0.00  0.00    +0.000 A 
ATOM     16  C   UNL     1       3.758   4.735  18.598  0.00  0.00    +0.000 A 
ATOM     17  C   UNL     1       3.892   5.695  17.570  0.00  0.00    +0.000 A 
ATOM     18  C   UNL     1       3.275   6.965  17.697  0.00  0.00    +0.000 A 
ATOM     19  C   UNL     1       2.570   7.252  18.858  0.00  0.00    +0.000 A 
ATOM     20  H   UNL     1       1.600   6.256  21.811  0.00  0.00    +0.000 HD
BRANCH  17  21
ATOM     21  C   UNL     1       4.683   5.318  16.331  0.00  0.00    +0.000 C 
BRANCH  21  22
ATOM     22  C   UNL     1       6.071   5.982  16.283  0.00  0.00    +0.000 C 
BRANCH  22  23
ATOM     23  N   UNL     1       6.769   6.025  17.584  0.00  0.00    +0.000 NA
ATOM     24  C   UNL     1       7.577   4.826  17.821  0.00  0.00    +0.000 C 
ATOM     25  C   UNL     1       7.631   7.212  17.632  0.00  0.00    +0.000 C 
ENDBRANCH  22  23
ENDBRANCH  21  22
ENDBRANCH  17  21
ENDBRANCH   5   9
BRANCH   1  27
ATOM     26  N   UNL     1      -3.019  12.914  19.616  0.00  0.00    +0.000 N 
ATOM     27  C   UNL     1      -2.119  12.554  20.602  0.00  0.00    +0.000 C 
ATOM     28  O   UNL     1      -2.411  12.634  21.793  0.00  0.00    +0.000 OA
ATOM     29  H   UNL     1      -2.875  12.555  18.683  0.00  0.00    +0.000 HD
BRANCH  26  30
ATOM     30  C   UNL     1      -4.351  13.371  19.965  0.00  0.00    +0.000 C 
BRANCH  30  31
ATOM     31  C   UNL     1      -5.408  12.244  20.038  0.00  0.00    +0.000 C 
BRANCH  31  32
ATOM     32  N   UNL     1      -6.069  12.043  21.350  0.00  0.00    +0.000 NA
BRANCH  32  34
ATOM     33  C   UNL     1      -7.102  13.621  23.039  0.00  0.00    +0.000 C 
ATOM     34  C   UNL     1      -5.879  13.210  22.227  0.00  0.00    +0.000 C 
ENDBRANCH  32  34
BRANCH  32  35
ATOM     35  C   UNL     1      -7.491  11.668  21.172  0.00  0.00    +0.000 C 
ATOM     36  C   UNL     1      -7.784  10.223  20.764  0.00  0.00    +0.000 C 
ENDBRANCH  32  35
ENDBRANCH  31  32
ENDBRANCH  30  31
ENDBRANCH  26  30
ENDBRANCH   1  27
TORSDOF 10
ENDMDL
MODEL 6
REMARK VINA RESULT:      -6.9      2.883      4.570
REMARK  Name = 
REMARK  16 active torsions:
REMARK  status: ('A' for Active; 'I' for Inactive)
REMARK    1  A    between atoms: C_1  and  C_2
REMARK    2  A    between atoms: C_2  and  N_3
REMARK    3  A    between atoms: N_3  and  C_4
REMARK    4  A    between atoms: N_3  and  C_6
REMARK    5  A    between atoms: C_4  and  C_5
REMARK    6  A    between atoms: C_6  and  C_7
REMARK    7  A    between atoms: C_7  and  N_8
REMARK    8  A    between atoms: C_9  and  C_11
REMARK    9  A    between atoms: C_12  and  C_13
REMARK   10  A    between atoms: C_15  and  C_16
REMARK   11  A    between atoms: C_24  and  C_25
REMARK   12  A    between atoms: C_25  and  C_26
REMARK   13  A    between atoms: C_26  and  N_27
REMARK   14  A    between atoms: N_27  and  C_28
REMARK   15  A    between atoms: N_27  and  C_29
REMARK   16  A    between atoms: C_32  and  C_33
REMARK                            x       y       z     vdW  Elec       q    Type
REMARK                         _______ _______ _______ _____ _____    ______ ____
ROOT
ATOM      1  C   UNL     1      -1.125  12.476  19.985  0.00  0.00    +0.000 A 
ATOM      2  C   UNL     1       0.034  12.739  20.717  0.00  0.00    +0.000 A 
ATOM      3  C   UNL     1       0.326  13.647  21.860  0.00  0.00    +0.000 C 
ATOM      4  N   UNL     1       1.016  11.876  20.272  0.00  0.00    +0.000 N 
ATOM      5  C   UNL     1       0.530  11.035  19.304  0.00  0.00    +0.000 A 
ATOM      6  C   UNL     1      -0.791  11.389  19.082  0.00  0.00    +0.000 A 
ATOM      7  C   UNL     1      -1.731  10.735  18.126  0.00  0.00    +0.000 C 
ATOM      8  H   UNL     1       1.944  11.818  20.667  0.00  0.00    +0.000 HD
ENDROOT
BRANCH   5   9
ATOM      9  C   UNL     1       1.384  10.031  18.768  0.00  0.00    +0.000 C 
ATOM     10  C   UNL     1       1.650   8.875  19.405  0.00  0.00    +0.000 C 
ATOM     11  C   UNL     1       1.147   8.492  20.782  0.00  0.00    +0.000 C 
ATOM     12  O   UNL     1       0.550   9.158  21.598  0.00  0.00    +0.000 OA
ATOM     13  N   UNL     1       1.570   7.186  20.966  0.00  0.00    +0.000 N 
ATOM     14  C   UNL     1       2.332   6.738  19.899  0.00  0.00    +0.000 A 
ATOM     15  C   UNL     1       2.937   5.501  19.808  0.00  0.00    +0.000 A 
ATOM     16  C   UNL     1       3.707   5.246  18.676  0.00  0.00    +0.000 A 
ATOM     17  C   UNL     1       3.855   6.219  17.663  0.00  0.00    +0.000 A 
ATOM     18  C   UNL     1       3.197   7.470  17.777  0.00  0.00    +0.000 A 
ATOM     19  C   UNL     1       2.438   7.726  18.910  0.00  0.00    +0.000 A 
ATOM     20  H   UNL     1       1.379   6.674  21.812  0.00  0.00    +0.000 HD
BRANCH  17  21
ATOM     21  C   UNL     1       4.705   5.877  16.454  0.00  0.00    +0.000 C 
BRANCH  21  22
ATOM     22  C   UNL     1       5.095   4.390  16.398  0.00  0.00    +0.000 C 
BRANCH  22  23
ATOM     23  N   UNL     1       6.514   4.145  16.071  0.00  0.00    +0.000 NA
ATOM     24  C   UNL     1       6.934   4.850  14.858  0.00  0.00    +0.000 C 
ATOM     25  C   UNL     1       7.352   4.572  17.198  0.00  0.00    +0.000 C 
ENDBRANCH  22  23
ENDBRANCH  21  22
ENDBRANCH  17  21
ENDBRANCH   5   9
BRANCH   1  27
ATOM     26  N   UNL     1      -3.545  12.224  20.055  0.00  0.00    +0.000 N 
ATOM     27  C   UNL     1      -2.461  13.079  20.139  0.00  0.00    +0.000 C 
ATOM     28  O   UNL     1      -2.609  14.279  20.359  0.00  0.00    +0.000 OA
ATOM     29  H   UNL     1      -3.386  11.235  20.185  0.00  0.00    +0.000 HD
BRANCH  26  30
ATOM     30  C   UNL     1      -4.894  12.722  20.254  0.00  0.00    +0.000 C 
BRANCH  30  31
ATOM     31  C   UNL     1      -5.452  12.488  21.677  0.00  0.00    +0.000 C 
BRANCH  31  32
ATOM     32  N   UNL     1      -5.077  13.487  22.707  0.00  0.00    +0.000 NA
BRANCH  32  34
ATOM     33  C   UNL     1      -7.173  12.886  23.992  0.00  0.00    +0.000 C 
ATOM     34  C   UNL     1      -6.262  13.973  23.433  0.00  0.00    +0.000 C 
ENDBRANCH  32  34
BRANCH  32  35
ATOM     35  C   UNL     1      -4.020  12.953  23.598  0.00  0.00    +0.000 C 
ATOM     36  C   UNL     1      -2.942  13.933  24.064  0.00  0.00    +0.000 C 
ENDBRANCH  32  35
ENDBRANCH  31  32
ENDBRANCH  30  31
ENDBRANCH  26  30
ENDBRANCH   1  27
TORSDOF 10
ENDMDL
MODEL 7
REMARK VINA RESULT:      -6.9      2.932      4.490
REMARK  Name = 
REMARK  16 active torsions:
REMARK  status: ('A' for Active; 'I' for Inactive)
REMARK    1  A    between atoms: C_1  and  C_2
REMARK    2  A    between atoms: C_2  and  N_3
REMARK    3  A    between atoms: N_3  and  C_4
REMARK    4  A    between atoms: N_3  and  C_6
REMARK    5  A    between atoms: C_4  and  C_5
REMARK    6  A    between atoms: C_6  and  C_7
REMARK    7  A    between atoms: C_7  and  N_8
REMARK    8  A    between atoms: C_9  and  C_11
REMARK    9  A    between atoms: C_12  and  C_13
REMARK   10  A    between atoms: C_15  and  C_16
REMARK   11  A    between atoms: C_24  and  C_25
REMARK   12  A    between atoms: C_25  and  C_26
REMARK   13  A    between atoms: C_26  and  N_27
REMARK   14  A    between atoms: N_27  and  C_28
REMARK   15  A    between atoms: N_27  and  C_29
REMARK   16  A    between atoms: C_32  and  C_33
REMARK                            x       y       z     vdW  Elec       q    Type
REMARK                         _______ _______ _______ _____ _____    ______ ____
ROOT
ATOM      1  C   UNL     1      -1.025  11.627  19.311  0.00  0.00    +0.000 A 
ATOM      2  C   UNL     1       0.144  12.018  19.967  0.00  0.00    +0.000 A 
ATOM      3  C   UNL     1       0.432  13.063  20.987  0.00  0.00    +0.000 C 
ATOM      4  N   UNL     1       1.148  11.148  19.590  0.00  0.00    +0.000 N 
ATOM      5  C   UNL     1       0.669  10.182  18.742  0.00  0.00    +0.000 A 
ATOM      6  C   UNL     1      -0.672  10.456  18.528  0.00  0.00    +0.000 A 
ATOM      7  C   UNL     1      -1.612   9.659  17.687  0.00  0.00    +0.000 C 
ATOM      8  H   UNL     1       2.090  11.173  19.956  0.00  0.00    +0.000 HD
ENDROOT
BRANCH   5   9
ATOM      9  C   UNL     1       1.548   9.156  18.295  0.00  0.00    +0.000 C 
ATOM     10  C   UNL     1       1.901   8.106  19.059  0.00  0.00    +0.000 C 
ATOM     11  C   UNL     1       1.479   7.880  20.497  0.00  0.00    +0.000 C 
ATOM     12  O   UNL     1       0.886   8.619  21.252  0.00  0.00    +0.000 OA
ATOM     13  N   UNL     1       1.976   6.630  20.823  0.00  0.00    +0.000 N 
ATOM     14  C   UNL     1       2.712   6.083  19.785  0.00  0.00    +0.000 A 
ATOM     15  C   UNL     1       3.374   4.873  19.821  0.00  0.00    +0.000 A 
ATOM     16  C   UNL     1       4.106   4.508  18.693  0.00  0.00    +0.000 A 
ATOM     17  C   UNL     1       4.159   5.348  17.559  0.00  0.00    +0.000 A 
ATOM     18  C   UNL     1       3.444   6.573  17.546  0.00  0.00    +0.000 A 
ATOM     19  C   UNL     1       2.724   6.938  18.675  0.00  0.00    +0.000 A 
ATOM     20  H   UNL     1       1.849   6.223  21.736  0.00  0.00    +0.000 HD
BRANCH  17  21
ATOM     21  C   UNL     1       4.971   4.892  16.361  0.00  0.00    +0.000 C 
BRANCH  21  22
ATOM     22  C   UNL     1       5.916   5.983  15.829  0.00  0.00    +0.000 C 
BRANCH  22  23
ATOM     23  N   UNL     1       7.270   5.956  16.420  0.00  0.00    +0.000 NA
ATOM     24  C   UNL     1       7.461   7.010  17.419  0.00  0.00    +0.000 C 
ATOM     25  C   UNL     1       7.501   4.647  17.041  0.00  0.00    +0.000 C 
ENDBRANCH  22  23
ENDBRANCH  21  22
ENDBRANCH  17  21
ENDBRANCH   5   9
BRANCH   1  27
ATOM     26  N   UNL     1      -2.761  12.615  20.702  0.00  0.00    +0.000 N 
ATOM     27  C   UNL     1      -2.380  12.191  19.442  0.00  0.00    +0.000 C 
ATOM     28  O   UNL     1      -3.129  12.306  18.475  0.00  0.00    +0.000 OA
ATOM     29  H   UNL     1      -2.039  12.793  21.385  0.00  0.00    +0.000 HD
BRANCH  26  30
ATOM     30  C   UNL     1      -4.055  13.238  20.909  0.00  0.00    +0.000 C 
BRANCH  30  31
ATOM     31  C   UNL     1      -4.062  14.338  21.995  0.00  0.00    +0.000 C 
BRANCH  31  32
ATOM     32  N   UNL     1      -5.201  14.322  22.945  0.00  0.00    +0.000 NA
BRANCH  32  34
ATOM     33  C   UNL     1      -6.967  15.571  21.629  0.00  0.00    +0.000 C 
ATOM     34  C   UNL     1      -6.015  15.543  22.820  0.00  0.00    +0.000 C 
ENDBRANCH  32  34
BRANCH  32  35
ATOM     35  C   UNL     1      -5.988  13.075  22.802  0.00  0.00    +0.000 C 
ATOM     36  C   UNL     1      -6.874  12.672  23.983  0.00  0.00    +0.000 C 
ENDBRANCH  32  35
ENDBRANCH  31  32
ENDBRANCH  30  31
ENDBRANCH  26  30
ENDBRANCH   1  27
TORSDOF 10
ENDMDL
MODEL 8
REMARK VINA RESULT:      -6.8      2.733      4.215
REMARK  Name = 
REMARK  16 active torsions:
REMARK  status: ('A' for Active; 'I' for Inactive)
REMARK    1  A    between atoms: C_1  and  C_2
REMARK    2  A    between atoms: C_2  and  N_3
REMARK    3  A    between atoms: N_3  and  C_4
REMARK    4  A    between atoms: N_3  and  C_6
REMARK    5  A    between atoms: C_4  and  C_5
REMARK    6  A    between atoms: C_6  and  C_7
REMARK    7  A    between atoms: C_7  and  N_8
REMARK    8  A    between atoms: C_9  and  C_11
REMARK    9  A    between atoms: C_12  and  C_13
REMARK   10  A    between atoms: C_15  and  C_16
REMARK   11  A    between atoms: C_24  and  C_25
REMARK   12  A    between atoms: C_25  and  C_26
REMARK   13  A    between atoms: C_26  and  N_27
REMARK   14  A    between atoms: N_27  and  C_28
REMARK   15  A    between atoms: N_27  and  C_29
REMARK   16  A    between atoms: C_32  and  C_33
REMARK                            x       y       z     vdW  Elec       q    Type
REMARK                         _______ _______ _______ _____ _____    ______ ____
ROOT
ATOM      1  C   UNL     1      -0.943  12.180  19.760  0.00  0.00    +0.000 A 
ATOM      2  C   UNL     1       0.281  12.541  20.324  0.00  0.00    +0.000 A 
ATOM      3  C   UNL     1       0.674  13.589  21.306  0.00  0.00    +0.000 C 
ATOM      4  N   UNL     1       1.229  11.637  19.887  0.00  0.00    +0.000 N 
ATOM      5  C   UNL     1       0.660  10.676  19.089  0.00  0.00    +0.000 A 
ATOM      6  C   UNL     1      -0.683  10.990  18.968  0.00  0.00    +0.000 A 
ATOM      7  C   UNL     1      -1.706  10.212  18.209  0.00  0.00    +0.000 C 
ATOM      8  H   UNL     1       2.195  11.636  20.183  0.00  0.00    +0.000 HD
ENDROOT
BRANCH   5   9
ATOM      9  C   UNL     1       1.474   9.619  18.594  0.00  0.00    +0.000 C 
ATOM     10  C   UNL     1       1.755   8.512  19.306  0.00  0.00    +0.000 C 
ATOM     11  C   UNL     1       1.313   8.245  20.730  0.00  0.00    +0.000 C 
ATOM     12  O   UNL     1       0.766   8.982  21.519  0.00  0.00    +0.000 OA
ATOM     13  N   UNL     1       1.727   6.950  20.996  0.00  0.00    +0.000 N 
ATOM     14  C   UNL     1       2.431   6.408  19.933  0.00  0.00    +0.000 A 
ATOM     15  C   UNL     1       3.014   5.157  19.910  0.00  0.00    +0.000 A 
ATOM     16  C   UNL     1       3.725   4.802  18.766  0.00  0.00    +0.000 A 
ATOM     17  C   UNL     1       3.837   5.691  17.675  0.00  0.00    +0.000 A 
ATOM     18  C   UNL     1       3.202   6.958  17.721  0.00  0.00    +0.000 A 
ATOM     19  C   UNL     1       2.503   7.314  18.865  0.00  0.00    +0.000 A 
ATOM     20  H   UNL     1       1.570   6.508  21.888  0.00  0.00    +0.000 HD
BRANCH  17  21
ATOM     21  C   UNL     1       4.623   5.242  16.457  0.00  0.00    +0.000 C 
BRANCH  21  22
ATOM     22  C   UNL     1       5.764   6.207  16.093  0.00  0.00    +0.000 C 
BRANCH  22  23
ATOM     23  N   UNL     1       7.075   5.554  15.900  0.00  0.00    +0.000 NA
ATOM     24  C   UNL     1       7.385   4.604  16.972  0.00  0.00    +0.000 C 
ATOM     25  C   UNL     1       7.082   4.854  14.610  0.00  0.00    +0.000 C 
ENDBRANCH  22  23
ENDBRANCH  21  22
ENDBRANCH  17  21
ENDBRANCH   5   9
BRANCH   1  27
ATOM     26  N   UNL     1      -2.288  14.079  20.471  0.00  0.00    +0.000 N 
ATOM     27  C   UNL     1      -2.267  12.786  19.980  0.00  0.00    +0.000 C 
ATOM     28  O   UNL     1      -3.307  12.186  19.716  0.00  0.00    +0.000 OA
ATOM     29  H   UNL     1      -1.452  14.638  20.382  0.00  0.00    +0.000 HD
BRANCH  26  30
ATOM     30  C   UNL     1      -3.547  14.775  20.662  0.00  0.00    +0.000 C 
BRANCH  30  31
ATOM     31  C   UNL     1      -3.775  15.289  22.102  0.00  0.00    +0.000 C 
BRANCH  31  32
ATOM     32  N   UNL     1      -4.581  14.421  22.994  0.00  0.00    +0.000 NA
BRANCH  32  34
ATOM     33  C   UNL     1      -6.946  13.903  22.255  0.00  0.00    +0.000 C 
ATOM     34  C   UNL     1      -5.467  13.537  22.218  0.00  0.00    +0.000 C 
ENDBRANCH  32  34
BRANCH  32  35
ATOM     35  C   UNL     1      -3.711  13.691  23.946  0.00  0.00    +0.000 C 
ATOM     36  C   UNL     1      -4.314  12.471  24.645  0.00  0.00    +0.000 C 
ENDBRANCH  32  35
ENDBRANCH  31  32
ENDBRANCH  30  31
ENDBRANCH  26  30
ENDBRANCH   1  27
TORSDOF 10
ENDMDL
MODEL 9
REMARK VINA RESULT:      -6.8      2.432      3.706
REMARK  Name = 
REMARK  16 active torsions:
REMARK  status: ('A' for Active; 'I' for Inactive)
REMARK    1  A    between atoms: C_1  and  C_2
REMARK    2  A    between atoms: C_2  and  N_3
REMARK    3  A    between atoms: N_3  and  C_4
REMARK    4  A    between atoms: N_3  and  C_6
REMARK    5  A    between atoms: C_4  and  C_5
REMARK    6  A    between atoms: C_6  and  C_7
REMARK    7  A    between atoms: C_7  and  N_8
REMARK    8  A    between atoms: C_9  and  C_11
REMARK    9  A    between atoms: C_12  and  C_13
REMARK   10  A    between atoms: C_15  and  C_16
REMARK   11  A    between atoms: C_24  and  C_25
REMARK   12  A    between atoms: C_25  and  C_26
REMARK   13  A    between atoms: C_26  and  N_27
REMARK   14  A    between atoms: N_27  and  C_28
REMARK   15  A    between atoms: N_27  and  C_29
REMARK   16  A    between atoms: C_32  and  C_33
REMARK                            x       y       z     vdW  Elec       q    Type
REMARK                         _______ _______ _______ _____ _____    ______ ____
ROOT
ATOM      1  C   UNL     1      -0.509  12.273  18.964  0.00  0.00    +0.000 A 
ATOM      2  C   UNL     1      -1.331  11.336  18.338  0.00  0.00    +0.000 A 
ATOM      3  C   UNL     1      -2.766  11.352  17.941  0.00  0.00    +0.000 C 
ATOM      4  N   UNL     1      -0.545  10.258  17.983  0.00  0.00    +0.000 N 
ATOM      5  C   UNL     1       0.767  10.474  18.320  0.00  0.00    +0.000 A 
ATOM      6  C   UNL     1       0.828  11.706  18.950  0.00  0.00    +0.000 A 
ATOM      7  C   UNL     1       2.058  12.369  19.475  0.00  0.00    +0.000 C 
ATOM      8  H   UNL     1      -0.879   9.454  17.469  0.00  0.00    +0.000 HD
ENDROOT
BRANCH   5   9
ATOM      9  C   UNL     1       1.740   9.495  17.974  0.00  0.00    +0.000 C 
ATOM     10  C   UNL     1       2.038   8.444  18.762  0.00  0.00    +0.000 C 
ATOM     11  C   UNL     1       1.446   8.173  20.129  0.00  0.00    +0.000 C 
ATOM     12  O   UNL     1       0.730   8.870  20.813  0.00  0.00    +0.000 OA
ATOM     13  N   UNL     1       1.951   6.937  20.498  0.00  0.00    +0.000 N 
ATOM     14  C   UNL     1       2.837   6.442  19.555  0.00  0.00    +0.000 A 
ATOM     15  C   UNL     1       3.542   5.260  19.657  0.00  0.00    +0.000 A 
ATOM     16  C   UNL     1       4.426   4.949  18.627  0.00  0.00    +0.000 A 
ATOM     17  C   UNL     1       4.587   5.814  17.522  0.00  0.00    +0.000 A 
ATOM     18  C   UNL     1       3.827   7.008  17.436  0.00  0.00    +0.000 A 
ATOM     19  C   UNL     1       2.954   7.320  18.468  0.00  0.00    +0.000 A 
ATOM     20  H   UNL     1       1.726   6.507  21.381  0.00  0.00    +0.000 HD
BRANCH  17  21
ATOM     21  C   UNL     1       5.565   5.416  16.433  0.00  0.00    +0.000 C 
BRANCH  21  22
ATOM     22  C   UNL     1       7.000   5.896  16.712  0.00  0.00    +0.000 C 
BRANCH  22  23
ATOM     23  N   UNL     1       7.140   6.717  17.932  0.00  0.00    +0.000 NA
ATOM     24  C   UNL     1       7.924   6.042  18.969  0.00  0.00    +0.000 C 
ATOM     25  C   UNL     1       7.779   7.992  17.589  0.00  0.00    +0.000 C 
ENDBRANCH  22  23
ENDBRANCH  21  22
ENDBRANCH  17  21
ENDBRANCH   5   9
BRANCH   1  27
ATOM     26  N   UNL     1      -1.435  13.693  20.711  0.00  0.00    +0.000 N 
ATOM     27  C   UNL     1      -0.861  13.617  19.455  0.00  0.00    +0.000 C 
ATOM     28  O   UNL     1      -0.632  14.628  18.794  0.00  0.00    +0.000 OA
ATOM     29  H   UNL     1      -1.325  12.908  21.336  0.00  0.00    +0.000 HD
BRANCH  26  30
ATOM     30  C   UNL     1      -1.759  14.981  21.296  0.00  0.00    +0.000 C 
BRANCH  30  31
ATOM     31  C   UNL     1      -3.273  15.227  21.489  0.00  0.00    +0.000 C 
BRANCH  31  32
ATOM     32  N   UNL     1      -3.846  14.826  22.797  0.00  0.00    +0.000 NA
BRANCH  32  34
ATOM     33  C   UNL     1      -4.543  16.475  24.587  0.00  0.00    +0.000 C 
ATOM     34  C   UNL     1      -4.853  15.797  23.257  0.00  0.00    +0.000 C 
ENDBRANCH  32  34
BRANCH  32  35
ATOM     35  C   UNL     1      -4.352  13.435  22.746  0.00  0.00    +0.000 C 
ATOM     36  C   UNL     1      -4.925  12.951  21.412  0.00  0.00    +0.000 C 
ENDBRANCH  32  35
ENDBRANCH  31  32
ENDBRANCH  30  31
ENDBRANCH  26  30
ENDBRANCH   1  27
TORSDOF 10
ENDMDL
