MODEL 1
REMARK VINA RESULT:      -8.9      0.000      0.000
REMARK  Name = 
REMARK  6 active torsions:
REMARK  status: ('A' for Active; 'I' for Inactive)
REMARK    1  A    between atoms: C_2  and  C_3
REMARK    2  A    between atoms: C_3  and  N_4
REMARK    3  A    between atoms: N_15  and  C_16
REMARK    4  A    between atoms: N_15  and  C_23
REMARK    5  A    between atoms: C_16  and  C_17
REMARK    6  A    between atoms: C_23  and  C_24
REMARK                            x       y       z     vdW  Elec       q    Type
REMARK                         _______ _______ _______ _____ _____    ______ ____
ROOT
ATOM      1  O   UNL     1       1.788   8.096  20.021  0.00  0.00    +0.000 OA
ATOM      2  C   UNL     1       2.134   8.042  18.831  0.00  0.00    +0.000 C 
ATOM      3  N   UNL     1       3.170   7.204  18.428  0.00  0.00    +0.000 N 
ENDROOT
BRANCH   2   4
ATOM      4  C   UNL     1       1.497   9.054  17.829  0.00  0.00    +0.000 C 
BRANCH   4   5
ATOM      5  N   UNL     1       0.855  10.311  18.265  0.00  0.00    +0.000 N 
ATOM      6  C   UNL     1       1.591  11.458  18.502  0.00  0.00    +0.000 C 
ATOM      7  O   UNL     1       2.765  11.603  18.180  0.00  0.00    +0.000 OA
ATOM      8  C   UNL     1       0.900  12.551  19.300  0.00  0.00    +0.000 C 
ATOM      9  O   UNL     1      -0.462  12.463  19.633  0.00  0.00    +0.000 OA
ATOM     10  C   UNL     1      -1.152  11.565  18.872  0.00  0.00    +0.000 A 
ATOM     11  C   UNL     1      -2.525  11.797  18.808  0.00  0.00    +0.000 A 
ATOM     12  C   UNL     1      -3.338  10.950  18.064  0.00  0.00    +0.000 A 
ATOM     13  C   UNL     1      -2.776   9.851  17.421  0.00  0.00    +0.000 A 
ATOM     14  C   UNL     1      -1.402   9.593  17.520  0.00  0.00    +0.000 A 
ATOM     15  C   UNL     1      -0.565  10.462  18.232  0.00  0.00    +0.000 A 
ENDBRANCH   4   5
ENDBRANCH   2   4
BRANCH   3  16
ATOM     16  C   UNL     1       3.811   7.274  17.117  0.00  0.00    +0.000 C 
BRANCH  16  17
ATOM     17  C   UNL     1       4.969   6.353  16.850  0.00  0.00    +0.000 A 
ATOM     18  C   UNL     1       4.853   5.046  16.375  0.00  0.00    +0.000 A 
ATOM     19  C   UNL     1       5.992   4.244  16.289  0.00  0.00    +0.000 A 
ATOM     20  C   UNL     1       7.209   4.770  16.694  0.00  0.00    +0.000 A 
ATOM     21  N   UNL     1       7.360   6.021  17.169  0.00  0.00    +0.000 NA
ATOM     22  C   UNL     1       6.242   6.776  17.239  0.00  0.00    +0.000 A 
ENDBRANCH  16  17
ENDBRANCH   3  16
BRANCH   3  23
ATOM     23  C   UNL     1       3.569   6.109  19.323  0.00  0.00    +0.000 C 
BRANCH  23  24
ATOM     24  C   UNL     1       2.621   4.923  19.420  0.00  0.00    +0.000 A 
ATOM     25  C   UNL     1       2.032   4.401  18.254  0.00  0.00    +0.000 A 
ATOM     26  C   UNL     1       1.095   3.363  18.312  0.00  0.00    +0.000 A 
ATOM     27  C   UNL     1       0.744   2.812  19.542  0.00  0.00    +0.000 A 
ATOM     28  C   UNL     1       1.328   3.309  20.697  0.00  0.00    +0.000 A 
ATOM     29  F   UNL     1       0.997   2.772  21.880  0.00  0.00    +0.000 F 
ATOM     30  C   UNL     1       2.242   4.362  20.649  0.00  0.00    +0.000 A 
ENDBRANCH  23  24
ENDBRANCH   3  23
TORSDOF 6
ENDMDL
MODEL 2
REMARK VINA RESULT:      -8.7      1.102      1.525
REMARK  Name = 
REMARK  6 active torsions:
REMARK  status: ('A' for Active; 'I' for Inactive)
REMARK    1  A    between atoms: C_2  and  C_3
REMARK    2  A    between atoms: C_3  and  N_4
REMARK    3  A    between atoms: N_15  and  C_16
REMARK    4  A    between atoms: N_15  and  C_23
REMARK    5  A    between atoms: C_16  and  C_17
REMARK    6  A    between atoms: C_23  and  C_24
REMARK                            x       y       z     vdW  Elec       q    Type
REMARK                         _______ _______ _______ _____ _____    ______ ____
ROOT
ATOM      1  O   UNL     1       1.609   8.293  20.122  0.00  0.00    +0.000 OA
ATOM      2  C   UNL     1       1.950   8.226  18.932  0.00  0.00    +0.000 C 
ATOM      3  N   UNL     1       2.952   7.348  18.526  0.00  0.00    +0.000 N 
ENDROOT
BRANCH   2   4
ATOM      4  C   UNL     1       1.352   9.263  17.931  0.00  0.00    +0.000 C 
BRANCH   4   5
ATOM      5  N   UNL     1       0.616  10.465  18.375  0.00  0.00    +0.000 N 
ATOM      6  C   UNL     1       1.273  11.634  18.713  0.00  0.00    +0.000 C 
ATOM      7  O   UNL     1       2.457  11.851  18.484  0.00  0.00    +0.000 OA
ATOM      8  C   UNL     1       0.472  12.654  19.507  0.00  0.00    +0.000 C 
ATOM      9  O   UNL     1      -0.904  12.483  19.735  0.00  0.00    +0.000 OA
ATOM     10  C   UNL     1      -1.491  11.590  18.888  0.00  0.00    +0.000 A 
ATOM     11  C   UNL     1      -2.867  11.756  18.736  0.00  0.00    +0.000 A 
ATOM     12  C   UNL     1      -3.580  10.907  17.899  0.00  0.00    +0.000 A 
ATOM     13  C   UNL     1      -2.918   9.868  17.251  0.00  0.00    +0.000 A 
ATOM     14  C   UNL     1      -1.542   9.673  17.438  0.00  0.00    +0.000 A 
ATOM     15  C   UNL     1      -0.804  10.547  18.246  0.00  0.00    +0.000 A 
ENDBRANCH   4   5
ENDBRANCH   2   4
BRANCH   3  16
ATOM     16  C   UNL     1       3.593   7.393  17.214  0.00  0.00    +0.000 C 
BRANCH  16  17
ATOM     17  C   UNL     1       4.904   6.677  17.045  0.00  0.00    +0.000 A 
ATOM     18  C   UNL     1       6.135   7.155  17.495  0.00  0.00    +0.000 A 
ATOM     19  C   UNL     1       7.301   6.463  17.166  0.00  0.00    +0.000 A 
ATOM     20  C   UNL     1       7.200   5.323  16.384  0.00  0.00    +0.000 A 
ATOM     21  N   UNL     1       6.033   4.836  15.921  0.00  0.00    +0.000 NA
ATOM     22  C   UNL     1       4.921   5.524  16.256  0.00  0.00    +0.000 A 
ENDBRANCH  16  17
ENDBRANCH   3  16
BRANCH   3  23
ATOM     23  C   UNL     1       3.310   6.238  19.420  0.00  0.00    +0.000 C 
BRANCH  23  24
ATOM     24  C   UNL     1       2.471   4.973  19.310  0.00  0.00    +0.000 A 
ATOM     25  C   UNL     1       1.475   4.708  20.269  0.00  0.00    +0.000 A 
ATOM     26  C   UNL     1       0.738   3.519  20.246  0.00  0.00    +0.000 A 
ATOM     27  C   UNL     1       0.970   2.577  19.246  0.00  0.00    +0.000 A 
ATOM     28  C   UNL     1       1.939   2.834  18.288  0.00  0.00    +0.000 A 
ATOM     29  F   UNL     1       2.156   1.931  17.320  0.00  0.00    +0.000 F 
ATOM     30  C   UNL     1       2.697   4.004  18.322  0.00  0.00    +0.000 A 
ENDBRANCH  23  24
ENDBRANCH   3  23
TORSDOF 6
ENDMDL
MODEL 3
REMARK VINA RESULT:      -8.5      0.769      1.167
REMARK  Name = 
REMARK  6 active torsions:
REMARK  status: ('A' for Active; 'I' for Inactive)
REMARK    1  A    between atoms: C_2  and  C_3
REMARK    2  A    between atoms: C_3  and  N_4
REMARK    3  A    between atoms: N_15  and  C_16
REMARK    4  A    between atoms: N_15  and  C_23
REMARK    5  A    between atoms: C_16  and  C_17
REMARK    6  A    between atoms: C_23  and  C_24
REMARK                            x       y       z     vdW  Elec       q    Type
REMARK                         _______ _______ _______ _____ _____    ______ ____
ROOT
ATOM      1  O   UNL     1       1.878   8.237  20.130  0.00  0.00    +0.000 OA
ATOM      2  C   UNL     1       2.087   8.090  18.917  0.00  0.00    +0.000 C 
ATOM      3  N   UNL     1       3.075   7.219  18.465  0.00  0.00    +0.000 N 
ENDROOT
BRANCH   2   4
ATOM      4  C   UNL     1       1.335   9.024  17.918  0.00  0.00    +0.000 C 
BRANCH   4   5
ATOM      5  N   UNL     1       0.683  10.281  18.340  0.00  0.00    +0.000 N 
ATOM      6  C   UNL     1       1.416  11.418  18.627  0.00  0.00    +0.000 C 
ATOM      7  O   UNL     1       2.605  11.557  18.364  0.00  0.00    +0.000 OA
ATOM      8  C   UNL     1       0.696  12.508  19.405  0.00  0.00    +0.000 C 
ATOM      9  O   UNL     1      -0.682  12.427  19.669  0.00  0.00    +0.000 OA
ATOM     10  C   UNL     1      -1.340  11.545  18.864  0.00  0.00    +0.000 A 
ATOM     11  C   UNL     1      -2.708  11.789  18.737  0.00  0.00    +0.000 A 
ATOM     12  C   UNL     1      -3.489  10.959  17.943  0.00  0.00    +0.000 A 
ATOM     13  C   UNL     1      -2.906   9.863  17.314  0.00  0.00    +0.000 A 
ATOM     14  C   UNL     1      -1.540   9.592  17.476  0.00  0.00    +0.000 A 
ATOM     15  C   UNL     1      -0.732  10.444  18.240  0.00  0.00    +0.000 A 
ENDBRANCH   4   5
ENDBRANCH   2   4
BRANCH   3  16
ATOM     16  C   UNL     1       3.563   7.185  17.088  0.00  0.00    +0.000 C 
BRANCH  16  17
ATOM     17  C   UNL     1       4.761   6.328  16.787  0.00  0.00    +0.000 A 
ATOM     18  C   UNL     1       4.714   4.957  16.530  0.00  0.00    +0.000 A 
ATOM     19  C   UNL     1       5.905   4.245  16.391  0.00  0.00    +0.000 A 
ATOM     20  C   UNL     1       7.106   4.923  16.529  0.00  0.00    +0.000 A 
ATOM     21  N   UNL     1       7.194   6.242  16.788  0.00  0.00    +0.000 NA
ATOM     22  C   UNL     1       6.026   6.907  16.915  0.00  0.00    +0.000 A 
ENDBRANCH  16  17
ENDBRANCH   3  16
BRANCH   3  23
ATOM     23  C   UNL     1       3.578   6.195  19.391  0.00  0.00    +0.000 C 
BRANCH  23  24
ATOM     24  C   UNL     1       2.630   5.057  19.734  0.00  0.00    +0.000 A 
ATOM     25  C   UNL     1       2.450   4.676  21.077  0.00  0.00    +0.000 A 
ATOM     26  C   UNL     1       1.647   3.583  21.423  0.00  0.00    +0.000 A 
ATOM     27  C   UNL     1       0.990   2.860  20.430  0.00  0.00    +0.000 A 
ATOM     28  C   UNL     1       1.149   3.235  19.104  0.00  0.00    +0.000 A 
ATOM     29  F   UNL     1       0.509   2.545  18.149  0.00  0.00    +0.000 F 
ATOM     30  C   UNL     1       1.970   4.306  18.750  0.00  0.00    +0.000 A 
ENDBRANCH  23  24
ENDBRANCH   3  23
TORSDOF 6
ENDMDL
MODEL 4
REMARK VINA RESULT:      -8.1      1.010      1.163
REMARK  Name = 
REMARK  6 active torsions:
REMARK  status: ('A' for Active; 'I' for Inactive)
REMARK    1  A    between atoms: C_2  and  C_3
REMARK    2  A    between atoms: C_3  and  N_4
REMARK    3  A    between atoms: N_15  and  C_16
REMARK    4  A    between atoms: N_15  and  C_23
REMARK    5  A    between atoms: C_16  and  C_17
REMARK    6  A    between atoms: C_23  and  C_24
REMARK                            x       y       z     vdW  Elec       q    Type
REMARK                         _______ _______ _______ _____ _____    ______ ____
ROOT
ATOM      1  O   UNL     1       1.928   8.004  20.034  0.00  0.00    +0.000 OA
ATOM      2  C   UNL     1       2.196   7.900  18.828  0.00  0.00    +0.000 C 
ATOM      3  N   UNL     1       3.240   7.083  18.399  0.00  0.00    +0.000 N 
ENDROOT
BRANCH   2   4
ATOM      4  C   UNL     1       1.451   8.829  17.821  0.00  0.00    +0.000 C 
BRANCH   4   5
ATOM      5  N   UNL     1       0.883  10.136  18.212  0.00  0.00    +0.000 N 
ATOM      6  C   UNL     1       1.683  11.250  18.388  0.00  0.00    +0.000 C 
ATOM      7  O   UNL     1       2.857  11.319  18.044  0.00  0.00    +0.000 OA
ATOM      8  C   UNL     1       1.064  12.412  19.149  0.00  0.00    +0.000 C 
ATOM      9  O   UNL     1      -0.296  12.410  19.504  0.00  0.00    +0.000 OA
ATOM     10  C   UNL     1      -1.044  11.520  18.792  0.00  0.00    +0.000 A 
ATOM     11  C   UNL     1      -2.405  11.821  18.738  0.00  0.00    +0.000 A 
ATOM     12  C   UNL     1      -3.272  10.989  18.043  0.00  0.00    +0.000 A 
ATOM     13  C   UNL     1      -2.780   9.835  17.440  0.00  0.00    +0.000 A 
ATOM     14  C   UNL     1      -1.420   9.509  17.530  0.00  0.00    +0.000 A 
ATOM     15  C   UNL     1      -0.527  10.360  18.193  0.00  0.00    +0.000 A 
ENDBRANCH   4   5
ENDBRANCH   2   4
BRANCH   3  16
ATOM     16  C   UNL     1       3.789   7.108  17.045  0.00  0.00    +0.000 C 
BRANCH  16  17
ATOM     17  C   UNL     1       4.994   6.254  16.759  0.00  0.00    +0.000 A 
ATOM     18  C   UNL     1       4.960   5.027  16.097  0.00  0.00    +0.000 A 
ATOM     19  C   UNL     1       6.125   4.266  16.004  0.00  0.00    +0.000 A 
ATOM     20  C   UNL     1       7.285   4.749  16.589  0.00  0.00    +0.000 A 
ATOM     21  N   UNL     1       7.356   5.923  17.247  0.00  0.00    +0.000 NA
ATOM     22  C   UNL     1       6.214   6.640  17.319  0.00  0.00    +0.000 A 
ENDBRANCH  16  17
ENDBRANCH   3  16
BRANCH   3  23
ATOM     23  C   UNL     1       3.745   6.056  19.320  0.00  0.00    +0.000 C 
BRANCH  23  24
ATOM     24  C   UNL     1       3.222   4.641  19.121  0.00  0.00    +0.000 A 
ATOM     25  C   UNL     1       4.116   3.555  19.146  0.00  0.00    +0.000 A 
ATOM     26  C   UNL     1       3.684   2.248  18.890  0.00  0.00    +0.000 A 
ATOM     27  C   UNL     1       2.339   2.001  18.621  0.00  0.00    +0.000 A 
ATOM     28  C   UNL     1       1.447   3.063  18.607  0.00  0.00    +0.000 A 
ATOM     29  F   UNL     1       0.151   2.824  18.358  0.00  0.00    +0.000 F 
ATOM     30  C   UNL     1       1.876   4.371  18.835  0.00  0.00    +0.000 A 
ENDBRANCH  23  24
ENDBRANCH   3  23
TORSDOF 6
ENDMDL
MODEL 5
REMARK VINA RESULT:      -8.0      2.953      8.002
REMARK  Name = 
REMARK  6 active torsions:
REMARK  status: ('A' for Active; 'I' for Inactive)
REMARK    1  A    between atoms: C_2  and  C_3
REMARK    2  A    between atoms: C_3  and  N_4
REMARK    3  A    between atoms: N_15  and  C_16
REMARK    4  A    between atoms: N_15  and  C_23
REMARK    5  A    between atoms: C_16  and  C_17
REMARK    6  A    between atoms: C_23  and  C_24
REMARK                            x       y       z     vdW  Elec       q    Type
REMARK                         _______ _______ _______ _____ _____    ______ ____
ROOT
ATOM      1  O   UNL     1       2.389   8.963  17.420  0.00  0.00    +0.000 OA
ATOM      2  C   UNL     1       1.877   8.733  18.525  0.00  0.00    +0.000 C 
ATOM      3  N   UNL     1       1.017   9.655  19.117  0.00  0.00    +0.000 N 
ENDROOT
BRANCH   2   4
ATOM      4  C   UNL     1       2.346   7.470  19.310  0.00  0.00    +0.000 C 
BRANCH   4   5
ATOM      5  N   UNL     1       2.783   6.229  18.636  0.00  0.00    +0.000 N 
ATOM      6  C   UNL     1       3.935   6.186  17.872  0.00  0.00    +0.000 C 
ATOM      7  O   UNL     1       4.785   7.068  17.854  0.00  0.00    +0.000 OA
ATOM      8  C   UNL     1       4.078   5.000  16.932  0.00  0.00    +0.000 C 
ATOM      9  O   UNL     1       3.168   3.929  16.964  0.00  0.00    +0.000 OA
ATOM     10  C   UNL     1       2.439   3.868  18.115  0.00  0.00    +0.000 A 
ATOM     11  C   UNL     1       1.923   2.605  18.405  0.00  0.00    +0.000 A 
ATOM     12  C   UNL     1       1.161   2.414  19.551  0.00  0.00    +0.000 A 
ATOM     13  C   UNL     1       0.885   3.498  20.379  0.00  0.00    +0.000 A 
ATOM     14  C   UNL     1       1.367   4.776  20.065  0.00  0.00    +0.000 A 
ATOM     15  C   UNL     1       2.170   4.975  18.935  0.00  0.00    +0.000 A 
ENDBRANCH   4   5
ENDBRANCH   2   4
BRANCH   3  16
ATOM     16  C   UNL     1       0.587   9.589  20.511  0.00  0.00    +0.000 C 
BRANCH  16  17
ATOM     17  C   UNL     1       0.315  10.884  21.227  0.00  0.00    +0.000 A 
ATOM     18  C   UNL     1      -0.767  11.110  22.077  0.00  0.00    +0.000 A 
ATOM     19  C   UNL     1      -0.987  12.392  22.582  0.00  0.00    +0.000 A 
ATOM     20  C   UNL     1      -0.126  13.412  22.206  0.00  0.00    +0.000 A 
ATOM     21  N   UNL     1       0.922  13.237  21.378  0.00  0.00    +0.000 NA
ATOM     22  C   UNL     1       1.112  11.985  20.907  0.00  0.00    +0.000 A 
ENDBRANCH  16  17
ENDBRANCH   3  16
BRANCH   3  23
ATOM     23  C   UNL     1       0.413  10.690  18.267  0.00  0.00    +0.000 C 
BRANCH  23  24
ATOM     24  C   UNL     1      -1.097  10.632  18.086  0.00  0.00    +0.000 A 
ATOM     25  C   UNL     1      -1.662   9.681  17.216  0.00  0.00    +0.000 A 
ATOM     26  C   UNL     1      -3.038   9.650  16.965  0.00  0.00    +0.000 A 
ATOM     27  C   UNL     1      -3.882  10.560  17.598  0.00  0.00    +0.000 A 
ATOM     28  C   UNL     1      -3.337  11.493  18.468  0.00  0.00    +0.000 A 
ATOM     29  F   UNL     1      -4.151  12.363  19.085  0.00  0.00    +0.000 F 
ATOM     30  C   UNL     1      -1.963  11.548  18.702  0.00  0.00    +0.000 A 
ENDBRANCH  23  24
ENDBRANCH   3  23
TORSDOF 6
ENDMDL
MODEL 6
REMARK VINA RESULT:      -8.0      2.400      4.323
REMARK  Name = 
REMARK  6 active torsions:
REMARK  status: ('A' for Active; 'I' for Inactive)
REMARK    1  A    between atoms: C_2  and  C_3
REMARK    2  A    between atoms: C_3  and  N_4
REMARK    3  A    between atoms: N_15  and  C_16
REMARK    4  A    between atoms: N_15  and  C_23
REMARK    5  A    between atoms: C_16  and  C_17
REMARK    6  A    between atoms: C_23  and  C_24
REMARK                            x       y       z     vdW  Elec       q    Type
REMARK                         _______ _______ _______ _____ _____    ______ ____
ROOT
ATOM      1  O   UNL     1       2.219   8.677  17.117  0.00  0.00    +0.000 OA
ATOM      2  C   UNL     1       2.147   8.388  18.321  0.00  0.00    +0.000 C 
ATOM      3  N   UNL     1       2.439   7.100  18.763  0.00  0.00    +0.000 N 
ENDROOT
BRANCH   2   4
ATOM      4  C   UNL     1       1.562   9.450  19.303  0.00  0.00    +0.000 C 
BRANCH   4   5
ATOM      5  N   UNL     1       0.913  10.694  18.838  0.00  0.00    +0.000 N 
ATOM      6  C   UNL     1       1.652  11.801  18.464  0.00  0.00    +0.000 C 
ATOM      7  O   UNL     1       2.863  11.793  18.281  0.00  0.00    +0.000 OA
ATOM      8  C   UNL     1       0.898  13.119  18.379  0.00  0.00    +0.000 C 
ATOM      9  O   UNL     1      -0.500  13.169  18.512  0.00  0.00    +0.000 OA
ATOM     10  C   UNL     1      -1.110  11.964  18.326  0.00  0.00    +0.000 A 
ATOM     11  C   UNL     1      -2.451  12.045  17.954  0.00  0.00    +0.000 A 
ATOM     12  C   UNL     1      -3.183  10.885  17.736  0.00  0.00    +0.000 A 
ATOM     13  C   UNL     1      -2.578   9.646  17.933  0.00  0.00    +0.000 A 
ATOM     14  C   UNL     1      -1.242   9.563  18.348  0.00  0.00    +0.000 A 
ATOM     15  C   UNL     1      -0.481  10.725  18.532  0.00  0.00    +0.000 A 
ENDBRANCH   4   5
ENDBRANCH   2   4
BRANCH   3  16
ATOM     16  C   UNL     1       2.127   6.609  20.103  0.00  0.00    +0.000 C 
BRANCH  16  17
ATOM     17  C   UNL     1       1.919   5.130  20.280  0.00  0.00    +0.000 A 
ATOM     18  C   UNL     1       1.130   4.333  19.450  0.00  0.00    +0.000 A 
ATOM     19  C   UNL     1       0.909   2.998  19.790  0.00  0.00    +0.000 A 
ATOM     20  C   UNL     1       1.470   2.507  20.959  0.00  0.00    +0.000 A 
ATOM     21  N   UNL     1       2.227   3.247  21.792  0.00  0.00    +0.000 NA
ATOM     22  C   UNL     1       2.427   4.534  21.437  0.00  0.00    +0.000 A 
ENDBRANCH  16  17
ENDBRANCH   3  16
BRANCH   3  23
ATOM     23  C   UNL     1       3.208   6.217  17.876  0.00  0.00    +0.000 C 
BRANCH  23  24
ATOM     24  C   UNL     1       4.716   6.186  18.080  0.00  0.00    +0.000 A 
ATOM     25  C   UNL     1       5.274   5.335  19.052  0.00  0.00    +0.000 A 
ATOM     26  C   UNL     1       6.647   5.337  19.321  0.00  0.00    +0.000 A 
ATOM     27  C   UNL     1       7.494   6.181  18.605  0.00  0.00    +0.000 A 
ATOM     28  C   UNL     1       6.957   7.013  17.635  0.00  0.00    +0.000 A 
ATOM     29  F   UNL     1       7.774   7.818  16.940  0.00  0.00    +0.000 F 
ATOM     30  C   UNL     1       5.586   7.036  17.381  0.00  0.00    +0.000 A 
ENDBRANCH  23  24
ENDBRANCH   3  23
TORSDOF 6
ENDMDL
MODEL 7
REMARK VINA RESULT:      -8.0      2.397      2.765
REMARK  Name = 
REMARK  6 active torsions:
REMARK  status: ('A' for Active; 'I' for Inactive)
REMARK    1  A    between atoms: C_2  and  C_3
REMARK    2  A    between atoms: C_3  and  N_4
REMARK    3  A    between atoms: N_15  and  C_16
REMARK    4  A    between atoms: N_15  and  C_23
REMARK    5  A    between atoms: C_16  and  C_17
REMARK    6  A    between atoms: C_23  and  C_24
REMARK                            x       y       z     vdW  Elec       q    Type
REMARK                         _______ _______ _______ _____ _____    ______ ____
ROOT
ATOM      1  O   UNL     1       1.143   6.102  20.514  0.00  0.00    +0.000 OA
ATOM      2  C   UNL     1       1.842   6.772  19.740  0.00  0.00    +0.000 C 
ATOM      3  N   UNL     1       2.429   6.185  18.622  0.00  0.00    +0.000 N 
ENDROOT
BRANCH   2   4
ATOM      4  C   UNL     1       2.186   8.241  20.137  0.00  0.00    +0.000 C 
BRANCH   4   5
ATOM      5  N   UNL     1       1.228   9.355  19.978  0.00  0.00    +0.000 N 
ATOM      6  C   UNL     1       0.843   9.808  18.729  0.00  0.00    +0.000 C 
ATOM      7  O   UNL     1       1.077   9.221  17.679  0.00  0.00    +0.000 OA
ATOM      8  C   UNL     1       0.176  11.173  18.682  0.00  0.00    +0.000 C 
ATOM      9  O   UNL     1      -0.176  11.855  19.859  0.00  0.00    +0.000 OA
ATOM     10  C   UNL     1      -0.231  11.050  20.959  0.00  0.00    +0.000 A 
ATOM     11  C   UNL     1      -1.031  11.538  21.992  0.00  0.00    +0.000 A 
ATOM     12  C   UNL     1      -1.168  10.810  23.167  0.00  0.00    +0.000 A 
ATOM     13  C   UNL     1      -0.469   9.615  23.318  0.00  0.00    +0.000 A 
ATOM     14  C   UNL     1       0.368   9.145  22.297  0.00  0.00    +0.000 A 
ATOM     15  C   UNL     1       0.483   9.849  21.091  0.00  0.00    +0.000 A 
ENDBRANCH   4   5
ENDBRANCH   2   4
BRANCH   3  16
ATOM     16  C   UNL     1       3.468   6.824  17.818  0.00  0.00    +0.000 C 
BRANCH  16  17
ATOM     17  C   UNL     1       4.749   6.069  17.594  0.00  0.00    +0.000 A 
ATOM     18  C   UNL     1       5.137   5.502  16.380  0.00  0.00    +0.000 A 
ATOM     19  C   UNL     1       6.287   4.714  16.328  0.00  0.00    +0.000 A 
ATOM     20  C   UNL     1       7.006   4.506  17.495  0.00  0.00    +0.000 A 
ATOM     21  N   UNL     1       6.658   5.026  18.688  0.00  0.00    +0.000 NA
ATOM     22  C   UNL     1       5.542   5.786  18.709  0.00  0.00    +0.000 A 
ENDBRANCH  16  17
ENDBRANCH   3  16
BRANCH   3  23
ATOM     23  C   UNL     1       1.897   4.899  18.149  0.00  0.00    +0.000 C 
BRANCH  23  24
ATOM     24  C   UNL     1       2.715   3.659  18.476  0.00  0.00    +0.000 A 
ATOM     25  C   UNL     1       2.949   2.693  17.480  0.00  0.00    +0.000 A 
ATOM     26  C   UNL     1       3.630   1.503  17.764  0.00  0.00    +0.000 A 
ATOM     27  C   UNL     1       4.108   1.266  19.050  0.00  0.00    +0.000 A 
ATOM     28  C   UNL     1       3.894   2.217  20.037  0.00  0.00    +0.000 A 
ATOM     29  F   UNL     1       4.363   1.992  21.273  0.00  0.00    +0.000 F 
ATOM     30  C   UNL     1       3.193   3.392  19.767  0.00  0.00    +0.000 A 
ENDBRANCH  23  24
ENDBRANCH   3  23
TORSDOF 6
ENDMDL
MODEL 8
REMARK VINA RESULT:      -7.9      2.642      4.279
REMARK  Name = 
REMARK  6 active torsions:
REMARK  status: ('A' for Active; 'I' for Inactive)
REMARK    1  A    between atoms: C_2  and  C_3
REMARK    2  A    between atoms: C_3  and  N_4
REMARK    3  A    between atoms: N_15  and  C_16
REMARK    4  A    between atoms: N_15  and  C_23
REMARK    5  A    between atoms: C_16  and  C_17
REMARK    6  A    between atoms: C_23  and  C_24
REMARK                            x       y       z     vdW  Elec       q    Type
REMARK                         _______ _______ _______ _____ _____    ______ ____
ROOT
ATOM      1  O   UNL     1       2.378   9.043  17.090  0.00  0.00    +0.000 OA
ATOM      2  C   UNL     1       2.312   8.295  18.076  0.00  0.00    +0.000 C 
ATOM      3  N   UNL     1       3.355   7.423  18.379  0.00  0.00    +0.000 N 
ENDROOT
BRANCH   2   4
ATOM      4  C   UNL     1       0.970   8.232  18.869  0.00  0.00    +0.000 C 
BRANCH   4   5
ATOM      5  N   UNL     1       0.196   9.440  19.224  0.00  0.00    +0.000 N 
ATOM      6  C   UNL     1      -0.541  10.132  18.280  0.00  0.00    +0.000 C 
ATOM      7  O   UNL     1      -0.792   9.712  17.157  0.00  0.00    +0.000 OA
ATOM      8  C   UNL     1      -0.969  11.541  18.658  0.00  0.00    +0.000 C 
ATOM      9  O   UNL     1      -0.766  12.042  19.955  0.00  0.00    +0.000 OA
ATOM     10  C   UNL     1      -0.540  11.071  20.886  0.00  0.00    +0.000 A 
ATOM     11  C   UNL     1      -0.831  11.448  22.197  0.00  0.00    +0.000 A 
ATOM     12  C   UNL     1      -0.641  10.546  23.236  0.00  0.00    +0.000 A 
ATOM     13  C   UNL     1      -0.122   9.284  22.962  0.00  0.00    +0.000 A 
ATOM     14  C   UNL     1       0.211   8.919  21.651  0.00  0.00    +0.000 A 
ATOM     15  C   UNL     1      -0.013   9.804  20.588  0.00  0.00    +0.000 A 
ENDBRANCH   4   5
ENDBRANCH   2   4
BRANCH   3  16
ATOM     16  C   UNL     1       3.251   6.335  19.348  0.00  0.00    +0.000 C 
BRANCH  16  17
ATOM     17  C   UNL     1       3.013   4.945  18.823  0.00  0.00    +0.000 A 
ATOM     18  C   UNL     1       3.846   3.852  19.061  0.00  0.00    +0.000 A 
ATOM     19  C   UNL     1       3.591   2.642  18.415  0.00  0.00    +0.000 A 
ATOM     20  C   UNL     1       2.519   2.569  17.538  0.00  0.00    +0.000 A 
ATOM     21  N   UNL     1       1.700   3.604  17.273  0.00  0.00    +0.000 NA
ATOM     22  C   UNL     1       1.968   4.762  17.914  0.00  0.00    +0.000 A 
ENDBRANCH  16  17
ENDBRANCH   3  16
BRANCH   3  23
ATOM     23  C   UNL     1       4.673   7.677  17.780  0.00  0.00    +0.000 C 
BRANCH  23  24
ATOM     24  C   UNL     1       5.383   6.485  17.156  0.00  0.00    +0.000 A 
ATOM     25  C   UNL     1       4.877   5.907  15.977  0.00  0.00    +0.000 A 
ATOM     26  C   UNL     1       5.458   4.762  15.419  0.00  0.00    +0.000 A 
ATOM     27  C   UNL     1       6.573   4.183  16.023  0.00  0.00    +0.000 A 
ATOM     28  C   UNL     1       7.087   4.753  17.178  0.00  0.00    +0.000 A 
ATOM     29  F   UNL     1       8.166   4.201  17.752  0.00  0.00    +0.000 F 
ATOM     30  C   UNL     1       6.497   5.877  17.754  0.00  0.00    +0.000 A 
ENDBRANCH  23  24
ENDBRANCH   3  23
TORSDOF 6
ENDMDL
MODEL 9
REMARK VINA RESULT:      -7.9      3.012      4.885
REMARK  Name = 
REMARK  6 active torsions:
REMARK  status: ('A' for Active; 'I' for Inactive)
REMARK    1  A    between atoms: C_2  and  C_3
REMARK    2  A    between atoms: C_3  and  N_4
REMARK    3  A    between atoms: N_15  and  C_16
REMARK    4  A    between atoms: N_15  and  C_23
REMARK    5  A    between atoms: C_16  and  C_17
REMARK    6  A    between atoms: C_23  and  C_24
REMARK                            x       y       z     vdW  Elec       q    Type
REMARK                         _______ _______ _______ _____ _____    ______ ____
ROOT
ATOM      1  O   UNL     1       3.586   8.255  18.047  0.00  0.00    +0.000 OA
ATOM      2  C   UNL     1       2.857   7.364  18.507  0.00  0.00    +0.000 C 
ATOM      3  N   UNL     1       2.858   6.086  17.952  0.00  0.00    +0.000 N 
ENDROOT
BRANCH   2   4
ATOM      4  C   UNL     1       1.822   7.749  19.608  0.00  0.00    +0.000 C 
BRANCH   4   5
ATOM      5  N   UNL     1       1.130   9.055  19.630  0.00  0.00    +0.000 N 
ATOM      6  C   UNL     1       0.788   9.714  18.463  0.00  0.00    +0.000 C 
ATOM      7  O   UNL     1       0.824   9.207  17.348  0.00  0.00    +0.000 OA
ATOM      8  C   UNL     1       0.441  11.188  18.597  0.00  0.00    +0.000 C 
ATOM      9  O   UNL     1       0.319  11.798  19.857  0.00  0.00    +0.000 OA
ATOM     10  C   UNL     1       0.146  10.910  20.877  0.00  0.00    +0.000 A 
ATOM     11  C   UNL     1      -0.464  11.445  22.011  0.00  0.00    +0.000 A 
ATOM     12  C   UNL     1      -0.695  10.640  23.120  0.00  0.00    +0.000 A 
ATOM     13  C   UNL     1      -0.274   9.313  23.103  0.00  0.00    +0.000 A 
ATOM     14  C   UNL     1       0.378   8.787  21.980  0.00  0.00    +0.000 A 
ATOM     15  C   UNL     1       0.579   9.575  20.840  0.00  0.00    +0.000 A 
ENDBRANCH   4   5
ENDBRANCH   2   4
BRANCH   3  16
ATOM     16  C   UNL     1       1.855   5.068  18.252  0.00  0.00    +0.000 C 
BRANCH  16  17
ATOM     17  C   UNL     1       2.122   4.132  19.399  0.00  0.00    +0.000 A 
ATOM     18  C   UNL     1       1.600   4.281  20.684  0.00  0.00    +0.000 A 
ATOM     19  C   UNL     1       2.023   3.421  21.699  0.00  0.00    +0.000 A 
ATOM     20  C   UNL     1       2.966   2.450  21.400  0.00  0.00    +0.000 A 
ATOM     21  N   UNL     1       3.502   2.282  20.175  0.00  0.00    +0.000 NA
ATOM     22  C   UNL     1       3.073   3.126  19.212  0.00  0.00    +0.000 A 
ENDBRANCH  16  17
ENDBRANCH   3  16
BRANCH   3  23
ATOM     23  C   UNL     1       3.994   5.695  17.106  0.00  0.00    +0.000 C 
BRANCH  23  24
ATOM     24  C   UNL     1       5.385   5.949  17.666  0.00  0.00    +0.000 A 
ATOM     25  C   UNL     1       5.819   5.247  18.806  0.00  0.00    +0.000 A 
ATOM     26  C   UNL     1       7.061   5.511  19.395  0.00  0.00    +0.000 A 
ATOM     27  C   UNL     1       7.904   6.472  18.840  0.00  0.00    +0.000 A 
ATOM     28  C   UNL     1       7.492   7.159  17.708  0.00  0.00    +0.000 A 
ATOM     29  F   UNL     1       8.308   8.077  17.169  0.00  0.00    +0.000 F 
ATOM     30  C   UNL     1       6.244   6.921  17.133  0.00  0.00    +0.000 A 
ENDBRANCH  23  24
ENDBRANCH   3  23
TORSDOF 6
ENDMDL
