MODEL 1
REMARK VINA RESULT:      -8.0      0.000      0.000
REMARK  Name = 
REMARK  7 active torsions:
REMARK  status: ('A' for Active; 'I' for Inactive)
REMARK    1  A    between atoms: N_1  and  C_2
REMARK    2  A    between atoms: C_2  and  C_3
REMARK    3  A    between atoms: C_3  and  C_4
REMARK    4  A    between atoms: C_4  and  C_5
REMARK    5  A    between atoms: C_5  and  N_6
REMARK    6  A    between atoms: C_19  and  C_20
REMARK    7  A    between atoms: C_24  and  O_25
REMARK                            x       y       z     vdW  Elec       q    Type
REMARK                         _______ _______ _______ _____ _____    ______ ____
ROOT
ATOM      1  N   UNL     1       2.418   7.520  19.749  0.00  0.00    +0.000 NA
ATOM      2  C   UNL     1       1.907   7.600  18.359  0.00  0.00    +0.000 C 
ATOM      3  C   UNL     1       2.915   7.254  17.223  0.00  0.00    +0.000 C 
ATOM      4  C   UNL     1       4.033   6.396  17.699  0.00  0.00    +0.000 A 
ATOM      5  C   UNL     1       4.114   5.991  19.014  0.00  0.00    +0.000 A 
ATOM      6  N   UNL     1       5.253   5.256  19.168  0.00  0.00    +0.000 N 
ATOM      7  C   UNL     1       5.894   5.127  17.955  0.00  0.00    +0.000 A 
ATOM      8  C   UNL     1       7.068   4.443  17.627  0.00  0.00    +0.000 A 
ATOM      9  C   UNL     1       7.469   4.458  16.289  0.00  0.00    +0.000 A 
ATOM     10  C   UNL     1       6.719   5.131  15.326  0.00  0.00    +0.000 A 
ATOM     11 CL   UNL     1       7.231   5.107  13.681  0.00  0.00    +0.000 Cl
ATOM     12  C   UNL     1       5.553   5.823  15.666  0.00  0.00    +0.000 A 
ATOM     13  C   UNL     1       5.134   5.825  17.009  0.00  0.00    +0.000 A 
ATOM     14  C   UNL     1       3.078   6.239  20.076  0.00  0.00    +0.000 C 
ATOM     15  H   UNL     1       5.557   4.822  20.029  0.00  0.00    +0.000 HD
ENDROOT
BRANCH  14  16
ATOM     16  C   UNL     1       2.218   4.978  20.244  0.00  0.00    +0.000 A 
ATOM     17  C   UNL     1       2.212   4.296  21.475  0.00  0.00    +0.000 A 
ATOM     18  C   UNL     1       1.677   3.007  21.583  0.00  0.00    +0.000 A 
ATOM     19  C   UNL     1       1.146   2.370  20.462  0.00  0.00    +0.000 A 
ATOM     20  C   UNL     1       1.112   3.049  19.253  0.00  0.00    +0.000 A 
ATOM     21  C   UNL     1       1.609   4.344  19.145  0.00  0.00    +0.000 A 
BRANCH  20  22
ATOM     22  O   UNL     1       0.647   2.455  18.116  0.00  0.00    +0.000 OA
ATOM     23  H   UNL     1       1.409   2.148  17.600  0.00  0.00    +0.000 HD
ENDBRANCH  20  22
ENDBRANCH  14  16
BRANCH   1  24
ATOM     24  C   UNL     1       1.448   8.056  20.701  0.00  0.00    +0.000 C 
BRANCH  24  25
ATOM     25  C   UNL     1       0.665   9.321  20.327  0.00  0.00    +0.000 C 
BRANCH  25  26
ATOM     26  C   UNL     1       0.236  10.239  21.477  0.00  0.00    +0.000 C 
BRANCH  26  27
ATOM     27  C   UNL     1      -0.444   9.392  22.561  0.00  0.00    +0.000 C 
BRANCH  27  28
ATOM     28  N   UNL     1       0.152   9.598  23.873  0.00  0.00    +0.000 NA
ATOM     29  H   UNL     1      -0.589   9.651  24.572  0.00  0.00    +0.000 HD
ATOM     30  H   UNL     1       0.625  10.500  23.899  0.00  0.00    +0.000 HD
ENDBRANCH  27  28
ENDBRANCH  26  27
ENDBRANCH  25  26
ENDBRANCH  24  25
ENDBRANCH   1  24
TORSDOF 7
ENDMDL
MODEL 2
REMARK VINA RESULT:      -7.6      1.138      1.378
REMARK  Name = 
REMARK  7 active torsions:
REMARK  status: ('A' for Active; 'I' for Inactive)
REMARK    1  A    between atoms: N_1  and  C_2
REMARK    2  A    between atoms: C_2  and  C_3
REMARK    3  A    between atoms: C_3  and  C_4
REMARK    4  A    between atoms: C_4  and  C_5
REMARK    5  A    between atoms: C_5  and  N_6
REMARK    6  A    between atoms: C_19  and  C_20
REMARK    7  A    between atoms: C_24  and  O_25
REMARK                            x       y       z     vdW  Elec       q    Type
REMARK                         _______ _______ _______ _____ _____    ______ ____
ROOT
ATOM      1  N   UNL     1       2.321   7.492  19.740  0.00  0.00    +0.000 NA
ATOM      2  C   UNL     1       1.830   7.543  18.342  0.00  0.00    +0.000 C 
ATOM      3  C   UNL     1       2.862   7.203  17.227  0.00  0.00    +0.000 C 
ATOM      4  C   UNL     1       3.991   6.376  17.731  0.00  0.00    +0.000 A 
ATOM      5  C   UNL     1       4.061   5.991  19.052  0.00  0.00    +0.000 A 
ATOM      6  N   UNL     1       5.213   5.283  19.235  0.00  0.00    +0.000 N 
ATOM      7  C   UNL     1       5.875   5.151  18.033  0.00  0.00    +0.000 A 
ATOM      8  C   UNL     1       7.068   4.488  17.733  0.00  0.00    +0.000 A 
ATOM      9  C   UNL     1       7.489   4.495  16.400  0.00  0.00    +0.000 A 
ATOM     10  C   UNL     1       6.739   5.138  15.417  0.00  0.00    +0.000 A 
ATOM     11 CL   UNL     1       7.278   5.102  13.780  0.00  0.00    +0.000 Cl
ATOM     12  C   UNL     1       5.554   5.809  15.730  0.00  0.00    +0.000 A 
ATOM     13  C   UNL     1       5.115   5.820  17.066  0.00  0.00    +0.000 A 
ATOM     14  C   UNL     1       3.004   6.230  20.096  0.00  0.00    +0.000 C 
ATOM     15  H   UNL     1       5.513   4.867  20.106  0.00  0.00    +0.000 HD
ENDROOT
BRANCH  14  16
ATOM     16  C   UNL     1       2.168   4.954  20.268  0.00  0.00    +0.000 A 
ATOM     17  C   UNL     1       2.202   4.257  21.490  0.00  0.00    +0.000 A 
ATOM     18  C   UNL     1       1.691   2.957  21.594  0.00  0.00    +0.000 A 
ATOM     19  C   UNL     1       1.144   2.326  20.478  0.00  0.00    +0.000 A 
ATOM     20  C   UNL     1       1.069   3.019  19.279  0.00  0.00    +0.000 A 
ATOM     21  C   UNL     1       1.543   4.323  19.176  0.00  0.00    +0.000 A 
BRANCH  20  22
ATOM     22  O   UNL     1       0.587   2.432  18.146  0.00  0.00    +0.000 OA
ATOM     23  H   UNL     1       0.866   2.964  17.384  0.00  0.00    +0.000 HD
ENDBRANCH  20  22
ENDBRANCH  14  16
BRANCH   1  24
ATOM     24  C   UNL     1       1.325   8.020  20.670  0.00  0.00    +0.000 C 
BRANCH  24  25
ATOM     25  C   UNL     1       1.008   9.521  20.643  0.00  0.00    +0.000 C 
BRANCH  25  26
ATOM     26  C   UNL     1      -0.438   9.922  20.330  0.00  0.00    +0.000 C 
BRANCH  26  27
ATOM     27  C   UNL     1      -0.539  10.293  18.845  0.00  0.00    +0.000 C 
BRANCH  27  28
ATOM     28  N   UNL     1       0.664  10.956  18.361  0.00  0.00    +0.000 NA
ATOM     29  H   UNL     1       1.197  11.302  19.159  0.00  0.00    +0.000 HD
ATOM     30  H   UNL     1       0.408  11.778  17.817  0.00  0.00    +0.000 HD
ENDBRANCH  27  28
ENDBRANCH  26  27
ENDBRANCH  25  26
ENDBRANCH  24  25
ENDBRANCH   1  24
TORSDOF 7
ENDMDL
MODEL 3
REMARK VINA RESULT:      -7.0      1.034      1.398
REMARK  Name = 
REMARK  7 active torsions:
REMARK  status: ('A' for Active; 'I' for Inactive)
REMARK    1  A    between atoms: N_1  and  C_2
REMARK    2  A    between atoms: C_2  and  C_3
REMARK    3  A    between atoms: C_3  and  C_4
REMARK    4  A    between atoms: C_4  and  C_5
REMARK    5  A    between atoms: C_5  and  N_6
REMARK    6  A    between atoms: C_19  and  C_20
REMARK    7  A    between atoms: C_24  and  O_25
REMARK                            x       y       z     vdW  Elec       q    Type
REMARK                         _______ _______ _______ _____ _____    ______ ____
ROOT
ATOM      1  N   UNL     1       2.615   7.142  19.688  0.00  0.00    +0.000 NA
ATOM      2  C   UNL     1       2.073   7.308  18.318  0.00  0.00    +0.000 C 
ATOM      3  C   UNL     1       3.069   7.087  17.142  0.00  0.00    +0.000 C 
ATOM      4  C   UNL     1       4.227   6.238  17.531  0.00  0.00    +0.000 A 
ATOM      5  C   UNL     1       4.349   5.738  18.809  0.00  0.00    +0.000 A 
ATOM      6  N   UNL     1       5.517   5.036  18.888  0.00  0.00    +0.000 N 
ATOM      7  C   UNL     1       6.138   5.023  17.657  0.00  0.00    +0.000 A 
ATOM      8  C   UNL     1       7.329   4.411  17.258  0.00  0.00    +0.000 A 
ATOM      9  C   UNL     1       7.702   4.543  15.917  0.00  0.00    +0.000 A 
ATOM     10  C   UNL     1       6.909   5.258  15.022  0.00  0.00    +0.000 A 
ATOM     11 CL   UNL     1       7.389   5.378  13.372  0.00  0.00    +0.000 Cl
ATOM     12  C   UNL     1       5.726   5.878  15.434  0.00  0.00    +0.000 A 
ATOM     13  C   UNL     1       5.335   5.762  16.780  0.00  0.00    +0.000 A 
ATOM     14  C   UNL     1       3.327   5.865  19.905  0.00  0.00    +0.000 C 
ATOM     15  H   UNL     1       5.854   4.550  19.707  0.00  0.00    +0.000 HD
ENDROOT
BRANCH  14  16
ATOM     16  C   UNL     1       2.516   4.564  19.991  0.00  0.00    +0.000 A 
ATOM     17  C   UNL     1       1.770   4.132  18.880  0.00  0.00    +0.000 A 
ATOM     18  C   UNL     1       0.806   3.124  19.005  0.00  0.00    +0.000 A 
ATOM     19  C   UNL     1       0.564   2.533  20.245  0.00  0.00    +0.000 A 
ATOM     20  C   UNL     1       1.323   2.924  21.338  0.00  0.00    +0.000 A 
ATOM     21  C   UNL     1       2.306   3.901  21.215  0.00  0.00    +0.000 A 
BRANCH  20  22
ATOM     22  O   UNL     1       1.095   2.413  22.582  0.00  0.00    +0.000 OA
ATOM     23  H   UNL     1       1.892   2.548  23.119  0.00  0.00    +0.000 HD
ENDBRANCH  20  22
ENDBRANCH  14  16
BRANCH   1  24
ATOM     24  C   UNL     1       1.645   7.567  20.695  0.00  0.00    +0.000 C 
BRANCH  24  25
ATOM     25  C   UNL     1       1.056   8.981  20.605  0.00  0.00    +0.000 C 
BRANCH  25  26
ATOM     26  C   UNL     1      -0.260   9.236  21.349  0.00  0.00    +0.000 C 
BRANCH  26  27
ATOM     27  C   UNL     1       0.045   9.448  22.838  0.00  0.00    +0.000 C 
BRANCH  27  28
ATOM     28  N   UNL     1      -0.931  10.316  23.480  0.00  0.00    +0.000 NA
ATOM     29  H   UNL     1      -0.595  11.279  23.447  0.00  0.00    +0.000 HD
ATOM     30  H   UNL     1      -1.005  10.079  24.468  0.00  0.00    +0.000 HD
ENDBRANCH  27  28
ENDBRANCH  26  27
ENDBRANCH  25  26
ENDBRANCH  24  25
ENDBRANCH   1  24
TORSDOF 7
ENDMDL
MODEL 4
REMARK VINA RESULT:      -6.8      1.523      1.942
REMARK  Name = 
REMARK  7 active torsions:
REMARK  status: ('A' for Active; 'I' for Inactive)
REMARK    1  A    between atoms: N_1  and  C_2
REMARK    2  A    between atoms: C_2  and  C_3
REMARK    3  A    between atoms: C_3  and  C_4
REMARK    4  A    between atoms: C_4  and  C_5
REMARK    5  A    between atoms: C_5  and  N_6
REMARK    6  A    between atoms: C_19  and  C_20
REMARK    7  A    between atoms: C_24  and  O_25
REMARK                            x       y       z     vdW  Elec       q    Type
REMARK                         _______ _______ _______ _____ _____    ______ ____
ROOT
ATOM      1  N   UNL     1       2.537   7.166  19.682  0.00  0.00    +0.000 NA
ATOM      2  C   UNL     1       2.021   7.311  18.299  0.00  0.00    +0.000 C 
ATOM      3  C   UNL     1       3.043   7.088  17.146  0.00  0.00    +0.000 C 
ATOM      4  C   UNL     1       4.202   6.256  17.567  0.00  0.00    +0.000 A 
ATOM      5  C   UNL     1       4.305   5.772  18.853  0.00  0.00    +0.000 A 
ATOM      6  N   UNL     1       5.479   5.086  18.963  0.00  0.00    +0.000 N 
ATOM      7  C   UNL     1       6.123   5.066  17.744  0.00  0.00    +0.000 A 
ATOM      8  C   UNL     1       7.329   4.463  17.376  0.00  0.00    +0.000 A 
ATOM      9  C   UNL     1       7.727   4.584  16.041  0.00  0.00    +0.000 A 
ATOM     10  C   UNL     1       6.943   5.280  15.123  0.00  0.00    +0.000 A 
ATOM     11 CL   UNL     1       7.454   5.386  13.481  0.00  0.00    +0.000 Cl
ATOM     12  C   UNL     1       5.746   5.890  15.505  0.00  0.00    +0.000 A 
ATOM     13  C   UNL     1       5.329   5.786  16.844  0.00  0.00    +0.000 A 
ATOM     14  C   UNL     1       3.260   5.900  19.928  0.00  0.00    +0.000 C 
ATOM     15  H   UNL     1       5.805   4.612  19.794  0.00  0.00    +0.000 HD
ENDROOT
BRANCH  14  16
ATOM     16  C   UNL     1       2.462   4.591  20.013  0.00  0.00    +0.000 A 
ATOM     17  C   UNL     1       1.702   4.163  18.909  0.00  0.00    +0.000 A 
ATOM     18  C   UNL     1       0.750   3.145  19.039  0.00  0.00    +0.000 A 
ATOM     19  C   UNL     1       0.533   2.540  20.276  0.00  0.00    +0.000 A 
ATOM     20  C   UNL     1       1.306   2.926  21.361  0.00  0.00    +0.000 A 
ATOM     21  C   UNL     1       2.278   3.913  21.233  0.00  0.00    +0.000 A 
BRANCH  20  22
ATOM     22  O   UNL     1       1.101   2.400  22.603  0.00  0.00    +0.000 OA
ATOM     23  H   UNL     1       1.967   2.232  23.009  0.00  0.00    +0.000 HD
ENDBRANCH  20  22
ENDBRANCH  14  16
BRANCH   1  24
ATOM     24  C   UNL     1       1.543   7.592  20.665  0.00  0.00    +0.000 C 
BRANCH  24  25
ATOM     25  C   UNL     1       1.272   9.091  20.842  0.00  0.00    +0.000 C 
BRANCH  25  26
ATOM     26  C   UNL     1      -0.073   9.621  20.329  0.00  0.00    +0.000 C 
BRANCH  26  27
ATOM     27  C   UNL     1       0.190  10.668  19.239  0.00  0.00    +0.000 C 
BRANCH  27  28
ATOM     28  N   UNL     1      -0.113  10.162  17.907  0.00  0.00    +0.000 NA
ATOM     29  H   UNL     1       0.519   9.391  17.691  0.00  0.00    +0.000 HD
ATOM     30  H   UNL     1       0.077  10.883  17.213  0.00  0.00    +0.000 HD
ENDBRANCH  27  28
ENDBRANCH  26  27
ENDBRANCH  25  26
ENDBRANCH  24  25
ENDBRANCH   1  24
TORSDOF 7
ENDMDL
MODEL 5
REMARK VINA RESULT:      -6.8      4.032      6.975
REMARK  Name = 
REMARK  7 active torsions:
REMARK  status: ('A' for Active; 'I' for Inactive)
REMARK    1  A    between atoms: N_1  and  C_2
REMARK    2  A    between atoms: C_2  and  C_3
REMARK    3  A    between atoms: C_3  and  C_4
REMARK    4  A    between atoms: C_4  and  C_5
REMARK    5  A    between atoms: C_5  and  N_6
REMARK    6  A    between atoms: C_19  and  C_20
REMARK    7  A    between atoms: C_24  and  O_25
REMARK                            x       y       z     vdW  Elec       q    Type
REMARK                         _______ _______ _______ _____ _____    ______ ____
ROOT
ATOM      1  N   UNL     1       6.721   6.989  18.013  0.00  0.00    +0.000 NA
ATOM      2  C   UNL     1       7.255   5.851  18.800  0.00  0.00    +0.000 C 
ATOM      3  C   UNL     1       6.229   5.051  19.656  0.00  0.00    +0.000 C 
ATOM      4  C   UNL     1       4.837   5.192  19.151  0.00  0.00    +0.000 A 
ATOM      5  C   UNL     1       4.552   5.965  18.046  0.00  0.00    +0.000 A 
ATOM      6  N   UNL     1       3.203   5.943  17.842  0.00  0.00    +0.000 N 
ATOM      7  C   UNL     1       2.603   5.118  18.768  0.00  0.00    +0.000 A 
ATOM      8  C   UNL     1       1.258   4.771  18.926  0.00  0.00    +0.000 A 
ATOM      9  C   UNL     1       0.942   3.874  19.950  0.00  0.00    +0.000 A 
ATOM     10  C   UNL     1       1.936   3.351  20.775  0.00  0.00    +0.000 A 
ATOM     11 CL   UNL     1       1.509   2.228  22.010  0.00  0.00    +0.000 Cl
ATOM     12  C   UNL     1       3.276   3.714  20.617  0.00  0.00    +0.000 A 
ATOM     13  C   UNL     1       3.616   4.620  19.596  0.00  0.00    +0.000 A 
ATOM     14  C   UNL     1       5.562   6.643  17.162  0.00  0.00    +0.000 C 
ATOM     15  H   UNL     1       2.717   6.414  17.091  0.00  0.00    +0.000 HD
ENDROOT
BRANCH  14  16
ATOM     16  C   UNL     1       5.787   5.788  15.907  0.00  0.00    +0.000 A 
ATOM     17  C   UNL     1       5.163   4.533  15.797  0.00  0.00    +0.000 A 
ATOM     18  C   UNL     1       5.559   3.612  14.819  0.00  0.00    +0.000 A 
ATOM     19  C   UNL     1       6.593   3.926  13.937  0.00  0.00    +0.000 A 
ATOM     20  C   UNL     1       7.188   5.177  14.012  0.00  0.00    +0.000 A 
ATOM     21  C   UNL     1       6.776   6.110  14.958  0.00  0.00    +0.000 A 
BRANCH  20  22
ATOM     22  O   UNL     1       8.234   5.516  13.205  0.00  0.00    +0.000 OA
ATOM     23  H   UNL     1       8.402   6.467  13.307  0.00  0.00    +0.000 HD
ENDBRANCH  20  22
ENDBRANCH  14  16
BRANCH   1  24
ATOM     24  C   UNL     1       7.800   7.773  17.417  0.00  0.00    +0.000 C 
BRANCH  24  25
ATOM     25  C   UNL     1       7.902   9.267  17.753  0.00  0.00    +0.000 C 
BRANCH  25  26
ATOM     26  C   UNL     1       8.975   9.681  18.767  0.00  0.00    +0.000 C 
BRANCH  26  27
ATOM     27  C   UNL     1       9.644  10.974  18.281  0.00  0.00    +0.000 C 
BRANCH  27  28
ATOM     28  N   UNL     1       8.677  11.929  17.758  0.00  0.00    +0.000 NA
ATOM     29  H   UNL     1       8.583  11.791  16.751  0.00  0.00    +0.000 HD
ATOM     30  H   UNL     1       9.030  12.877  17.878  0.00  0.00    +0.000 HD
ENDBRANCH  27  28
ENDBRANCH  26  27
ENDBRANCH  25  26
ENDBRANCH  24  25
ENDBRANCH   1  24
TORSDOF 7
ENDMDL
MODEL 6
REMARK VINA RESULT:      -6.5      4.238      6.730
REMARK  Name = 
REMARK  7 active torsions:
REMARK  status: ('A' for Active; 'I' for Inactive)
REMARK    1  A    between atoms: N_1  and  C_2
REMARK    2  A    between atoms: C_2  and  C_3
REMARK    3  A    between atoms: C_3  and  C_4
REMARK    4  A    between atoms: C_4  and  C_5
REMARK    5  A    between atoms: C_5  and  N_6
REMARK    6  A    between atoms: C_19  and  C_20
REMARK    7  A    between atoms: C_24  and  O_25
REMARK                            x       y       z     vdW  Elec       q    Type
REMARK                         _______ _______ _______ _____ _____    ______ ____
ROOT
ATOM      1  N   UNL     1      -0.520  10.401  19.668  0.00  0.00    +0.000 NA
ATOM      2  C   UNL     1      -0.164   9.766  20.959  0.00  0.00    +0.000 C 
ATOM      3  C   UNL     1       0.718   8.484  20.887  0.00  0.00    +0.000 C 
ATOM      4  C   UNL     1       1.499   8.402  19.624  0.00  0.00    +0.000 A 
ATOM      5  C   UNL     1       1.405   9.383  18.660  0.00  0.00    +0.000 A 
ATOM      6  N   UNL     1       2.192   9.027  17.605  0.00  0.00    +0.000 N 
ATOM      7  C   UNL     1       2.848   7.848  17.888  0.00  0.00    +0.000 A 
ATOM      8  C   UNL     1       3.770   7.126  17.124  0.00  0.00    +0.000 A 
ATOM      9  C   UNL     1       4.302   5.964  17.689  0.00  0.00    +0.000 A 
ATOM     10  C   UNL     1       3.923   5.550  18.964  0.00  0.00    +0.000 A 
ATOM     11 CL   UNL     1       4.620   4.125  19.636  0.00  0.00    +0.000 Cl
ATOM     12  C   UNL     1       2.991   6.272  19.714  0.00  0.00    +0.000 A 
ATOM     13  C   UNL     1       2.438   7.442  19.164  0.00  0.00    +0.000 A 
ATOM     14  C   UNL     1       0.637  10.670  18.787  0.00  0.00    +0.000 C 
ATOM     15  H   UNL     1       2.323   9.570  16.763  0.00  0.00    +0.000 HD
ENDROOT
BRANCH  14  16
ATOM     16  C   UNL     1       1.607  11.801  19.157  0.00  0.00    +0.000 A 
ATOM     17  C   UNL     1       1.586  12.344  20.454  0.00  0.00    +0.000 A 
ATOM     18  C   UNL     1       2.241  13.546  20.745  0.00  0.00    +0.000 A 
ATOM     19  C   UNL     1       2.925  14.234  19.743  0.00  0.00    +0.000 A 
ATOM     20  C   UNL     1       2.986  13.686  18.470  0.00  0.00    +0.000 A 
ATOM     21  C   UNL     1       2.366  12.475  18.181  0.00  0.00    +0.000 A 
BRANCH  20  22
ATOM     22  O   UNL     1       3.600  14.341  17.443  0.00  0.00    +0.000 OA
ATOM     23  H   UNL     1       2.950  14.926  17.022  0.00  0.00    +0.000 HD
ENDBRANCH  20  22
ENDBRANCH  14  16
BRANCH   1  24
ATOM     24  C   UNL     1      -1.503  11.466  19.855  0.00  0.00    +0.000 C 
BRANCH  24  25
ATOM     25  C   UNL     1      -2.406  11.855  18.678  0.00  0.00    +0.000 C 
BRANCH  25  26
ATOM     26  C   UNL     1      -3.377  10.787  18.162  0.00  0.00    +0.000 C 
BRANCH  26  27
ATOM     27  C   UNL     1      -3.442  10.873  16.631  0.00  0.00    +0.000 C 
BRANCH  27  28
ATOM     28  N   UNL     1      -2.320  11.617  16.076  0.00  0.00    +0.000 NA
ATOM     29  H   UNL     1      -2.516  11.834  15.098  0.00  0.00    +0.000 HD
ATOM     30  H   UNL     1      -1.487  11.032  16.071  0.00  0.00    +0.000 HD
ENDBRANCH  27  28
ENDBRANCH  26  27
ENDBRANCH  25  26
ENDBRANCH  24  25
ENDBRANCH   1  24
TORSDOF 7
ENDMDL
MODEL 7
REMARK VINA RESULT:      -6.4      4.831      8.237
REMARK  Name = 
REMARK  7 active torsions:
REMARK  status: ('A' for Active; 'I' for Inactive)
REMARK    1  A    between atoms: N_1  and  C_2
REMARK    2  A    between atoms: C_2  and  C_3
REMARK    3  A    between atoms: C_3  and  C_4
REMARK    4  A    between atoms: C_4  and  C_5
REMARK    5  A    between atoms: C_5  and  N_6
REMARK    6  A    between atoms: C_19  and  C_20
REMARK    7  A    between atoms: C_24  and  O_25
REMARK                            x       y       z     vdW  Elec       q    Type
REMARK                         _______ _______ _______ _____ _____    ______ ____
ROOT
ATOM      1  N   UNL     1      -1.902  12.185  21.384  0.00  0.00    +0.000 NA
ATOM      2  C   UNL     1      -1.186  11.542  22.512  0.00  0.00    +0.000 C 
ATOM      3  C   UNL     1      -0.330  10.287  22.171  0.00  0.00    +0.000 C 
ATOM      4  C   UNL     1       0.071  10.245  20.739  0.00  0.00    +0.000 A 
ATOM      5  C   UNL     1      -0.310  11.236  19.861  0.00  0.00    +0.000 A 
ATOM      6  N   UNL     1       0.161  10.918  18.621  0.00  0.00    +0.000 N 
ATOM      7  C   UNL     1       0.897   9.754  18.686  0.00  0.00    +0.000 A 
ATOM      8  C   UNL     1       1.587   9.070  17.680  0.00  0.00    +0.000 A 
ATOM      9  C   UNL     1       2.282   7.915  18.050  0.00  0.00    +0.000 A 
ATOM     10  C   UNL     1       2.282   7.473  19.372  0.00  0.00    +0.000 A 
ATOM     11 CL   UNL     1       3.172   6.059  19.793  0.00  0.00    +0.000 Cl
ATOM     12  C   UNL     1       1.579   8.157  20.366  0.00  0.00    +0.000 A 
ATOM     13  C   UNL     1       0.868   9.319  20.016  0.00  0.00    +0.000 A 
ATOM     14  C   UNL     1      -1.042  12.499  20.223  0.00  0.00    +0.000 C 
ATOM     15  H   UNL     1       0.040  11.476  17.787  0.00  0.00    +0.000 HD
ENDROOT
BRANCH  14  16
ATOM     16  C   UNL     1      -0.034  13.652  20.333  0.00  0.00    +0.000 A 
ATOM     17  C   UNL     1       0.136  14.536  19.252  0.00  0.00    +0.000 A 
ATOM     18  C   UNL     1       1.228  15.411  19.199  0.00  0.00    +0.000 A 
ATOM     19  C   UNL     1       2.175  15.413  20.221  0.00  0.00    +0.000 A 
ATOM     20  C   UNL     1       1.996  14.574  21.311  0.00  0.00    +0.000 A 
ATOM     21  C   UNL     1       0.895  13.727  21.388  0.00  0.00    +0.000 A 
BRANCH  20  22
ATOM     22  O   UNL     1       2.917  14.504  22.314  0.00  0.00    +0.000 OA
ATOM     23  H   UNL     1       3.676  13.989  21.996  0.00  0.00    +0.000 HD
ENDBRANCH  20  22
ENDBRANCH  14  16
BRANCH   1  24
ATOM     24  C   UNL     1      -2.819  13.218  21.860  0.00  0.00    +0.000 C 
BRANCH  24  25
ATOM     25  C   UNL     1      -4.308  13.105  21.510  0.00  0.00    +0.000 C 
BRANCH  25  26
ATOM     26  C   UNL     1      -5.294  13.019  22.681  0.00  0.00    +0.000 C 
BRANCH  26  27
ATOM     27  C   UNL     1      -4.503  13.024  23.996  0.00  0.00    +0.000 C 
BRANCH  27  28
ATOM     28  N   UNL     1      -4.756  11.832  24.793  0.00  0.00    +0.000 NA
ATOM     29  H   UNL     1      -5.542  12.010  25.419  0.00  0.00    +0.000 HD
ATOM     30  H   UNL     1      -3.956  11.645  25.395  0.00  0.00    +0.000 HD
ENDBRANCH  27  28
ENDBRANCH  26  27
ENDBRANCH  25  26
ENDBRANCH  24  25
ENDBRANCH   1  24
TORSDOF 7
ENDMDL
MODEL 8
REMARK VINA RESULT:      -6.3      4.622      7.386
REMARK  Name = 
REMARK  7 active torsions:
REMARK  status: ('A' for Active; 'I' for Inactive)
REMARK    1  A    between atoms: N_1  and  C_2
REMARK    2  A    between atoms: C_2  and  C_3
REMARK    3  A    between atoms: C_3  and  C_4
REMARK    4  A    between atoms: C_4  and  C_5
REMARK    5  A    between atoms: C_5  and  N_6
REMARK    6  A    between atoms: C_19  and  C_20
REMARK    7  A    between atoms: C_24  and  O_25
REMARK                            x       y       z     vdW  Elec       q    Type
REMARK                         _______ _______ _______ _____ _____    ______ ____
ROOT
ATOM      1  N   UNL     1      -1.068  11.433  19.853  0.00  0.00    +0.000 NA
ATOM      2  C   UNL     1      -0.695  10.828  21.155  0.00  0.00    +0.000 C 
ATOM      3  C   UNL     1       0.127   9.507  21.101  0.00  0.00    +0.000 C 
ATOM      4  C   UNL     1       0.861   9.347  19.817  0.00  0.00    +0.000 A 
ATOM      5  C   UNL     1       0.776  10.297  18.822  0.00  0.00    +0.000 A 
ATOM      6  N   UNL     1       1.511   9.869  17.755  0.00  0.00    +0.000 N 
ATOM      7  C   UNL     1       2.125   8.673  18.060  0.00  0.00    +0.000 A 
ATOM      8  C   UNL     1       2.988   7.886  17.293  0.00  0.00    +0.000 A 
ATOM      9  C   UNL     1       3.489   6.721  17.882  0.00  0.00    +0.000 A 
ATOM     10  C   UNL     1       3.136   6.370  19.184  0.00  0.00    +0.000 A 
ATOM     11 CL   UNL     1       3.794   4.940  19.884  0.00  0.00    +0.000 Cl
ATOM     12  C   UNL     1       2.262   7.157  19.937  0.00  0.00    +0.000 A 
ATOM     13  C   UNL     1       1.742   8.331  19.362  0.00  0.00    +0.000 A 
ATOM     14  C   UNL     1       0.069  11.620  18.927  0.00  0.00    +0.000 C 
ATOM     15  H   UNL     1       1.637  10.377  16.890  0.00  0.00    +0.000 HD
ENDROOT
BRANCH  14  16
ATOM     16  C   UNL     1       1.099  12.719  19.223  0.00  0.00    +0.000 A 
ATOM     17  C   UNL     1       1.637  13.475  18.166  0.00  0.00    +0.000 A 
ATOM     18  C   UNL     1       2.770  14.277  18.354  0.00  0.00    +0.000 A 
ATOM     19  C   UNL     1       3.391  14.332  19.601  0.00  0.00    +0.000 A 
ATOM     20  C   UNL     1       2.845  13.622  20.660  0.00  0.00    +0.000 A 
ATOM     21  C   UNL     1       1.699  12.851  20.490  0.00  0.00    +0.000 A 
BRANCH  20  22
ATOM     22  O   UNL     1       3.440  13.605  21.887  0.00  0.00    +0.000 OA
ATOM     23  H   UNL     1       2.892  14.122  22.499  0.00  0.00    +0.000 HD
ENDBRANCH  20  22
ENDBRANCH  14  16
BRANCH   1  24
ATOM     24  C   UNL     1      -1.997  12.546  20.034  0.00  0.00    +0.000 C 
BRANCH  24  25
ATOM     25  C   UNL     1      -3.418  12.423  19.469  0.00  0.00    +0.000 C 
BRANCH  25  26
ATOM     26  C   UNL     1      -3.631  11.418  18.331  0.00  0.00    +0.000 C 
BRANCH  26  27
ATOM     27  C   UNL     1      -4.902  11.801  17.562  0.00  0.00    +0.000 C 
BRANCH  27  28
ATOM     28  N   UNL     1      -5.565  12.961  18.140  0.00  0.00    +0.000 NA
ATOM     29  H   UNL     1      -5.475  13.750  17.499  0.00  0.00    +0.000 HD
ATOM     30  H   UNL     1      -5.087  13.240  18.995  0.00  0.00    +0.000 HD
ENDBRANCH  27  28
ENDBRANCH  26  27
ENDBRANCH  25  26
ENDBRANCH  24  25
ENDBRANCH   1  24
TORSDOF 7
ENDMDL
MODEL 9
REMARK VINA RESULT:      -6.3      7.165      9.475
REMARK  Name = 
REMARK  7 active torsions:
REMARK  status: ('A' for Active; 'I' for Inactive)
REMARK    1  A    between atoms: N_1  and  C_2
REMARK    2  A    between atoms: C_2  and  C_3
REMARK    3  A    between atoms: C_3  and  C_4
REMARK    4  A    between atoms: C_4  and  C_5
REMARK    5  A    between atoms: C_5  and  N_6
REMARK    6  A    between atoms: C_19  and  C_20
REMARK    7  A    between atoms: C_24  and  O_25
REMARK                            x       y       z     vdW  Elec       q    Type
REMARK                         _______ _______ _______ _____ _____    ______ ____
ROOT
ATOM      1  N   UNL     1      -0.940  11.161  18.051  0.00  0.00    +0.000 NA
ATOM      2  C   UNL     1       0.426  10.732  18.438  0.00  0.00    +0.000 C 
ATOM      3  C   UNL     1       1.515  11.844  18.499  0.00  0.00    +0.000 C 
ATOM      4  C   UNL     1       0.933  13.199  18.690  0.00  0.00    +0.000 A 
ATOM      5  C   UNL     1      -0.429  13.385  18.790  0.00  0.00    +0.000 A 
ATOM      6  N   UNL     1      -0.673  14.721  18.917  0.00  0.00    +0.000 N 
ATOM      7  C   UNL     1       0.519  15.412  18.959  0.00  0.00    +0.000 A 
ATOM      8  C   UNL     1       0.760  16.781  19.108  0.00  0.00    +0.000 A 
ATOM      9  C   UNL     1       2.093  17.199  19.147  0.00  0.00    +0.000 A 
ATOM     10  C   UNL     1       3.133  16.278  19.041  0.00  0.00    +0.000 A 
ATOM     11 CL   UNL     1       4.764  16.828  19.119  0.00  0.00    +0.000 Cl
ATOM     12  C   UNL     1       2.882  14.913  18.879  0.00  0.00    +0.000 A 
ATOM     13  C   UNL     1       1.548  14.471  18.832  0.00  0.00    +0.000 A 
ATOM     14  C   UNL     1      -1.464  12.295  18.842  0.00  0.00    +0.000 C 
ATOM     15  H   UNL     1      -1.586  15.142  19.023  0.00  0.00    +0.000 HD
ENDROOT
BRANCH  14  16
ATOM     16  C   UNL     1      -1.875  12.060  20.302  0.00  0.00    +0.000 A 
ATOM     17  C   UNL     1      -2.978  12.750  20.837  0.00  0.00    +0.000 A 
ATOM     18  C   UNL     1      -3.209  12.782  22.217  0.00  0.00    +0.000 A 
ATOM     19  C   UNL     1      -2.338  12.133  23.091  0.00  0.00    +0.000 A 
ATOM     20  C   UNL     1      -1.270  11.416  22.571  0.00  0.00    +0.000 A 
ATOM     21  C   UNL     1      -1.054  11.350  21.198  0.00  0.00    +0.000 A 
BRANCH  20  22
ATOM     22  O   UNL     1      -0.362  10.803  23.383  0.00  0.00    +0.000 OA
ATOM     23  H   UNL     1       0.405  11.389  23.480  0.00  0.00    +0.000 HD
ENDBRANCH  20  22
ENDBRANCH  14  16
BRANCH   1  24
ATOM     24  C   UNL     1      -1.815  10.010  17.839  0.00  0.00    +0.000 C 
BRANCH  24  25
ATOM     25  C   UNL     1      -3.316  10.250  17.628  0.00  0.00    +0.000 C 
BRANCH  25  26
ATOM     26  C   UNL     1      -3.751  10.778  16.257  0.00  0.00    +0.000 C 
BRANCH  26  27
ATOM     27  C   UNL     1      -2.841  10.172  15.180  0.00  0.00    +0.000 C 
BRANCH  27  28
ATOM     28  N   UNL     1      -3.443  10.232  13.855  0.00  0.00    +0.000 NA
ATOM     29  H   UNL     1      -3.834   9.318  13.625  0.00  0.00    +0.000 HD
ATOM     30  H   UNL     1      -2.723  10.412  13.158  0.00  0.00    +0.000 HD
ENDBRANCH  27  28
ENDBRANCH  26  27
ENDBRANCH  25  26
ENDBRANCH  24  25
ENDBRANCH   1  24
TORSDOF 7
ENDMDL
