MODEL 1
REMARK VINA RESULT:      -7.4      0.000      0.000
REMARK  Name = 
REMARK  5 active torsions:
REMARK  status: ('A' for Active; 'I' for Inactive)
REMARK    1  A    between atoms: C_1  and  C_2
REMARK    2  A    between atoms: C_2  and  C_3
REMARK    3  A    between atoms: C_7  and  N_8
REMARK    4  A    between atoms: C_14  and  N_15
REMARK    5  A    between atoms: C_20  and  O_21
REMARK                            x       y       z     vdW  Elec       q    Type
REMARK                         _______ _______ _______ _____ _____    ______ ____
ROOT
ATOM      1  C   UNL     1       2.193   2.620  20.406  0.00  0.00    +0.000 C 
ATOM      2  C   UNL     1       2.733   3.531  19.289  0.00  0.00    +0.000 C 
ATOM      3  C   UNL     1       2.003   3.090  17.997  0.00  0.00    +0.000 C 
ATOM      4  O   UNL     1       2.322   4.834  19.488  0.00  0.00    +0.000 OA
ATOM      5  C   UNL     1       2.852   5.867  18.780  0.00  0.00    +0.000 A 
ATOM      6  C   UNL     1       2.089   7.022  18.639  0.00  0.00    +0.000 A 
ATOM      7  C   UNL     1       2.567   8.130  17.928  0.00  0.00    +0.000 A 
ATOM      8  C   UNL     1       3.861   8.058  17.362  0.00  0.00    +0.000 A 
ATOM      9  C   UNL     1       4.643   6.901  17.502  0.00  0.00    +0.000 A 
ATOM     10  C   UNL     1       4.157   5.791  18.198  0.00  0.00    +0.000 A 
ATOM     11  C   UNL     1       5.037   4.544  18.387  0.00  0.00    +0.000 C 
ATOM     12  C   UNL     1       4.310   3.560  19.385  0.00  0.00    +0.000 C 
ENDROOT
BRANCH  11  13
ATOM     13  N   UNL     1       5.608   3.998  17.101  0.00  0.00    +0.000 NA
ATOM     14  C   UNL     1       6.988   4.301  16.720  0.00  0.00    +0.000 C 
ATOM     15  C   UNL     1       6.883   5.522  15.829  0.00  0.00    +0.000 C 
ATOM     16  C   UNL     1       5.712   5.159  14.956  0.00  0.00    +0.000 C 
ATOM     17  C   UNL     1       4.817   4.319  15.887  0.00  0.00    +0.000 C 
ENDBRANCH  11  13
BRANCH   7  18
ATOM     18  N   UNL     1       1.773   9.304  17.780  0.00  0.00    +0.000 N 
ATOM     19  O   UNL     1       0.580   9.235  17.782  0.00  0.00    +0.000 OA
ATOM     20  O   UNL     1       2.341  10.480  17.622  0.00  0.00    +0.000 OA
ENDBRANCH   7  18
BRANCH  12  21
ATOM     21  O   UNL     1       4.993   2.372  19.668  0.00  0.00    +0.000 OA
ATOM     22  H   UNL     1       5.962   2.527  19.654  0.00  0.00    +0.000 HD
ENDBRANCH  12  21
TORSDOF 3
ENDMDL
MODEL 2
REMARK VINA RESULT:      -7.4      2.664      5.292
REMARK  Name = 
REMARK  5 active torsions:
REMARK  status: ('A' for Active; 'I' for Inactive)
REMARK    1  A    between atoms: C_1  and  C_2
REMARK    2  A    between atoms: C_2  and  C_3
REMARK    3  A    between atoms: C_7  and  N_8
REMARK    4  A    between atoms: C_14  and  N_15
REMARK    5  A    between atoms: C_20  and  O_21
REMARK                            x       y       z     vdW  Elec       q    Type
REMARK                         _______ _______ _______ _____ _____    ______ ____
ROOT
ATOM      1  C   UNL     1       2.155   8.135  18.818  0.00  0.00    +0.000 C 
ATOM      2  C   UNL     1       2.638   6.744  18.366  0.00  0.00    +0.000 C 
ATOM      3  C   UNL     1       1.507   6.175  17.477  0.00  0.00    +0.000 C 
ATOM      4  O   UNL     1       3.718   6.862  17.514  0.00  0.00    +0.000 OA
ATOM      5  C   UNL     1       4.473   5.787  17.162  0.00  0.00    +0.000 A 
ATOM      6  C   UNL     1       5.179   5.848  15.965  0.00  0.00    +0.000 A 
ATOM      7  C   UNL     1       5.980   4.782  15.536  0.00  0.00    +0.000 A 
ATOM      8  C   UNL     1       6.071   3.636  16.359  0.00  0.00    +0.000 A 
ATOM      9  C   UNL     1       5.368   3.565  17.572  0.00  0.00    +0.000 A 
ATOM     10  C   UNL     1       4.556   4.623  17.990  0.00  0.00    +0.000 A 
ATOM     11  C   UNL     1       3.825   4.556  19.340  0.00  0.00    +0.000 C 
ATOM     12  C   UNL     1       3.174   5.965  19.631  0.00  0.00    +0.000 C 
ENDROOT
BRANCH  11  13
ATOM     13  N   UNL     1       2.994   3.310  19.526  0.00  0.00    +0.000 NA
ATOM     14  C   UNL     1       1.631   3.247  18.999  0.00  0.00    +0.000 C 
ATOM     15  C   UNL     1       0.749   3.671  20.156  0.00  0.00    +0.000 C 
ATOM     16  C   UNL     1       1.364   2.908  21.299  0.00  0.00    +0.000 C 
ATOM     17  C   UNL     1       2.861   2.859  20.934  0.00  0.00    +0.000 C 
ENDBRANCH  11  13
BRANCH   7  18
ATOM     18  N   UNL     1       6.692   4.850  14.304  0.00  0.00    +0.000 N 
ATOM     19  O   UNL     1       6.331   4.216  13.358  0.00  0.00    +0.000 OA
ATOM     20  O   UNL     1       7.768   5.600  14.192  0.00  0.00    +0.000 OA
ENDBRANCH   7  18
BRANCH  12  21
ATOM     21  O   UNL     1       2.474   6.070  20.838  0.00  0.00    +0.000 OA
ATOM     22  H   UNL     1       2.768   6.863  21.334  0.00  0.00    +0.000 HD
ENDBRANCH  12  21
TORSDOF 3
ENDMDL
MODEL 3
REMARK VINA RESULT:      -7.4      1.732      3.973
REMARK  Name = 
REMARK  5 active torsions:
REMARK  status: ('A' for Active; 'I' for Inactive)
REMARK    1  A    between atoms: C_1  and  C_2
REMARK    2  A    between atoms: C_2  and  C_3
REMARK    3  A    between atoms: C_7  and  N_8
REMARK    4  A    between atoms: C_14  and  N_15
REMARK    5  A    between atoms: C_20  and  O_21
REMARK                            x       y       z     vdW  Elec       q    Type
REMARK                         _______ _______ _______ _____ _____    ______ ____
ROOT
ATOM      1  C   UNL     1       7.363   5.247  15.477  0.00  0.00    +0.000 C 
ATOM      2  C   UNL     1       6.252   5.181  16.542  0.00  0.00    +0.000 C 
ATOM      3  C   UNL     1       6.965   5.351  17.904  0.00  0.00    +0.000 C 
ATOM      4  O   UNL     1       5.426   6.283  16.446  0.00  0.00    +0.000 OA
ATOM      5  C   UNL     1       4.241   6.350  17.111  0.00  0.00    +0.000 A 
ATOM      6  C   UNL     1       3.721   7.608  17.394  0.00  0.00    +0.000 A 
ATOM      7  C   UNL     1       2.505   7.759  18.072  0.00  0.00    +0.000 A 
ATOM      8  C   UNL     1       1.799   6.594  18.453  0.00  0.00    +0.000 A 
ATOM      9  C   UNL     1       2.311   5.318  18.168  0.00  0.00    +0.000 A 
ATOM     10  C   UNL     1       3.533   5.171  17.506  0.00  0.00    +0.000 A 
ATOM     11  C   UNL     1       4.065   3.772  17.156  0.00  0.00    +0.000 C 
ATOM     12  C   UNL     1       5.336   3.932  16.232  0.00  0.00    +0.000 C 
ENDROOT
BRANCH  11  13
ATOM     13  N   UNL     1       4.124   2.828  18.332  0.00  0.00    +0.000 NA
ATOM     14  C   UNL     1       3.275   1.636  18.366  0.00  0.00    +0.000 C 
ATOM     15  C   UNL     1       2.038   2.066  19.129  0.00  0.00    +0.000 C 
ATOM     16  C   UNL     1       2.642   2.838  20.272  0.00  0.00    +0.000 C 
ATOM     17  C   UNL     1       3.904   3.469  19.652  0.00  0.00    +0.000 C 
ENDBRANCH  11  13
BRANCH   7  18
ATOM     18  N   UNL     1       1.985   9.052  18.367  0.00  0.00    +0.000 N 
ATOM     19  O   UNL     1       2.145   9.959  17.606  0.00  0.00    +0.000 OA
ATOM     20  O   UNL     1       1.336   9.272  19.490  0.00  0.00    +0.000 OA
ENDBRANCH   7  18
BRANCH  12  21
ATOM     21  O   UNL     1       5.936   2.737  15.818  0.00  0.00    +0.000 OA
ATOM     22  H   UNL     1       5.439   2.351  15.066  0.00  0.00    +0.000 HD
ENDBRANCH  12  21
TORSDOF 3
ENDMDL
MODEL 4
REMARK VINA RESULT:      -7.3      1.292      1.530
REMARK  Name = 
REMARK  5 active torsions:
REMARK  status: ('A' for Active; 'I' for Inactive)
REMARK    1  A    between atoms: C_1  and  C_2
REMARK    2  A    between atoms: C_2  and  C_3
REMARK    3  A    between atoms: C_7  and  N_8
REMARK    4  A    between atoms: C_14  and  N_15
REMARK    5  A    between atoms: C_20  and  O_21
REMARK                            x       y       z     vdW  Elec       q    Type
REMARK                         _______ _______ _______ _____ _____    ______ ____
ROOT
ATOM      1  C   UNL     1       3.053   2.991  20.932  0.00  0.00    +0.000 C 
ATOM      2  C   UNL     1       2.924   4.032  19.804  0.00  0.00    +0.000 C 
ATOM      3  C   UNL     1       1.758   3.543  18.912  0.00  0.00    +0.000 C 
ATOM      4  O   UNL     1       2.485   5.239  20.311  0.00  0.00    +0.000 OA
ATOM      5  C   UNL     1       2.513   6.379  19.569  0.00  0.00    +0.000 A 
ATOM      6  C   UNL     1       1.630   7.399  19.906  0.00  0.00    +0.000 A 
ATOM      7  C   UNL     1       1.601   8.604  19.192  0.00  0.00    +0.000 A 
ATOM      8  C   UNL     1       2.507   8.772  18.119  0.00  0.00    +0.000 A 
ATOM      9  C   UNL     1       3.407   7.752  17.774  0.00  0.00    +0.000 A 
ATOM     10  C   UNL     1       3.423   6.544  18.477  0.00  0.00    +0.000 A 
ATOM     11  C   UNL     1       4.443   5.450  18.122  0.00  0.00    +0.000 C 
ATOM     12  C   UNL     1       4.362   4.313  19.215  0.00  0.00    +0.000 C 
ENDROOT
BRANCH  11  13
ATOM     13  N   UNL     1       4.447   5.068  16.662  0.00  0.00    +0.000 NA
ATOM     14  C   UNL     1       4.922   3.748  16.246  0.00  0.00    +0.000 C 
ATOM     15  C   UNL     1       6.385   3.952  15.911  0.00  0.00    +0.000 C 
ATOM     16  C   UNL     1       6.340   5.237  15.128  0.00  0.00    +0.000 C 
ATOM     17  C   UNL     1       5.176   6.012  15.778  0.00  0.00    +0.000 C 
ENDBRANCH  11  13
BRANCH   7  18
ATOM     18  N   UNL     1       0.685   9.640  19.538  0.00  0.00    +0.000 N 
ATOM     19  O   UNL     1      -0.037   9.521  20.483  0.00  0.00    +0.000 OA
ATOM     20  O   UNL     1       0.608  10.735  18.813  0.00  0.00    +0.000 OA
ENDBRANCH   7  18
BRANCH  12  21
ATOM     21  O   UNL     1       5.242   3.239  19.035  0.00  0.00    +0.000 OA
ATOM     22  H   UNL     1       6.117   3.449  19.425  0.00  0.00    +0.000 HD
ENDBRANCH  12  21
TORSDOF 3
ENDMDL
MODEL 5
REMARK VINA RESULT:      -7.2      3.485      5.890
REMARK  Name = 
REMARK  5 active torsions:
REMARK  status: ('A' for Active; 'I' for Inactive)
REMARK    1  A    between atoms: C_1  and  C_2
REMARK    2  A    between atoms: C_2  and  C_3
REMARK    3  A    between atoms: C_7  and  N_8
REMARK    4  A    between atoms: C_14  and  N_15
REMARK    5  A    between atoms: C_20  and  O_21
REMARK                            x       y       z     vdW  Elec       q    Type
REMARK                         _______ _______ _______ _____ _____    ______ ____
ROOT
ATOM      1  C   UNL     1       8.264   7.664  18.215  0.00  0.00    +0.000 C 
ATOM      2  C   UNL     1       7.182   6.723  17.653  0.00  0.00    +0.000 C 
ATOM      3  C   UNL     1       5.965   7.625  17.335  0.00  0.00    +0.000 C 
ATOM      4  O   UNL     1       7.569   6.223  16.426  0.00  0.00    +0.000 OA
ATOM      5  C   UNL     1       6.904   5.196  15.830  0.00  0.00    +0.000 A 
ATOM      6  C   UNL     1       6.990   5.078  14.447  0.00  0.00    +0.000 A 
ATOM      7  C   UNL     1       6.337   4.045  13.761  0.00  0.00    +0.000 A 
ATOM      8  C   UNL     1       5.593   3.105  14.512  0.00  0.00    +0.000 A 
ATOM      9  C   UNL     1       5.505   3.210  15.909  0.00  0.00    +0.000 A 
ATOM     10  C   UNL     1       6.144   4.251  16.589  0.00  0.00    +0.000 A 
ATOM     11  C   UNL     1       6.080   4.333  18.123  0.00  0.00    +0.000 C 
ATOM     12  C   UNL     1       7.063   5.470  18.608  0.00  0.00    +0.000 C 
ENDROOT
BRANCH  11  13
ATOM     13  N   UNL     1       4.678   4.285  18.680  0.00  0.00    +0.000 NA
ATOM     14  C   UNL     1       4.167   3.054  19.286  0.00  0.00    +0.000 C 
ATOM     15  C   UNL     1       3.446   2.341  18.161  0.00  0.00    +0.000 C 
ATOM     16  C   UNL     1       2.687   3.474  17.522  0.00  0.00    +0.000 C 
ATOM     17  C   UNL     1       3.617   4.687  17.724  0.00  0.00    +0.000 C 
ENDBRANCH  11  13
BRANCH   7  18
ATOM     18  N   UNL     1       6.422   3.939  12.343  0.00  0.00    +0.000 N 
ATOM     19  O   UNL     1       5.575   3.364  11.726  0.00  0.00    +0.000 OA
ATOM     20  O   UNL     1       7.442   4.456  11.693  0.00  0.00    +0.000 OA
ENDBRANCH   7  18
BRANCH  12  21
ATOM     21  O   UNL     1       7.125   5.665  19.992  0.00  0.00    +0.000 OA
ATOM     22  H   UNL     1       7.539   6.531  20.194  0.00  0.00    +0.000 HD
ENDBRANCH  12  21
TORSDOF 3
ENDMDL
MODEL 6
REMARK VINA RESULT:      -7.2      3.460      6.033
REMARK  Name = 
REMARK  5 active torsions:
REMARK  status: ('A' for Active; 'I' for Inactive)
REMARK    1  A    between atoms: C_1  and  C_2
REMARK    2  A    between atoms: C_2  and  C_3
REMARK    3  A    between atoms: C_7  and  N_8
REMARK    4  A    between atoms: C_14  and  N_15
REMARK    5  A    between atoms: C_20  and  O_21
REMARK                            x       y       z     vdW  Elec       q    Type
REMARK                         _______ _______ _______ _____ _____    ______ ____
ROOT
ATOM      1  C   UNL     1       8.142   6.437  18.904  0.00  0.00    +0.000 C 
ATOM      2  C   UNL     1       7.039   6.131  17.874  0.00  0.00    +0.000 C 
ATOM      3  C   UNL     1       6.566   7.506  17.345  0.00  0.00    +0.000 C 
ATOM      4  O   UNL     1       7.574   5.503  16.767  0.00  0.00    +0.000 OA
ATOM      5  C   UNL     1       6.785   4.920  15.824  0.00  0.00    +0.000 A 
ATOM      6  C   UNL     1       7.302   4.772  14.541  0.00  0.00    +0.000 A 
ATOM      7  C   UNL     1       6.553   4.179  13.517  0.00  0.00    +0.000 A 
ATOM      8  C   UNL     1       5.252   3.714  13.819  0.00  0.00    +0.000 A 
ATOM      9  C   UNL     1       4.721   3.853  15.111  0.00  0.00    +0.000 A 
ATOM     10  C   UNL     1       5.465   4.460  16.127  0.00  0.00    +0.000 A 
ATOM     11  C   UNL     1       4.895   4.567  17.551  0.00  0.00    +0.000 C 
ATOM     12  C   UNL     1       6.033   5.093  18.511  0.00  0.00    +0.000 C 
ENDROOT
BRANCH  11  13
ATOM     13  N   UNL     1       3.527   5.201  17.617  0.00  0.00    +0.000 NA
ATOM     14  C   UNL     1       3.240   6.235  18.611  0.00  0.00    +0.000 C 
ATOM     15  C   UNL     1       2.644   5.487  19.786  0.00  0.00    +0.000 C 
ATOM     16  C   UNL     1       1.697   4.542  19.093  0.00  0.00    +0.000 C 
ATOM     17  C   UNL     1       2.406   4.238  17.759  0.00  0.00    +0.000 C 
ENDBRANCH  11  13
BRANCH   7  18
ATOM     18  N   UNL     1       7.087   4.041  12.204  0.00  0.00    +0.000 N 
ATOM     19  O   UNL     1       7.558   4.982  11.637  0.00  0.00    +0.000 OA
ATOM     20  O   UNL     1       7.055   2.879  11.587  0.00  0.00    +0.000 OA
ENDBRANCH   7  18
BRANCH  12  21
ATOM     21  O   UNL     1       5.671   5.238  19.855  0.00  0.00    +0.000 OA
ATOM     22  H   UNL     1       4.694   5.252  19.943  0.00  0.00    +0.000 HD
ENDBRANCH  12  21
TORSDOF 3
ENDMDL
MODEL 7
REMARK VINA RESULT:      -7.1      2.658      5.247
REMARK  Name = 
REMARK  5 active torsions:
REMARK  status: ('A' for Active; 'I' for Inactive)
REMARK    1  A    between atoms: C_1  and  C_2
REMARK    2  A    between atoms: C_2  and  C_3
REMARK    3  A    between atoms: C_7  and  N_8
REMARK    4  A    between atoms: C_14  and  N_15
REMARK    5  A    between atoms: C_20  and  O_21
REMARK                            x       y       z     vdW  Elec       q    Type
REMARK                         _______ _______ _______ _____ _____    ______ ____
ROOT
ATOM      1  C   UNL     1       1.805   8.516  18.287  0.00  0.00    +0.000 C 
ATOM      2  C   UNL     1       2.490   7.141  18.167  0.00  0.00    +0.000 C 
ATOM      3  C   UNL     1       1.483   6.235  17.419  0.00  0.00    +0.000 C 
ATOM      4  O   UNL     1       3.578   7.217  17.322  0.00  0.00    +0.000 OA
ATOM      5  C   UNL     1       4.485   6.207  17.230  0.00  0.00    +0.000 A 
ATOM      6  C   UNL     1       5.226   6.099  16.058  0.00  0.00    +0.000 A 
ATOM      7  C   UNL     1       6.180   5.088  15.889  0.00  0.00    +0.000 A 
ATOM      8  C   UNL     1       6.391   4.179  16.951  0.00  0.00    +0.000 A 
ATOM      9  C   UNL     1       5.654   4.281  18.141  0.00  0.00    +0.000 A 
ATOM     10  C   UNL     1       4.690   5.281  18.300  0.00  0.00    +0.000 A 
ATOM     11  C   UNL     1       3.919   5.415  19.624  0.00  0.00    +0.000 C 
ATOM     12  C   UNL     1       3.073   6.747  19.581  0.00  0.00    +0.000 C 
ENDROOT
BRANCH  11  13
ATOM     13  N   UNL     1       3.257   4.137  20.079  0.00  0.00    +0.000 NA
ATOM     14  C   UNL     1       2.744   3.182  19.096  0.00  0.00    +0.000 C 
ATOM     15  C   UNL     1       1.284   3.550  18.926  0.00  0.00    +0.000 C 
ATOM     16  C   UNL     1       0.859   3.768  20.354  0.00  0.00    +0.000 C 
ATOM     17  C   UNL     1       2.129   4.327  21.025  0.00  0.00    +0.000 C 
ENDBRANCH  11  13
BRANCH   7  18
ATOM     18  N   UNL     1       6.927   4.979  14.680  0.00  0.00    +0.000 N 
ATOM     19  O   UNL     1       7.905   5.643  14.509  0.00  0.00    +0.000 OA
ATOM     20  O   UNL     1       6.541   4.159  13.727  0.00  0.00    +0.000 OA
ENDBRANCH   7  18
BRANCH  12  21
ATOM     21  O   UNL     1       2.316   7.019  20.726  0.00  0.00    +0.000 OA
ATOM     22  H   UNL     1       2.790   6.711  21.528  0.00  0.00    +0.000 HD
ENDBRANCH  12  21
TORSDOF 3
ENDMDL
MODEL 8
REMARK VINA RESULT:      -7.1      2.665      5.098
REMARK  Name = 
REMARK  5 active torsions:
REMARK  status: ('A' for Active; 'I' for Inactive)
REMARK    1  A    between atoms: C_1  and  C_2
REMARK    2  A    between atoms: C_2  and  C_3
REMARK    3  A    between atoms: C_7  and  N_8
REMARK    4  A    between atoms: C_14  and  N_15
REMARK    5  A    between atoms: C_20  and  O_21
REMARK                            x       y       z     vdW  Elec       q    Type
REMARK                         _______ _______ _______ _____ _____    ______ ____
ROOT
ATOM      1  C   UNL     1       2.140   1.531  18.871  0.00  0.00    +0.000 C 
ATOM      2  C   UNL     1       2.925   2.845  18.699  0.00  0.00    +0.000 C 
ATOM      3  C   UNL     1       4.081   2.780  19.725  0.00  0.00    +0.000 C 
ATOM      4  O   UNL     1       3.557   2.872  17.472  0.00  0.00    +0.000 OA
ATOM      5  C   UNL     1       4.118   4.009  16.980  0.00  0.00    +0.000 A 
ATOM      6  C   UNL     1       5.140   3.882  16.045  0.00  0.00    +0.000 A 
ATOM      7  C   UNL     1       5.765   5.006  15.491  0.00  0.00    +0.000 A 
ATOM      8  C   UNL     1       5.322   6.288  15.893  0.00  0.00    +0.000 A 
ATOM      9  C   UNL     1       4.288   6.429  16.831  0.00  0.00    +0.000 A 
ATOM     10  C   UNL     1       3.677   5.305  17.395  0.00  0.00    +0.000 A 
ATOM     11  C   UNL     1       2.514   5.468  18.387  0.00  0.00    +0.000 C 
ATOM     12  C   UNL     1       1.897   4.044  18.677  0.00  0.00    +0.000 C 
ENDROOT
BRANCH  11  13
ATOM     13  N   UNL     1       2.821   6.386  19.545  0.00  0.00    +0.000 NA
ATOM     14  C   UNL     1       2.368   6.049  20.895  0.00  0.00    +0.000 C 
ATOM     15  C   UNL     1       1.038   6.760  21.044  0.00  0.00    +0.000 C 
ATOM     16  C   UNL     1       1.350   8.110  20.454  0.00  0.00    +0.000 C 
ATOM     17  C   UNL     1       2.381   7.791  19.354  0.00  0.00    +0.000 C 
ENDBRANCH  11  13
BRANCH   7  18
ATOM     18  N   UNL     1       6.818   4.866  14.542  0.00  0.00    +0.000 N 
ATOM     19  O   UNL     1       7.826   5.498  14.655  0.00  0.00    +0.000 OA
ATOM     20  O   UNL     1       6.691   4.052  13.516  0.00  0.00    +0.000 OA
ENDBRANCH   7  18
BRANCH  12  21
ATOM     21  O   UNL     1       0.814   4.024  19.564  0.00  0.00    +0.000 OA
ATOM     22  H   UNL     1       0.749   4.879  20.039  0.00  0.00    +0.000 HD
ENDBRANCH  12  21
TORSDOF 3
ENDMDL
MODEL 9
REMARK VINA RESULT:      -6.9      2.573      5.293
REMARK  Name = 
REMARK  5 active torsions:
REMARK  status: ('A' for Active; 'I' for Inactive)
REMARK    1  A    between atoms: C_1  and  C_2
REMARK    2  A    between atoms: C_2  and  C_3
REMARK    3  A    between atoms: C_7  and  N_8
REMARK    4  A    between atoms: C_14  and  N_15
REMARK    5  A    between atoms: C_20  and  O_21
REMARK                            x       y       z     vdW  Elec       q    Type
REMARK                         _______ _______ _______ _____ _____    ______ ____
ROOT
ATOM      1  C   UNL     1       2.193   9.483  18.956  0.00  0.00    +0.000 C 
ATOM      2  C   UNL     1       2.311   8.012  18.516  0.00  0.00    +0.000 C 
ATOM      3  C   UNL     1       1.223   7.808  17.435  0.00  0.00    +0.000 C 
ATOM      4  O   UNL     1       3.501   7.803  17.849  0.00  0.00    +0.000 OA
ATOM      5  C   UNL     1       3.952   6.551  17.564  0.00  0.00    +0.000 A 
ATOM      6  C   UNL     1       4.831   6.400  16.496  0.00  0.00    +0.000 A 
ATOM      7  C   UNL     1       5.341   5.144  16.144  0.00  0.00    +0.000 A 
ATOM      8  C   UNL     1       4.955   4.022  16.913  0.00  0.00    +0.000 A 
ATOM      9  C   UNL     1       4.074   4.162  17.996  0.00  0.00    +0.000 A 
ATOM     10  C   UNL     1       3.553   5.414  18.336  0.00  0.00    +0.000 A 
ATOM     11  C   UNL     1       2.625   5.568  19.552  0.00  0.00    +0.000 C 
ATOM     12  C   UNL     1       2.380   7.106  19.808  0.00  0.00    +0.000 C 
ENDROOT
BRANCH  11  13
ATOM     13  N   UNL     1       1.445   4.626  19.544  0.00  0.00    +0.000 NA
ATOM     14  C   UNL     1       1.190   3.753  20.691  0.00  0.00    +0.000 C 
ATOM     15  C   UNL     1       1.879   2.449  20.344  0.00  0.00    +0.000 C 
ATOM     16  C   UNL     1       1.479   2.270  18.903  0.00  0.00    +0.000 C 
ATOM     17  C   UNL     1       1.389   3.715  18.374  0.00  0.00    +0.000 C 
ENDBRANCH  11  13
BRANCH   7  18
ATOM     18  N   UNL     1       6.232   4.998  15.041  0.00  0.00    +0.000 N 
ATOM     19  O   UNL     1       5.899   4.391  14.068  0.00  0.00    +0.000 OA
ATOM     20  O   UNL     1       7.441   5.515  15.085  0.00  0.00    +0.000 OA
ENDBRANCH   7  18
BRANCH  12  21
ATOM     21  O   UNL     1       1.555   7.414  20.896  0.00  0.00    +0.000 OA
ATOM     22  H   UNL     1       0.748   7.879  20.589  0.00  0.00    +0.000 HD
ENDBRANCH  12  21
TORSDOF 3
ENDMDL
