MODEL 1
REMARK VINA RESULT:      -6.8      0.000      0.000
REMARK  Name = 
REMARK  8 active torsions:
REMARK  status: ('A' for Active; 'I' for Inactive)
REMARK    1  A    between atoms: C_1  and  C_2
REMARK    2  A    between atoms: C_2  and  C_3
REMARK    3  A    between atoms: C_3  and  C_4
REMARK    4  A    between atoms: C_4  and  N_5
REMARK    5  A    between atoms: N_15  and  C_16
REMARK    6  A    between atoms: C_16  and  C_17
REMARK    7  A    between atoms: C_17  and  C_18
REMARK    8  A    between atoms: C_18  and  C_19
REMARK                            x       y       z     vdW  Elec       q    Type
REMARK                         _______ _______ _______ _____ _____    ______ ____
ROOT
ATOM      1  N   UNL     1       2.454   3.497  18.450  0.00  0.00    +0.000 N 
ATOM      2  C   UNL     1       1.544   4.292  17.807  0.00  0.00    +0.000 A 
ATOM      3  N   UNL     1       2.084   5.416  17.392  0.00  0.00    +0.000 NA
ATOM      4  C   UNL     1       3.403   5.355  17.786  0.00  0.00    +0.000 A 
ATOM      5  C   UNL     1       3.656   4.157  18.448  0.00  0.00    +0.000 A 
ATOM      6  C   UNL     1       4.927   3.754  19.012  0.00  0.00    +0.000 C 
ATOM      7  O   UNL     1       5.124   2.702  19.611  0.00  0.00    +0.000 OA
ATOM      8  C   UNL     1       5.949   4.782  18.771  0.00  0.00    +0.000 A 
ATOM      9  N   UNL     1       7.271   4.717  19.153  0.00  0.00    +0.000 NA
ATOM     10  C   UNL     1       7.811   5.840  18.736  0.00  0.00    +0.000 A 
ATOM     11  N   UNL     1       6.898   6.643  18.106  0.00  0.00    +0.000 N 
ATOM     12  C   UNL     1       5.697   5.981  18.111  0.00  0.00    +0.000 A 
ATOM     13  C   UNL     1       4.420   6.392  17.564  0.00  0.00    +0.000 C 
ATOM     14  O   UNL     1       4.213   7.459  17.000  0.00  0.00    +0.000 OA
ENDROOT
BRANCH   1  15
ATOM     15  C   UNL     1       2.157   2.207  19.045  0.00  0.00    +0.000 C 
BRANCH  15  16
ATOM     16  C   UNL     1       0.900   2.267  19.908  0.00  0.00    +0.000 C 
BRANCH  16  18
ATOM     17  C   UNL     1       2.421   2.741  21.849  0.00  0.00    +0.000 C 
ATOM     18  C   UNL     1       1.119   3.114  21.158  0.00  0.00    +0.000 C 
ENDBRANCH  16  18
ENDBRANCH  15  16
ENDBRANCH   1  15
BRANCH  11  19
ATOM     19  C   UNL     1       7.186   7.939  17.518  0.00  0.00    +0.000 C 
BRANCH  19  20
ATOM     20  C   UNL     1       8.442   8.579  18.107  0.00  0.00    +0.000 C 
BRANCH  20  21
ATOM     21  C   UNL     1       8.320  10.103  18.178  0.00  0.00    +0.000 C 
ATOM     22  C   UNL     1       9.538  10.715  18.854  0.00  0.00    +0.000 C 
ENDBRANCH  20  21
ENDBRANCH  19  20
ENDBRANCH  11  19
TORSDOF 6
ENDMDL
MODEL 2
REMARK VINA RESULT:      -6.7      0.318      7.043
REMARK  Name = 
REMARK  8 active torsions:
REMARK  status: ('A' for Active; 'I' for Inactive)
REMARK    1  A    between atoms: C_1  and  C_2
REMARK    2  A    between atoms: C_2  and  C_3
REMARK    3  A    between atoms: C_3  and  C_4
REMARK    4  A    between atoms: C_4  and  N_5
REMARK    5  A    between atoms: N_15  and  C_16
REMARK    6  A    between atoms: C_16  and  C_17
REMARK    7  A    between atoms: C_17  and  C_18
REMARK    8  A    between atoms: C_18  and  C_19
REMARK                            x       y       z     vdW  Elec       q    Type
REMARK                         _______ _______ _______ _____ _____    ______ ____
ROOT
ATOM      1  N   UNL     1       6.931   6.697  18.043  0.00  0.00    +0.000 N 
ATOM      2  C   UNL     1       7.852   5.911  18.679  0.00  0.00    +0.000 A 
ATOM      3  N   UNL     1       7.316   4.801  19.136  0.00  0.00    +0.000 NA
ATOM      4  C   UNL     1       5.985   4.868  18.786  0.00  0.00    +0.000 A 
ATOM      5  C   UNL     1       5.724   6.049  18.096  0.00  0.00    +0.000 A 
ATOM      6  C   UNL     1       4.435   6.463  17.585  0.00  0.00    +0.000 C 
ATOM      7  O   UNL     1       4.221   7.518  16.998  0.00  0.00    +0.000 OA
ATOM      8  C   UNL     1       3.413   5.445  17.872  0.00  0.00    +0.000 A 
ATOM      9  N   UNL     1       2.085   5.506  17.512  0.00  0.00    +0.000 NA
ATOM     10  C   UNL     1       1.549   4.395  17.966  0.00  0.00    +0.000 A 
ATOM     11  N   UNL     1       2.466   3.614  18.617  0.00  0.00    +0.000 N 
ATOM     12  C   UNL     1       3.673   4.266  18.563  0.00  0.00    +0.000 A 
ATOM     13  C   UNL     1       4.959   3.861  19.091  0.00  0.00    +0.000 C 
ATOM     14  O   UNL     1       5.165   2.825  19.711  0.00  0.00    +0.000 OA
ENDROOT
BRANCH   1  15
ATOM     15  C   UNL     1       7.210   7.995  17.456  0.00  0.00    +0.000 C 
BRANCH  15  16
ATOM     16  C   UNL     1       8.501   8.591  18.009  0.00  0.00    +0.000 C 
BRANCH  16  18
ATOM     17  C   UNL     1       9.368  10.612  19.222  0.00  0.00    +0.000 C 
ATOM     18  C   UNL     1       8.394  10.104  18.172  0.00  0.00    +0.000 C 
ENDBRANCH  16  18
ENDBRANCH  15  16
ENDBRANCH   1  15
BRANCH  11  19
ATOM     19  C   UNL     1       2.192   2.319  19.214  0.00  0.00    +0.000 C 
BRANCH  19  20
ATOM     20  C   UNL     1       0.986   2.354  20.150  0.00  0.00    +0.000 C 
BRANCH  20  21
ATOM     21  C   UNL     1       1.408   2.509  21.612  0.00  0.00    +0.000 C 
ATOM     22  C   UNL     1       2.287   3.737  21.798  0.00  0.00    +0.000 C 
ENDBRANCH  20  21
ENDBRANCH  19  20
ENDBRANCH  11  19
TORSDOF 6
ENDMDL
MODEL 3
REMARK VINA RESULT:      -6.6      1.785      2.628
REMARK  Name = 
REMARK  8 active torsions:
REMARK  status: ('A' for Active; 'I' for Inactive)
REMARK    1  A    between atoms: C_1  and  C_2
REMARK    2  A    between atoms: C_2  and  C_3
REMARK    3  A    between atoms: C_3  and  C_4
REMARK    4  A    between atoms: C_4  and  N_5
REMARK    5  A    between atoms: N_15  and  C_16
REMARK    6  A    between atoms: C_16  and  C_17
REMARK    7  A    between atoms: C_17  and  C_18
REMARK    8  A    between atoms: C_18  and  C_19
REMARK                            x       y       z     vdW  Elec       q    Type
REMARK                         _______ _______ _______ _____ _____    ______ ____
ROOT
ATOM      1  N   UNL     1       3.642   2.577  18.772  0.00  0.00    +0.000 N 
ATOM      2  C   UNL     1       4.137   2.260  20.008  0.00  0.00    +0.000 A 
ATOM      3  N   UNL     1       5.130   3.048  20.354  0.00  0.00    +0.000 NA
ATOM      4  C   UNL     1       5.293   3.915  19.296  0.00  0.00    +0.000 A 
ATOM      5  C   UNL     1       4.367   3.639  18.295  0.00  0.00    +0.000 A 
ATOM      6  C   UNL     1       4.250   4.338  17.033  0.00  0.00    +0.000 C 
ATOM      7  O   UNL     1       3.440   4.065  16.154  0.00  0.00    +0.000 OA
ATOM      8  C   UNL     1       5.242   5.420  16.947  0.00  0.00    +0.000 A 
ATOM      9  N   UNL     1       5.398   6.295  15.896  0.00  0.00    +0.000 NA
ATOM     10  C   UNL     1       6.389   7.085  16.242  0.00  0.00    +0.000 A 
ATOM     11  N   UNL     1       6.896   6.759  17.472  0.00  0.00    +0.000 N 
ATOM     12  C   UNL     1       6.170   5.696  17.947  0.00  0.00    +0.000 A 
ATOM     13  C   UNL     1       6.298   4.983  19.201  0.00  0.00    +0.000 C 
ATOM     14  O   UNL     1       7.133   5.231  20.063  0.00  0.00    +0.000 OA
ENDROOT
BRANCH   1  15
ATOM     15  C   UNL     1       2.563   1.874  18.103  0.00  0.00    +0.000 C 
BRANCH  15  16
ATOM     16  C   UNL     1       1.205   2.245  18.694  0.00  0.00    +0.000 C 
BRANCH  16  18
ATOM     17  C   UNL     1       0.936   4.106  20.359  0.00  0.00    +0.000 C 
ATOM     18  C   UNL     1       1.072   3.752  18.887  0.00  0.00    +0.000 C 
ENDBRANCH  16  18
ENDBRANCH  15  16
ENDBRANCH   1  15
BRANCH  11  19
ATOM     19  C   UNL     1       7.981   7.452  18.143  0.00  0.00    +0.000 C 
BRANCH  19  20
ATOM     20  C   UNL     1       8.012   8.943  17.812  0.00  0.00    +0.000 C 
BRANCH  20  21
ATOM     21  C   UNL     1       8.891   9.723  18.792  0.00  0.00    +0.000 C 
ATOM     22  C   UNL     1       9.351  11.038  18.181  0.00  0.00    +0.000 C 
ENDBRANCH  20  21
ENDBRANCH  19  20
ENDBRANCH  11  19
TORSDOF 6
ENDMDL
MODEL 4
REMARK VINA RESULT:      -6.5      1.058      6.993
REMARK  Name = 
REMARK  8 active torsions:
REMARK  status: ('A' for Active; 'I' for Inactive)
REMARK    1  A    between atoms: C_1  and  C_2
REMARK    2  A    between atoms: C_2  and  C_3
REMARK    3  A    between atoms: C_3  and  C_4
REMARK    4  A    between atoms: C_4  and  N_5
REMARK    5  A    between atoms: N_15  and  C_16
REMARK    6  A    between atoms: C_16  and  C_17
REMARK    7  A    between atoms: C_17  and  C_18
REMARK    8  A    between atoms: C_18  and  C_19
REMARK                            x       y       z     vdW  Elec       q    Type
REMARK                         _______ _______ _______ _____ _____    ______ ____
ROOT
ATOM      1  N   UNL     1       7.384   6.482  18.101  0.00  0.00    +0.000 N 
ATOM      2  C   UNL     1       7.960   6.156  19.299  0.00  0.00    +0.000 A 
ATOM      3  N   UNL     1       7.310   5.189  19.908  0.00  0.00    +0.000 NA
ATOM      4  C   UNL     1       6.261   4.873  19.072  0.00  0.00    +0.000 A 
ATOM      5  C   UNL     1       6.292   5.670  17.932  0.00  0.00    +0.000 A 
ATOM      6  C   UNL     1       5.340   5.626  16.842  0.00  0.00    +0.000 C 
ATOM      7  O   UNL     1       5.374   6.353  15.855  0.00  0.00    +0.000 OA
ATOM      8  C   UNL     1       4.324   4.591  17.083  0.00  0.00    +0.000 A 
ATOM      9  N   UNL     1       3.283   4.267  16.244  0.00  0.00    +0.000 NA
ATOM     10  C   UNL     1       2.633   3.298  16.850  0.00  0.00    +0.000 A 
ATOM     11  N   UNL     1       3.199   2.981  18.056  0.00  0.00    +0.000 N 
ATOM     12  C   UNL     1       4.291   3.795  18.224  0.00  0.00    +0.000 A 
ATOM     13  C   UNL     1       5.233   3.853  19.324  0.00  0.00    +0.000 C 
ATOM     14  O   UNL     1       5.178   3.155  20.328  0.00  0.00    +0.000 OA
ENDROOT
BRANCH   1  15
ATOM     15  C   UNL     1       7.854   7.526  17.211  0.00  0.00    +0.000 C 
BRANCH  15  16
ATOM     16  C   UNL     1       7.601   8.913  17.796  0.00  0.00    +0.000 C 
BRANCH  16  18
ATOM     17  C   UNL     1       9.073  10.904  18.219  0.00  0.00    +0.000 C 
ATOM     18  C   UNL     1       8.826   9.438  18.539  0.00  0.00    +0.000 C 
ENDBRANCH  16  18
ENDBRANCH  15  16
ENDBRANCH   1  15
BRANCH  11  19
ATOM     19  C   UNL     1       2.730   1.944  18.957  0.00  0.00    +0.000 C 
BRANCH  19  20
ATOM     20  C   UNL     1       1.289   2.175  19.409  0.00  0.00    +0.000 C 
BRANCH  20  21
ATOM     21  C   UNL     1       1.177   3.370  20.357  0.00  0.00    +0.000 C 
ATOM     22  C   UNL     1       1.904   3.096  21.665  0.00  0.00    +0.000 C 
ENDBRANCH  20  21
ENDBRANCH  19  20
ENDBRANCH  11  19
TORSDOF 6
ENDMDL
MODEL 5
REMARK VINA RESULT:      -6.4      3.832      5.624
REMARK  Name = 
REMARK  8 active torsions:
REMARK  status: ('A' for Active; 'I' for Inactive)
REMARK    1  A    between atoms: C_1  and  C_2
REMARK    2  A    between atoms: C_2  and  C_3
REMARK    3  A    between atoms: C_3  and  C_4
REMARK    4  A    between atoms: C_4  and  N_5
REMARK    5  A    between atoms: N_15  and  C_16
REMARK    6  A    between atoms: C_16  and  C_17
REMARK    7  A    between atoms: C_17  and  C_18
REMARK    8  A    between atoms: C_18  and  C_19
REMARK                            x       y       z     vdW  Elec       q    Type
REMARK                         _______ _______ _______ _____ _____    ______ ____
ROOT
ATOM      1  N   UNL     1       4.184   5.133  18.092  0.00  0.00    +0.000 N 
ATOM      2  C   UNL     1       4.620   5.673  16.913  0.00  0.00    +0.000 A 
ATOM      3  N   UNL     1       4.133   6.879  16.718  0.00  0.00    +0.000 NA
ATOM      4  C   UNL     1       3.341   7.134  17.816  0.00  0.00    +0.000 A 
ATOM      5  C   UNL     1       3.362   6.053  18.691  0.00  0.00    +0.000 A 
ATOM      6  C   UNL     1       2.638   5.962  19.942  0.00  0.00    +0.000 C 
ATOM      7  O   UNL     1       2.654   4.990  20.689  0.00  0.00    +0.000 OA
ATOM      8  C   UNL     1       1.877   7.195  20.190  0.00  0.00    +0.000 A 
ATOM      9  N   UNL     1       1.094   7.456  21.292  0.00  0.00    +0.000 NA
ATOM     10  C   UNL     1       0.609   8.662  21.099  0.00  0.00    +0.000 A 
ATOM     11  N   UNL     1       1.032   9.198  19.912  0.00  0.00    +0.000 N 
ATOM     12  C   UNL     1       1.853   8.276  19.314  0.00  0.00    +0.000 A 
ATOM     13  C   UNL     1       2.562   8.358  18.053  0.00  0.00    +0.000 C 
ATOM     14  O   UNL     1       2.517   9.312  17.287  0.00  0.00    +0.000 OA
ENDROOT
BRANCH   1  15
ATOM     15  C   UNL     1       4.524   3.808  18.575  0.00  0.00    +0.000 C 
BRANCH  15  16
ATOM     16  C   UNL     1       3.722   2.728  17.854  0.00  0.00    +0.000 C 
BRANCH  16  18
ATOM     17  C   UNL     1       1.338   2.449  18.598  0.00  0.00    +0.000 C 
ATOM     18  C   UNL     1       2.777   2.003  18.808  0.00  0.00    +0.000 C 
ENDBRANCH  16  18
ENDBRANCH  15  16
ENDBRANCH   1  15
BRANCH  11  19
ATOM     19  C   UNL     1       0.688  10.520  19.418  0.00  0.00    +0.000 C 
BRANCH  19  20
ATOM     20  C   UNL     1      -0.791  10.637  19.053  0.00  0.00    +0.000 C 
BRANCH  20  21
ATOM     21  C   UNL     1      -1.093   9.989  17.701  0.00  0.00    +0.000 C 
ATOM     22  C   UNL     1      -2.480  10.377  17.210  0.00  0.00    +0.000 C 
ENDBRANCH  20  21
ENDBRANCH  19  20
ENDBRANCH  11  19
TORSDOF 6
ENDMDL
MODEL 6
REMARK VINA RESULT:      -6.4      3.736      6.006
REMARK  Name = 
REMARK  8 active torsions:
REMARK  status: ('A' for Active; 'I' for Inactive)
REMARK    1  A    between atoms: C_1  and  C_2
REMARK    2  A    between atoms: C_2  and  C_3
REMARK    3  A    between atoms: C_3  and  C_4
REMARK    4  A    between atoms: C_4  and  N_5
REMARK    5  A    between atoms: N_15  and  C_16
REMARK    6  A    between atoms: C_16  and  C_17
REMARK    7  A    between atoms: C_17  and  C_18
REMARK    8  A    between atoms: C_18  and  C_19
REMARK                            x       y       z     vdW  Elec       q    Type
REMARK                         _______ _______ _______ _____ _____    ______ ____
ROOT
ATOM      1  N   UNL     1       4.655   4.644  17.955  0.00  0.00    +0.000 N 
ATOM      2  C   UNL     1       4.402   3.787  18.992  0.00  0.00    +0.000 A 
ATOM      3  N   UNL     1       3.528   4.287  19.837  0.00  0.00    +0.000 NA
ATOM      4  C   UNL     1       3.200   5.526  19.332  0.00  0.00    +0.000 A 
ATOM      5  C   UNL     1       3.894   5.767  18.150  0.00  0.00    +0.000 A 
ATOM      6  C   UNL     1       3.809   6.970  17.349  0.00  0.00    +0.000 C 
ATOM      7  O   UNL     1       4.445   7.171  16.320  0.00  0.00    +0.000 OA
ATOM      8  C   UNL     1       2.857   7.920  17.941  0.00  0.00    +0.000 A 
ATOM      9  N   UNL     1       2.519   9.154  17.431  0.00  0.00    +0.000 NA
ATOM     10  C   UNL     1       1.644   9.653  18.274  0.00  0.00    +0.000 A 
ATOM     11  N   UNL     1       1.401   8.804  19.321  0.00  0.00    +0.000 N 
ATOM     12  C   UNL     1       2.164   7.681  19.125  0.00  0.00    +0.000 A 
ATOM     13  C   UNL     1       2.265   6.486  19.936  0.00  0.00    +0.000 C 
ATOM     14  O   UNL     1       1.659   6.299  20.984  0.00  0.00    +0.000 OA
ENDROOT
BRANCH   1  15
ATOM     15  C   UNL     1       5.592   4.389  16.877  0.00  0.00    +0.000 C 
BRANCH  15  16
ATOM     16  C   UNL     1       7.035   4.423  17.373  0.00  0.00    +0.000 C 
BRANCH  16  18
ATOM     17  C   UNL     1       7.766   5.940  19.237  0.00  0.00    +0.000 C 
ATOM     18  C   UNL     1       7.464   5.838  17.751  0.00  0.00    +0.000 C 
ENDBRANCH  16  18
ENDBRANCH  15  16
ENDBRANCH   1  15
BRANCH  11  19
ATOM     19  C   UNL     1       0.472   9.056  20.408  0.00  0.00    +0.000 C 
BRANCH  19  20
ATOM     20  C   UNL     1       0.933  10.196  21.315  0.00  0.00    +0.000 C 
BRANCH  20  21
ATOM     21  C   UNL     1      -0.249  10.985  21.879  0.00  0.00    +0.000 C 
ATOM     22  C   UNL     1      -0.826  10.299  23.108  0.00  0.00    +0.000 C 
ENDBRANCH  20  21
ENDBRANCH  19  20
ENDBRANCH  11  19
TORSDOF 6
ENDMDL
MODEL 7
REMARK VINA RESULT:      -6.3      3.737      4.942
REMARK  Name = 
REMARK  8 active torsions:
REMARK  status: ('A' for Active; 'I' for Inactive)
REMARK    1  A    between atoms: C_1  and  C_2
REMARK    2  A    between atoms: C_2  and  C_3
REMARK    3  A    between atoms: C_3  and  C_4
REMARK    4  A    between atoms: C_4  and  N_5
REMARK    5  A    between atoms: N_15  and  C_16
REMARK    6  A    between atoms: C_16  and  C_17
REMARK    7  A    between atoms: C_17  and  C_18
REMARK    8  A    between atoms: C_18  and  C_19
REMARK                            x       y       z     vdW  Elec       q    Type
REMARK                         _______ _______ _______ _____ _____    ______ ____
ROOT
ATOM      1  N   UNL     1       1.652   7.826  20.162  0.00  0.00    +0.000 N 
ATOM      2  C   UNL     1       1.816   8.868  19.289  0.00  0.00    +0.000 A 
ATOM      3  N   UNL     1       2.540   8.524  18.248  0.00  0.00    +0.000 NA
ATOM      4  C   UNL     1       2.868   7.201  18.452  0.00  0.00    +0.000 A 
ATOM      5  C   UNL     1       2.316   6.744  19.646  0.00  0.00    +0.000 A 
ATOM      6  C   UNL     1       2.462   5.410  20.189  0.00  0.00    +0.000 C 
ATOM      7  O   UNL     1       1.985   5.033  21.254  0.00  0.00    +0.000 OA
ATOM      8  C   UNL     1       3.264   4.569  19.289  0.00  0.00    +0.000 A 
ATOM      9  N   UNL     1       3.581   3.244  19.486  0.00  0.00    +0.000 NA
ATOM     10  C   UNL     1       4.304   2.898  18.444  0.00  0.00    +0.000 A 
ATOM     11  N   UNL     1       4.482   3.944  17.577  0.00  0.00    +0.000 N 
ATOM     12  C   UNL     1       3.817   5.026  18.096  0.00  0.00    +0.000 A 
ATOM     13  C   UNL     1       3.688   6.366  17.563  0.00  0.00    +0.000 C 
ATOM     14  O   UNL     1       4.196   6.755  16.519  0.00  0.00    +0.000 OA
ENDROOT
BRANCH   1  15
ATOM     15  C   UNL     1       0.925   7.899  21.416  0.00  0.00    +0.000 C 
BRANCH  15  16
ATOM     16  C   UNL     1       0.885   9.327  21.954  0.00  0.00    +0.000 C 
BRANCH  16  18
ATOM     17  C   UNL     1      -0.857  10.856  22.924  0.00  0.00    +0.000 C 
ATOM     18  C   UNL     1      -0.193   9.492  23.022  0.00  0.00    +0.000 C 
ENDBRANCH  16  18
ENDBRANCH  15  16
ENDBRANCH   1  15
BRANCH  11  19
ATOM     19  C   UNL     1       5.216   3.880  16.326  0.00  0.00    +0.000 C 
BRANCH  19  20
ATOM     20  C   UNL     1       6.654   4.374  16.469  0.00  0.00    +0.000 C 
BRANCH  20  21
ATOM     21  C   UNL     1       7.230   4.838  15.130  0.00  0.00    +0.000 C 
ATOM     22  C   UNL     1       6.402   4.308  13.969  0.00  0.00    +0.000 C 
ENDBRANCH  20  21
ENDBRANCH  19  20
ENDBRANCH  11  19
TORSDOF 6
ENDMDL
MODEL 8
REMARK VINA RESULT:      -6.3      3.786      6.575
REMARK  Name = 
REMARK  8 active torsions:
REMARK  status: ('A' for Active; 'I' for Inactive)
REMARK    1  A    between atoms: C_1  and  C_2
REMARK    2  A    between atoms: C_2  and  C_3
REMARK    3  A    between atoms: C_3  and  C_4
REMARK    4  A    between atoms: C_4  and  N_5
REMARK    5  A    between atoms: N_15  and  C_16
REMARK    6  A    between atoms: C_16  and  C_17
REMARK    7  A    between atoms: C_17  and  C_18
REMARK    8  A    between atoms: C_18  and  C_19
REMARK                            x       y       z     vdW  Elec       q    Type
REMARK                         _______ _______ _______ _____ _____    ______ ____
ROOT
ATOM      1  N   UNL     1       1.213   9.068  19.677  0.00  0.00    +0.000 N 
ATOM      2  C   UNL     1       0.683   8.788  20.908  0.00  0.00    +0.000 A 
ATOM      3  N   UNL     1       1.032   7.593  21.330  0.00  0.00    +0.000 NA
ATOM      4  C   UNL     1       1.820   7.068  20.329  0.00  0.00    +0.000 A 
ATOM      5  C   UNL     1       1.949   7.980  19.285  0.00  0.00    +0.000 A 
ATOM      6  C   UNL     1       2.693   7.766  18.062  0.00  0.00    +0.000 C 
ATOM      7  O   UNL     1       2.777   8.575  17.145  0.00  0.00    +0.000 OA
ATOM      8  C   UNL     1       3.333   6.442  18.071  0.00  0.00    +0.000 A 
ATOM      9  N   UNL     1       4.131   5.921  17.076  0.00  0.00    +0.000 NA
ATOM     10  C   UNL     1       4.481   4.727  17.499  0.00  0.00    +0.000 A 
ATOM     11  N   UNL     1       3.939   4.440  18.723  0.00  0.00    +0.000 N 
ATOM     12  C   UNL     1       3.203   5.530  19.113  0.00  0.00    +0.000 A 
ATOM     13  C   UNL     1       2.441   5.736  20.328  0.00  0.00    +0.000 C 
ATOM     14  O   UNL     1       2.325   4.915  21.228  0.00  0.00    +0.000 OA
ENDROOT
BRANCH   1  15
ATOM     15  C   UNL     1       0.989  10.295  18.936  0.00  0.00    +0.000 C 
BRANCH  15  16
ATOM     16  C   UNL     1      -0.168  11.099  19.524  0.00  0.00    +0.000 C 
BRANCH  16  18
ATOM     17  C   UNL     1      -1.352  10.051  17.572  0.00  0.00    +0.000 C 
ATOM     18  C   UNL     1      -1.319  11.230  18.531  0.00  0.00    +0.000 C 
ENDBRANCH  16  18
ENDBRANCH  15  16
ENDBRANCH   1  15
BRANCH  11  19
ATOM     19  C   UNL     1       4.152   3.211  19.467  0.00  0.00    +0.000 C 
BRANCH  19  20
ATOM     20  C   UNL     1       3.328   2.048  18.916  0.00  0.00    +0.000 C 
BRANCH  20  21
ATOM     21  C   UNL     1       1.957   1.956  19.588  0.00  0.00    +0.000 C 
ATOM     22  C   UNL     1       0.875   2.555  18.702  0.00  0.00    +0.000 C 
ENDBRANCH  20  21
ENDBRANCH  19  20
ENDBRANCH  11  19
TORSDOF 6
ENDMDL
MODEL 9
REMARK VINA RESULT:      -6.3      3.524      4.482
REMARK  Name = 
REMARK  8 active torsions:
REMARK  status: ('A' for Active; 'I' for Inactive)
REMARK    1  A    between atoms: C_1  and  C_2
REMARK    2  A    between atoms: C_2  and  C_3
REMARK    3  A    between atoms: C_3  and  C_4
REMARK    4  A    between atoms: C_4  and  N_5
REMARK    5  A    between atoms: N_15  and  C_16
REMARK    6  A    between atoms: C_16  and  C_17
REMARK    7  A    between atoms: C_17  and  C_18
REMARK    8  A    between atoms: C_18  and  C_19
REMARK                            x       y       z     vdW  Elec       q    Type
REMARK                         _______ _______ _______ _____ _____    ______ ____
ROOT
ATOM      1  N   UNL     1       1.647   7.845  20.036  0.00  0.00    +0.000 N 
ATOM      2  C   UNL     1       1.751   8.880  19.147  0.00  0.00    +0.000 A 
ATOM      3  N   UNL     1       2.551   8.588  18.146  0.00  0.00    +0.000 NA
ATOM      4  C   UNL     1       2.992   7.306  18.395  0.00  0.00    +0.000 A 
ATOM      5  C   UNL     1       2.433   6.821  19.574  0.00  0.00    +0.000 A 
ATOM      6  C   UNL     1       2.679   5.518  20.153  0.00  0.00    +0.000 C 
ATOM      7  O   UNL     1       2.193   5.117  21.205  0.00  0.00    +0.000 OA
ATOM      8  C   UNL     1       3.597   4.740  19.308  0.00  0.00    +0.000 A 
ATOM      9  N   UNL     1       4.029   3.455  19.548  0.00  0.00    +0.000 NA
ATOM     10  C   UNL     1       4.827   3.161  18.547  0.00  0.00    +0.000 A 
ATOM     11  N   UNL     1       4.945   4.202  17.665  0.00  0.00    +0.000 N 
ATOM     12  C   UNL     1       4.158   5.225  18.130  0.00  0.00    +0.000 A 
ATOM     13  C   UNL     1       3.927   6.537  17.561  0.00  0.00    +0.000 C 
ATOM     14  O   UNL     1       4.442   6.953  16.531  0.00  0.00    +0.000 OA
ENDROOT
BRANCH   1  15
ATOM     15  C   UNL     1       0.861   7.872  21.255  0.00  0.00    +0.000 C 
BRANCH  15  16
ATOM     16  C   UNL     1       0.696   9.295  21.781  0.00  0.00    +0.000 C 
BRANCH  16  18
ATOM     17  C   UNL     1      -0.911  10.836  22.944  0.00  0.00    +0.000 C 
ATOM     18  C   UNL     1      -0.460   9.395  22.772  0.00  0.00    +0.000 C 
ENDBRANCH  16  18
ENDBRANCH  15  16
ENDBRANCH   1  15
BRANCH  11  19
ATOM     19  C   UNL     1       5.736   4.186  16.448  0.00  0.00    +0.000 C 
BRANCH  19  20
ATOM     20  C   UNL     1       7.190   4.585  16.694  0.00  0.00    +0.000 C 
BRANCH  20  21
ATOM     21  C   UNL     1       7.399   5.113  18.115  0.00  0.00    +0.000 C 
ATOM     22  C   UNL     1       7.651   6.613  18.105  0.00  0.00    +0.000 C 
ENDBRANCH  20  21
ENDBRANCH  19  20
ENDBRANCH  11  19
TORSDOF 6
ENDMDL
