MODEL 1
REMARK VINA RESULT:      -6.1      0.000      0.000
REMARK  Name = 
REMARK  6 active torsions:
REMARK  status: ('A' for Active; 'I' for Inactive)
REMARK    1  A    between atoms: N_2  and  O_4
REMARK    2  A    between atoms: O_4  and  C_5
REMARK    3  A    between atoms: C_7  and  O_8
REMARK    4  A    between atoms: O_8  and  N_9
REMARK    5  A    between atoms: C_12  and  O_13
REMARK    6  A    between atoms: C_15  and  O_16
REMARK                            x       y       z     vdW  Elec       q    Type
REMARK                         _______ _______ _______ _____ _____    ______ ____
ROOT
ATOM      1  C   UNL     1       2.498   5.594  18.217  0.00  0.00    +0.000 C 
ATOM      2  C   UNL     1       3.744   5.267  17.382  0.00  0.00    +0.000 C 
ATOM      3  C   UNL     1       4.797   4.477  18.179  0.00  0.00    +0.000 C 
ATOM      4  C   UNL     1       4.183   3.203  18.796  0.00  0.00    +0.000 C 
ATOM      5  C   UNL     1       2.904   3.497  19.584  0.00  0.00    +0.000 C 
ATOM      6  C   UNL     1       1.885   4.290  18.762  0.00  0.00    +0.000 C 
ENDROOT
BRANCH   4   7
ATOM      7  O   UNL     1       5.096   2.523  19.653  0.00  0.00    +0.000 OA
ATOM      8  H   UNL     1       5.425   1.712  19.217  0.00  0.00    +0.000 HD
ENDBRANCH   4   7
BRANCH   6   9
ATOM      9  O   UNL     1       1.362   3.500  17.695  0.00  0.00    +0.000 OA
ATOM     10  H   UNL     1       1.283   4.015  16.874  0.00  0.00    +0.000 HD
ENDBRANCH   6   9
BRANCH   1  11
ATOM     11  O   UNL     1       2.943   6.434  19.287  0.00  0.00    +0.000 OA
BRANCH  11  13
ATOM     12  O   UNL     1       2.185   8.412  18.491  0.00  0.00    +0.000 OA
ATOM     13  N   UNL     1       2.207   7.633  19.444  0.00  0.00    +0.000 N 
ATOM     14  O   UNL     1       1.665   7.711  20.543  0.00  0.00    +0.000 OA
ENDBRANCH  11  13
ENDBRANCH   1  11
BRANCH   3  15
ATOM     15  O   UNL     1       5.820   4.119  17.244  0.00  0.00    +0.000 OA
BRANCH  15  16
ATOM     16  N   UNL     1       7.131   4.475  17.651  0.00  0.00    +0.000 N 
ATOM     17  O   UNL     1       8.009   4.481  16.788  0.00  0.00    +0.000 OA
ATOM     18  O   UNL     1       7.203   4.702  18.856  0.00  0.00    +0.000 OA
ENDBRANCH  15  16
ENDBRANCH   3  15
TORSDOF 6
ENDMDL
MODEL 2
REMARK VINA RESULT:      -6.0      2.273      3.471
REMARK  Name = 
REMARK  6 active torsions:
REMARK  status: ('A' for Active; 'I' for Inactive)
REMARK    1  A    between atoms: N_2  and  O_4
REMARK    2  A    between atoms: O_4  and  C_5
REMARK    3  A    between atoms: C_7  and  O_8
REMARK    4  A    between atoms: O_8  and  N_9
REMARK    5  A    between atoms: C_12  and  O_13
REMARK    6  A    between atoms: C_15  and  O_16
REMARK                            x       y       z     vdW  Elec       q    Type
REMARK                         _______ _______ _______ _____ _____    ______ ____
ROOT
ATOM      1  C   UNL     1       3.146   3.769  19.438  0.00  0.00    +0.000 C 
ATOM      2  C   UNL     1       4.378   4.684  19.377  0.00  0.00    +0.000 C 
ATOM      3  C   UNL     1       5.312   4.336  18.204  0.00  0.00    +0.000 C 
ATOM      4  C   UNL     1       4.545   4.336  16.866  0.00  0.00    +0.000 C 
ATOM      5  C   UNL     1       3.279   3.477  16.922  0.00  0.00    +0.000 C 
ATOM      6  C   UNL     1       2.379   3.846  18.104  0.00  0.00    +0.000 C 
ENDROOT
BRANCH   4   7
ATOM      7  O   UNL     1       5.351   3.883  15.781  0.00  0.00    +0.000 OA
ATOM      8  H   UNL     1       5.218   4.459  15.002  0.00  0.00    +0.000 HD
ENDBRANCH   4   7
BRANCH   6   9
ATOM      9  O   UNL     1       1.811   5.144  17.929  0.00  0.00    +0.000 OA
ATOM     10  H   UNL     1       1.960   5.707  18.707  0.00  0.00    +0.000 HD
ENDBRANCH   6   9
BRANCH   1  11
ATOM     11  O   UNL     1       3.642   2.446  19.664  0.00  0.00    +0.000 OA
BRANCH  11  13
ATOM     12  O   UNL     1       5.100   1.714  21.233  0.00  0.00    +0.000 OA
ATOM     13  N   UNL     1       3.974   2.160  21.010  0.00  0.00    +0.000 N 
ATOM     14  O   UNL     1       3.060   2.425  21.786  0.00  0.00    +0.000 OA
ENDBRANCH  11  13
ENDBRANCH   1  11
BRANCH   3  15
ATOM     15  O   UNL     1       6.322   5.351  18.184  0.00  0.00    +0.000 OA
BRANCH  15  16
ATOM     16  N   UNL     1       7.649   4.852  18.221  0.00  0.00    +0.000 N 
ATOM     17  O   UNL     1       8.055   4.249  17.227  0.00  0.00    +0.000 OA
ATOM     18  O   UNL     1       8.206   5.076  19.293  0.00  0.00    +0.000 OA
ENDBRANCH  15  16
ENDBRANCH   3  15
TORSDOF 6
ENDMDL
MODEL 3
REMARK VINA RESULT:      -6.0      2.457      3.422
REMARK  Name = 
REMARK  6 active torsions:
REMARK  status: ('A' for Active; 'I' for Inactive)
REMARK    1  A    between atoms: N_2  and  O_4
REMARK    2  A    between atoms: O_4  and  C_5
REMARK    3  A    between atoms: C_7  and  O_8
REMARK    4  A    between atoms: O_8  and  N_9
REMARK    5  A    between atoms: C_12  and  O_13
REMARK    6  A    between atoms: C_15  and  O_16
REMARK                            x       y       z     vdW  Elec       q    Type
REMARK                         _______ _______ _______ _____ _____    ______ ____
ROOT
ATOM      1  C   UNL     1       2.574   2.635  17.967  0.00  0.00    +0.000 C 
ATOM      2  C   UNL     1       3.386   3.418  16.926  0.00  0.00    +0.000 C 
ATOM      3  C   UNL     1       4.317   4.461  17.568  0.00  0.00    +0.000 C 
ATOM      4  C   UNL     1       5.236   3.809  18.623  0.00  0.00    +0.000 C 
ATOM      5  C   UNL     1       4.452   2.974  19.638  0.00  0.00    +0.000 C 
ATOM      6  C   UNL     1       3.532   1.953  18.963  0.00  0.00    +0.000 C 
ENDROOT
BRANCH   4   7
ATOM      7  O   UNL     1       6.012   4.771  19.333  0.00  0.00    +0.000 OA
ATOM      8  H   UNL     1       5.560   5.638  19.324  0.00  0.00    +0.000 HD
ENDBRANCH   4   7
BRANCH   6   9
ATOM      9  O   UNL     1       4.289   0.935  18.310  0.00  0.00    +0.000 OA
ATOM     10  H   UNL     1       3.750   0.448  17.664  0.00  0.00    +0.000 HD
ENDBRANCH   6   9
BRANCH   1  11
ATOM     11  O   UNL     1       1.747   3.595  18.633  0.00  0.00    +0.000 OA
BRANCH  11  13
ATOM     12  O   UNL     1       0.849   3.456  20.706  0.00  0.00    +0.000 OA
ATOM     13  N   UNL     1       0.818   3.042  19.547  0.00  0.00    +0.000 N 
ATOM     14  O   UNL     1       0.080   2.212  19.023  0.00  0.00    +0.000 OA
ENDBRANCH  11  13
ENDBRANCH   1  11
BRANCH   3  15
ATOM     15  O   UNL     1       5.109   5.000  16.503  0.00  0.00    +0.000 OA
BRANCH  15  16
ATOM     16  N   UNL     1       5.003   6.406  16.354  0.00  0.00    +0.000 N 
ATOM     17  O   UNL     1       5.226   6.875  15.238  0.00  0.00    +0.000 OA
ATOM     18  O   UNL     1       4.727   6.971  17.409  0.00  0.00    +0.000 OA
ENDBRANCH  15  16
ENDBRANCH   3  15
TORSDOF 6
ENDMDL
MODEL 4
REMARK VINA RESULT:      -6.0      2.758      5.466
REMARK  Name = 
REMARK  6 active torsions:
REMARK  status: ('A' for Active; 'I' for Inactive)
REMARK    1  A    between atoms: N_2  and  O_4
REMARK    2  A    between atoms: O_4  and  C_5
REMARK    3  A    between atoms: C_7  and  O_8
REMARK    4  A    between atoms: O_8  and  N_9
REMARK    5  A    between atoms: C_12  and  O_13
REMARK    6  A    between atoms: C_15  and  O_16
REMARK                            x       y       z     vdW  Elec       q    Type
REMARK                         _______ _______ _______ _____ _____    ______ ____
ROOT
ATOM      1  C   UNL     1       6.468   5.692  16.023  0.00  0.00    +0.000 C 
ATOM      2  C   UNL     1       4.983   5.654  16.411  0.00  0.00    +0.000 C 
ATOM      3  C   UNL     1       4.650   4.484  17.353  0.00  0.00    +0.000 C 
ATOM      4  C   UNL     1       5.556   4.503  18.602  0.00  0.00    +0.000 C 
ATOM      5  C   UNL     1       7.041   4.601  18.241  0.00  0.00    +0.000 C 
ATOM      6  C   UNL     1       7.332   5.771  17.297  0.00  0.00    +0.000 C 
ENDROOT
BRANCH   4   7
ATOM      7  O   UNL     1       5.367   3.355  19.425  0.00  0.00    +0.000 OA
ATOM      8  H   UNL     1       4.613   2.827  19.094  0.00  0.00    +0.000 HD
ENDBRANCH   4   7
BRANCH   6   9
ATOM      9  O   UNL     1       7.137   7.021  17.956  0.00  0.00    +0.000 OA
ATOM     10  H   UNL     1       7.586   7.045  18.818  0.00  0.00    +0.000 HD
ENDBRANCH   6   9
BRANCH   1  11
ATOM     11  O   UNL     1       6.725   4.480  15.308  0.00  0.00    +0.000 OA
BRANCH  11  13
ATOM     12  O   UNL     1       6.412   3.969  13.125  0.00  0.00    +0.000 OA
ATOM     13  N   UNL     1       7.032   4.656  13.937  0.00  0.00    +0.000 N 
ATOM     14  O   UNL     1       7.893   5.512  13.755  0.00  0.00    +0.000 OA
ENDBRANCH  11  13
ENDBRANCH   1  11
BRANCH   3  15
ATOM     15  O   UNL     1       3.284   4.662  17.744  0.00  0.00    +0.000 OA
BRANCH  15  16
ATOM     16  N   UNL     1       2.472   3.513  17.560  0.00  0.00    +0.000 N 
ATOM     17  O   UNL     1       3.032   2.417  17.569  0.00  0.00    +0.000 OA
ATOM     18  O   UNL     1       1.290   3.798  17.381  0.00  0.00    +0.000 OA
ENDBRANCH  15  16
ENDBRANCH   3  15
TORSDOF 6
ENDMDL
MODEL 5
REMARK VINA RESULT:      -6.0      2.166      3.054
REMARK  Name = 
REMARK  6 active torsions:
REMARK  status: ('A' for Active; 'I' for Inactive)
REMARK    1  A    between atoms: N_2  and  O_4
REMARK    2  A    between atoms: O_4  and  C_5
REMARK    3  A    between atoms: C_7  and  O_8
REMARK    4  A    between atoms: O_8  and  N_9
REMARK    5  A    between atoms: C_12  and  O_13
REMARK    6  A    between atoms: C_15  and  O_16
REMARK                            x       y       z     vdW  Elec       q    Type
REMARK                         _______ _______ _______ _____ _____    ______ ____
ROOT
ATOM      1  C   UNL     1       3.059   4.557  19.616  0.00  0.00    +0.000 C 
ATOM      2  C   UNL     1       4.357   5.348  19.399  0.00  0.00    +0.000 C 
ATOM      3  C   UNL     1       5.341   4.620  18.467  0.00  0.00    +0.000 C 
ATOM      4  C   UNL     1       4.670   4.261  17.124  0.00  0.00    +0.000 C 
ATOM      5  C   UNL     1       3.343   3.524  17.316  0.00  0.00    +0.000 C 
ATOM      6  C   UNL     1       2.393   4.273  18.254  0.00  0.00    +0.000 C 
ENDROOT
BRANCH   4   7
ATOM      7  O   UNL     1       5.513   3.465  16.295  0.00  0.00    +0.000 OA
ATOM      8  H   UNL     1       6.191   4.027  15.870  0.00  0.00    +0.000 HD
ENDBRANCH   4   7
BRANCH   6   9
ATOM      9  O   UNL     1       1.938   5.487  17.659  0.00  0.00    +0.000 OA
ATOM     10  H   UNL     1       1.365   5.317  16.893  0.00  0.00    +0.000 HD
ENDBRANCH   6   9
BRANCH   1  11
ATOM     11  O   UNL     1       3.436   3.337  20.261  0.00  0.00    +0.000 OA
BRANCH  11  13
ATOM     12  O   UNL     1       1.532   2.120  20.382  0.00  0.00    +0.000 OA
ATOM     13  N   UNL     1       2.406   2.719  21.009  0.00  0.00    +0.000 N 
ATOM     14  O   UNL     1       2.552   2.865  22.220  0.00  0.00    +0.000 OA
ENDBRANCH  11  13
ENDBRANCH   1  11
BRANCH   3  15
ATOM     15  O   UNL     1       6.423   5.529  18.240  0.00  0.00    +0.000 OA
BRANCH  15  16
ATOM     16  N   UNL     1       7.709   4.942  18.349  0.00  0.00    +0.000 N 
ATOM     17  O   UNL     1       8.134   4.325  17.372  0.00  0.00    +0.000 OA
ATOM     18  O   UNL     1       8.213   5.115  19.457  0.00  0.00    +0.000 OA
ENDBRANCH  15  16
ENDBRANCH   3  15
TORSDOF 6
ENDMDL
MODEL 6
REMARK VINA RESULT:      -6.0      2.444      3.166
REMARK  Name = 
REMARK  6 active torsions:
REMARK  status: ('A' for Active; 'I' for Inactive)
REMARK    1  A    between atoms: N_2  and  O_4
REMARK    2  A    between atoms: O_4  and  C_5
REMARK    3  A    between atoms: C_7  and  O_8
REMARK    4  A    between atoms: O_8  and  N_9
REMARK    5  A    between atoms: C_12  and  O_13
REMARK    6  A    between atoms: C_15  and  O_16
REMARK                            x       y       z     vdW  Elec       q    Type
REMARK                         _______ _______ _______ _____ _____    ______ ____
ROOT
ATOM      1  C   UNL     1       2.217   3.888  19.366  0.00  0.00    +0.000 C 
ATOM      2  C   UNL     1       3.337   4.936  19.296  0.00  0.00    +0.000 C 
ATOM      3  C   UNL     1       4.585   4.416  18.560  0.00  0.00    +0.000 C 
ATOM      4  C   UNL     1       4.220   3.887  17.156  0.00  0.00    +0.000 C 
ATOM      5  C   UNL     1       3.064   2.885  17.195  0.00  0.00    +0.000 C 
ATOM      6  C   UNL     1       1.845   3.433  17.941  0.00  0.00    +0.000 C 
ENDROOT
BRANCH   4   7
ATOM      7  O   UNL     1       5.329   3.273  16.505  0.00  0.00    +0.000 OA
ATOM      8  H   UNL     1       5.308   2.306  16.648  0.00  0.00    +0.000 HD
ENDBRANCH   4   7
BRANCH   6   9
ATOM      9  O   UNL     1       1.241   4.505  17.217  0.00  0.00    +0.000 OA
ATOM     10  H   UNL     1       0.283   4.376  17.121  0.00  0.00    +0.000 HD
ENDBRANCH   6   9
BRANCH   1  11
ATOM     11  O   UNL     1       2.739   2.795  20.128  0.00  0.00    +0.000 OA
BRANCH  11  13
ATOM     12  O   UNL     1       2.855   2.284  22.330  0.00  0.00    +0.000 OA
ATOM     13  N   UNL     1       2.128   2.609  21.391  0.00  0.00    +0.000 N 
ATOM     14  O   UNL     1       0.919   2.826  21.365  0.00  0.00    +0.000 OA
ENDBRANCH  11  13
ENDBRANCH   1  11
BRANCH   3  15
ATOM     15  O   UNL     1       5.473   5.532  18.442  0.00  0.00    +0.000 OA
BRANCH  15  16
ATOM     16  N   UNL     1       6.823   5.238  18.761  0.00  0.00    +0.000 N 
ATOM     17  O   UNL     1       7.542   4.824  17.853  0.00  0.00    +0.000 OA
ATOM     18  O   UNL     1       7.073   5.417  19.951  0.00  0.00    +0.000 OA
ENDBRANCH  15  16
ENDBRANCH   3  15
TORSDOF 6
ENDMDL
MODEL 7
REMARK VINA RESULT:      -6.0      0.257      1.107
REMARK  Name = 
REMARK  6 active torsions:
REMARK  status: ('A' for Active; 'I' for Inactive)
REMARK    1  A    between atoms: N_2  and  O_4
REMARK    2  A    between atoms: O_4  and  C_5
REMARK    3  A    between atoms: C_7  and  O_8
REMARK    4  A    between atoms: O_8  and  N_9
REMARK    5  A    between atoms: C_12  and  O_13
REMARK    6  A    between atoms: C_15  and  O_16
REMARK                            x       y       z     vdW  Elec       q    Type
REMARK                         _______ _______ _______ _____ _____    ______ ____
ROOT
ATOM      1  C   UNL     1       2.477   5.555  18.236  0.00  0.00    +0.000 C 
ATOM      2  C   UNL     1       3.692   5.232  17.355  0.00  0.00    +0.000 C 
ATOM      3  C   UNL     1       4.790   4.472  18.121  0.00  0.00    +0.000 C 
ATOM      4  C   UNL     1       4.223   3.199  18.784  0.00  0.00    +0.000 C 
ATOM      5  C   UNL     1       2.973   3.487  19.620  0.00  0.00    +0.000 C 
ATOM      6  C   UNL     1       1.908   4.250  18.829  0.00  0.00    +0.000 C 
ENDROOT
BRANCH   4   7
ATOM      7  O   UNL     1       5.182   2.549  19.613  0.00  0.00    +0.000 OA
ATOM      8  H   UNL     1       5.291   1.619  19.333  0.00  0.00    +0.000 HD
ENDBRANCH   4   7
BRANCH   6   9
ATOM      9  O   UNL     1       1.354   3.434  17.797  0.00  0.00    +0.000 OA
ATOM     10  H   UNL     1       0.850   2.689  18.164  0.00  0.00    +0.000 HD
ENDBRANCH   6   9
BRANCH   1  11
ATOM     11  O   UNL     1       2.952   6.419  19.273  0.00  0.00    +0.000 OA
BRANCH  11  13
ATOM     12  O   UNL     1       1.761   7.900  20.502  0.00  0.00    +0.000 OA
ATOM     13  N   UNL     1       2.242   7.637  19.400  0.00  0.00    +0.000 N 
ATOM     14  O   UNL     1       2.226   8.282  18.355  0.00  0.00    +0.000 OA
ENDBRANCH  11  13
ENDBRANCH   1  11
BRANCH   3  15
ATOM     15  O   UNL     1       5.779   4.114  17.150  0.00  0.00    +0.000 OA
BRANCH  15  16
ATOM     16  N   UNL     1       7.082   4.590  17.444  0.00  0.00    +0.000 N 
ATOM     17  O   UNL     1       7.485   4.458  18.599  0.00  0.00    +0.000 OA
ATOM     18  O   UNL     1       7.621   5.112  16.471  0.00  0.00    +0.000 OA
ENDBRANCH  15  16
ENDBRANCH   3  15
TORSDOF 6
ENDMDL
MODEL 8
REMARK VINA RESULT:      -5.9      2.090      3.826
REMARK  Name = 
REMARK  6 active torsions:
REMARK  status: ('A' for Active; 'I' for Inactive)
REMARK    1  A    between atoms: N_2  and  O_4
REMARK    2  A    between atoms: O_4  and  C_5
REMARK    3  A    between atoms: C_7  and  O_8
REMARK    4  A    between atoms: O_8  and  N_9
REMARK    5  A    between atoms: C_12  and  O_13
REMARK    6  A    between atoms: C_15  and  O_16
REMARK                            x       y       z     vdW  Elec       q    Type
REMARK                         _______ _______ _______ _____ _____    ______ ____
ROOT
ATOM      1  C   UNL     1       3.394   4.143  19.389  0.00  0.00    +0.000 C 
ATOM      2  C   UNL     1       4.884   4.506  19.312  0.00  0.00    +0.000 C 
ATOM      3  C   UNL     1       5.248   5.225  18.002  0.00  0.00    +0.000 C 
ATOM      4  C   UNL     1       4.356   6.465  17.784  0.00  0.00    +0.000 C 
ATOM      5  C   UNL     1       2.866   6.138  17.915  0.00  0.00    +0.000 C 
ATOM      6  C   UNL     1       2.543   5.417  19.225  0.00  0.00    +0.000 C 
ENDROOT
BRANCH   4   7
ATOM      7  O   UNL     1       4.575   7.072  16.513  0.00  0.00    +0.000 OA
ATOM      8  H   UNL     1       3.809   6.910  15.928  0.00  0.00    +0.000 HD
ENDBRANCH   4   7
BRANCH   6   9
ATOM      9  O   UNL     1       2.723   6.284  20.345  0.00  0.00    +0.000 OA
ATOM     10  H   UNL     1       3.234   7.075  20.105  0.00  0.00    +0.000 HD
ENDBRANCH   6   9
BRANCH   1  11
ATOM     11  O   UNL     1       3.150   3.228  18.316  0.00  0.00    +0.000 OA
BRANCH  11  13
ATOM     12  O   UNL     1       3.730   1.046  18.475  0.00  0.00    +0.000 OA
ATOM     13  N   UNL     1       2.878   1.899  18.722  0.00  0.00    +0.000 N 
ATOM     14  O   UNL     1       1.798   1.796  19.297  0.00  0.00    +0.000 OA
ENDBRANCH  11  13
ENDBRANCH   1  11
BRANCH   3  15
ATOM     15  O   UNL     1       6.615   5.630  18.135  0.00  0.00    +0.000 OA
BRANCH  15  16
ATOM     16  N   UNL     1       7.440   5.261  17.043  0.00  0.00    +0.000 N 
ATOM     17  O   UNL     1       8.079   4.213  17.144  0.00  0.00    +0.000 OA
ATOM     18  O   UNL     1       7.419   6.090  16.136  0.00  0.00    +0.000 OA
ENDBRANCH  15  16
ENDBRANCH   3  15
TORSDOF 6
ENDMDL
MODEL 9
REMARK VINA RESULT:      -5.9      2.468      3.744
REMARK  Name = 
REMARK  6 active torsions:
REMARK  status: ('A' for Active; 'I' for Inactive)
REMARK    1  A    between atoms: N_2  and  O_4
REMARK    2  A    between atoms: O_4  and  C_5
REMARK    3  A    between atoms: C_7  and  O_8
REMARK    4  A    between atoms: O_8  and  N_9
REMARK    5  A    between atoms: C_12  and  O_13
REMARK    6  A    between atoms: C_15  and  O_16
REMARK                            x       y       z     vdW  Elec       q    Type
REMARK                         _______ _______ _______ _____ _____    ______ ____
ROOT
ATOM      1  C   UNL     1       3.770   3.985  19.496  0.00  0.00    +0.000 C 
ATOM      2  C   UNL     1       4.523   5.303  19.263  0.00  0.00    +0.000 C 
ATOM      3  C   UNL     1       5.439   5.247  18.028  0.00  0.00    +0.000 C 
ATOM      4  C   UNL     1       4.651   4.820  16.772  0.00  0.00    +0.000 C 
ATOM      5  C   UNL     1       3.845   3.539  17.000  0.00  0.00    +0.000 C 
ATOM      6  C   UNL     1       2.951   3.629  18.240  0.00  0.00    +0.000 C 
ENDROOT
BRANCH   4   7
ATOM      7  O   UNL     1       5.499   4.625  15.642  0.00  0.00    +0.000 OA
ATOM      8  H   UNL     1       6.434   4.738  15.903  0.00  0.00    +0.000 HD
ENDBRANCH   4   7
BRANCH   6   9
ATOM      9  O   UNL     1       1.899   4.573  18.046  0.00  0.00    +0.000 OA
ATOM     10  H   UNL     1       1.102   4.151  17.685  0.00  0.00    +0.000 HD
ENDBRANCH   6   9
BRANCH   1  11
ATOM     11  O   UNL     1       4.770   2.993  19.750  0.00  0.00    +0.000 OA
BRANCH  11  13
ATOM     12  O   UNL     1       3.438   2.313  21.449  0.00  0.00    +0.000 OA
ATOM     13  N   UNL     1       4.524   2.182  20.883  0.00  0.00    +0.000 N 
ATOM     14  O   UNL     1       5.460   1.428  21.133  0.00  0.00    +0.000 OA
ENDBRANCH  11  13
ENDBRANCH   1  11
BRANCH   3  15
ATOM     15  O   UNL     1       5.952   6.572  17.851  0.00  0.00    +0.000 OA
BRANCH  15  16
ATOM     16  N   UNL     1       7.346   6.627  17.592  0.00  0.00    +0.000 N 
ATOM     17  O   UNL     1       7.704   6.589  16.415  0.00  0.00    +0.000 OA
ATOM     18  O   UNL     1       8.013   6.673  18.622  0.00  0.00    +0.000 OA
ENDBRANCH  15  16
ENDBRANCH   3  15
TORSDOF 6
ENDMDL
