MODEL 1
REMARK VINA RESULT:      -7.7      0.000      0.000
REMARK  Name = 
REMARK  9 active torsions:
REMARK  status: ('A' for Active; 'I' for Inactive)
REMARK    1  A    between atoms: C_2  and  C_3
REMARK    2  A    between atoms: C_3  and  S_4
REMARK    3  A    between atoms: S_4  and  C_5
REMARK    4  A    between atoms: C_8  and  C_9
REMARK    5  A    between atoms: C_9  and  N_10
REMARK    6  A    between atoms: C_11  and  C_13
REMARK    7  A    between atoms: C_17  and  C_18
REMARK    8  A    between atoms: N_24  and  C_25
REMARK    9  A    between atoms: C_25  and  C_26
REMARK                            x       y       z     vdW  Elec       q    Type
REMARK                         _______ _______ _______ _____ _____    ______ ____
ROOT
ATOM      1  C   UNL     1       0.325  11.114  20.852  0.00  0.00    +0.000 A 
ATOM      2  N   UNL     1       0.179  10.802  19.581  0.00  0.00    +0.000 NA
ATOM      3  N   UNL     1       0.652   9.512  19.432  0.00  0.00    +0.000 NA
ATOM      4  C   UNL     1       1.030   9.117  20.631  0.00  0.00    +0.000 A 
ATOM      5  O   UNL     1       0.871  10.091  21.582  0.00  0.00    +0.000 OA
ENDROOT
BRANCH   1   6
ATOM      6  S   UNL     1      -0.101  12.646  21.547  0.00  0.00    +0.000 S 
BRANCH   6   7
ATOM      7  C   UNL     1      -0.921  13.445  20.141  0.00  0.00    +0.000 C 
BRANCH   7   9
ATOM      8  O   UNL     1      -3.176  13.142  20.946  0.00  0.00    +0.000 OA
ATOM      9  C   UNL     1      -2.364  12.985  20.037  0.00  0.00    +0.000 C 
ATOM     10  N   UNL     1      -2.684  12.374  18.843  0.00  0.00    +0.000 N 
ATOM     11  H   UNL     1      -1.925  12.012  18.269  0.00  0.00    +0.000 HD
BRANCH  10  12
ATOM     12  C   UNL     1      -3.982  11.747  18.654  0.00  0.00    +0.000 C 
BRANCH  12  13
ATOM     13  C   UNL     1      -3.928  10.715  17.529  0.00  0.00    +0.000 C 
ATOM     14  C   UNL     1      -2.579  10.037  17.374  0.00  0.00    +0.000 C 
ATOM     15  C   UNL     1      -2.594   9.654  15.915  0.00  0.00    +0.000 C 
ATOM     16  C   UNL     1      -3.313  10.823  15.276  0.00  0.00    +0.000 C 
ATOM     17  O   UNL     1      -4.193  11.369  16.268  0.00  0.00    +0.000 OA
ENDBRANCH  12  13
ENDBRANCH  10  12
ENDBRANCH   7   9
ENDBRANCH   6   7
ENDBRANCH   1   6
BRANCH   4  18
ATOM     18  C   UNL     1       1.548   7.801  21.076  0.00  0.00    +0.000 C 
BRANCH  18  19
ATOM     19  N   UNL     1       2.307   7.136  20.026  0.00  0.00    +0.000 N 
ATOM     20  C   UNL     1       2.182   5.766  19.891  0.00  0.00    +0.000 C 
ATOM     21  O   UNL     1       1.460   5.091  20.617  0.00  0.00    +0.000 OA
ATOM     22  H   UNL     1       2.706   7.683  19.280  0.00  0.00    +0.000 HD
BRANCH  20  23
ATOM     23  C   UNL     1       2.952   5.109  18.799  0.00  0.00    +0.000 A 
ATOM     24  C   UNL     1       3.033   3.710  18.795  0.00  0.00    +0.000 A 
ATOM     25  C   UNL     1       3.802   3.049  17.837  0.00  0.00    +0.000 A 
ATOM     26  C   UNL     1       4.512   3.783  16.886  0.00  0.00    +0.000 A 
ATOM     27  C   UNL     1       4.456   5.186  16.881  0.00  0.00    +0.000 A 
ATOM     28  C   UNL     1       3.661   5.845  17.842  0.00  0.00    +0.000 A 
BRANCH  27  29
ATOM     29  C   UNL     1       5.255   5.988  15.884  0.00  0.00    +0.000 C 
ATOM     30  F   UNL     1       4.719   7.208  15.604  0.00  0.00    +0.000 F 
ATOM     31  F   UNL     1       6.526   6.226  16.312  0.00  0.00    +0.000 F 
ATOM     32  F   UNL     1       5.378   5.351  14.687  0.00  0.00    +0.000 F 
ENDBRANCH  27  29
ENDBRANCH  20  23
ENDBRANCH  18  19
ENDBRANCH   4  18
TORSDOF 9
ENDMDL
MODEL 2
REMARK VINA RESULT:      -7.6      7.447      9.512
REMARK  Name = 
REMARK  9 active torsions:
REMARK  status: ('A' for Active; 'I' for Inactive)
REMARK    1  A    between atoms: C_2  and  C_3
REMARK    2  A    between atoms: C_3  and  S_4
REMARK    3  A    between atoms: S_4  and  C_5
REMARK    4  A    between atoms: C_8  and  C_9
REMARK    5  A    between atoms: C_9  and  N_10
REMARK    6  A    between atoms: C_11  and  C_13
REMARK    7  A    between atoms: C_17  and  C_18
REMARK    8  A    between atoms: N_24  and  C_25
REMARK    9  A    between atoms: C_25  and  C_26
REMARK                            x       y       z     vdW  Elec       q    Type
REMARK                         _______ _______ _______ _____ _____    ______ ____
ROOT
ATOM      1  C   UNL     1       8.046   8.831  17.870  0.00  0.00    +0.000 A 
ATOM      2  N   UNL     1       7.040   8.578  17.057  0.00  0.00    +0.000 NA
ATOM      3  N   UNL     1       6.766   7.229  17.175  0.00  0.00    +0.000 NA
ATOM      4  C   UNL     1       7.608   6.757  18.073  0.00  0.00    +0.000 A 
ATOM      5  O   UNL     1       8.467   7.715  18.544  0.00  0.00    +0.000 OA
ENDROOT
BRANCH   1   6
ATOM      6  S   UNL     1       8.784  10.389  18.070  0.00  0.00    +0.000 S 
BRANCH   6   7
ATOM      7  C   UNL     1       9.298  10.306  19.807  0.00  0.00    +0.000 C 
BRANCH   7   9
ATOM      8  O   UNL     1       9.330  11.896  21.622  0.00  0.00    +0.000 OA
ATOM      9  C   UNL     1       9.356  11.698  20.410  0.00  0.00    +0.000 C 
ATOM     10  N   UNL     1       9.435  12.718  19.485  0.00  0.00    +0.000 N 
ATOM     11  H   UNL     1       9.157  12.521  18.526  0.00  0.00    +0.000 HD
BRANCH  10  12
ATOM     12  C   UNL     1       9.346  14.108  19.903  0.00  0.00    +0.000 C 
BRANCH  12  13
ATOM     13  C   UNL     1      10.331  14.974  19.120  0.00  0.00    +0.000 C 
ATOM     14  C   UNL     1      10.057  15.031  17.628  0.00  0.00    +0.000 C 
ATOM     15  C   UNL     1      11.431  15.319  17.075  0.00  0.00    +0.000 C 
ATOM     16  C   UNL     1      12.329  14.520  17.995  0.00  0.00    +0.000 C 
ATOM     17  O   UNL     1      11.662  14.430  19.261  0.00  0.00    +0.000 OA
ENDBRANCH  12  13
ENDBRANCH  10  12
ENDBRANCH   7   9
ENDBRANCH   6   7
ENDBRANCH   1   6
BRANCH   4  18
ATOM     18  C   UNL     1       7.719   5.394  18.644  0.00  0.00    +0.000 C 
BRANCH  18  19
ATOM     19  N   UNL     1       6.414   4.835  18.967  0.00  0.00    +0.000 N 
ATOM     20  C   UNL     1       5.712   4.184  17.971  0.00  0.00    +0.000 C 
ATOM     21  O   UNL     1       6.142   4.060  16.829  0.00  0.00    +0.000 OA
ATOM     22  H   UNL     1       6.153   4.711  19.933  0.00  0.00    +0.000 HD
BRANCH  20  23
ATOM     23  C   UNL     1       4.388   3.603  18.328  0.00  0.00    +0.000 A 
ATOM     24  C   UNL     1       3.810   2.680  17.447  0.00  0.00    +0.000 A 
ATOM     25  C   UNL     1       2.540   2.161  17.699  0.00  0.00    +0.000 A 
ATOM     26  C   UNL     1       1.829   2.576  18.825  0.00  0.00    +0.000 A 
ATOM     27  C   UNL     1       2.384   3.512  19.714  0.00  0.00    +0.000 A 
ATOM     28  C   UNL     1       3.676   4.016  19.461  0.00  0.00    +0.000 A 
BRANCH  27  29
ATOM     29  C   UNL     1       1.604   3.998  20.910  0.00  0.00    +0.000 C 
ATOM     30  F   UNL     1       0.517   4.752  20.588  0.00  0.00    +0.000 F 
ATOM     31  F   UNL     1       1.135   2.971  21.673  0.00  0.00    +0.000 F 
ATOM     32  F   UNL     1       2.358   4.767  21.743  0.00  0.00    +0.000 F 
ENDBRANCH  27  29
ENDBRANCH  20  23
ENDBRANCH  18  19
ENDBRANCH   4  18
TORSDOF 9
ENDMDL
MODEL 3
REMARK VINA RESULT:      -7.6      4.876      7.479
REMARK  Name = 
REMARK  9 active torsions:
REMARK  status: ('A' for Active; 'I' for Inactive)
REMARK    1  A    between atoms: C_2  and  C_3
REMARK    2  A    between atoms: C_3  and  S_4
REMARK    3  A    between atoms: S_4  and  C_5
REMARK    4  A    between atoms: C_8  and  C_9
REMARK    5  A    between atoms: C_9  and  N_10
REMARK    6  A    between atoms: C_11  and  C_13
REMARK    7  A    between atoms: C_17  and  C_18
REMARK    8  A    between atoms: N_24  and  C_25
REMARK    9  A    between atoms: C_25  and  C_26
REMARK                            x       y       z     vdW  Elec       q    Type
REMARK                         _______ _______ _______ _____ _____    ______ ____
ROOT
ATOM      1  C   UNL     1       3.549   2.439  19.153  0.00  0.00    +0.000 A 
ATOM      2  N   UNL     1       4.098   2.520  20.348  0.00  0.00    +0.000 NA
ATOM      3  N   UNL     1       5.218   3.317  20.217  0.00  0.00    +0.000 NA
ATOM      4  C   UNL     1       5.260   3.691  18.954  0.00  0.00    +0.000 A 
ATOM      5  O   UNL     1       4.241   3.154  18.211  0.00  0.00    +0.000 OA
ENDROOT
BRANCH   1   6
ATOM      6  S   UNL     1       2.121   1.526  18.783  0.00  0.00    +0.000 S 
BRANCH   6   7
ATOM      7  C   UNL     1       0.838   2.790  18.999  0.00  0.00    +0.000 C 
BRANCH   7   9
ATOM      8  O   UNL     1       1.052   4.244  17.085  0.00  0.00    +0.000 OA
ATOM      9  C   UNL     1       1.233   4.072  18.288  0.00  0.00    +0.000 C 
ATOM     10  N   UNL     1       1.814   5.021  19.103  0.00  0.00    +0.000 N 
ATOM     11  H   UNL     1       2.201   4.718  19.994  0.00  0.00    +0.000 HD
BRANCH  10  12
ATOM     12  C   UNL     1       2.380   6.237  18.540  0.00  0.00    +0.000 C 
BRANCH  12  13
ATOM     13  C   UNL     1       2.388   7.361  19.575  0.00  0.00    +0.000 C 
ATOM     14  C   UNL     1       1.502   7.101  20.780  0.00  0.00    +0.000 C 
ATOM     15  C   UNL     1       1.173   8.504  21.226  0.00  0.00    +0.000 C 
ATOM     16  C   UNL     1       1.047   9.245  19.912  0.00  0.00    +0.000 C 
ATOM     17  O   UNL     1       1.890   8.573  18.966  0.00  0.00    +0.000 OA
ENDBRANCH  12  13
ENDBRANCH  10  12
ENDBRANCH   7   9
ENDBRANCH   6   7
ENDBRANCH   1   6
BRANCH   4  18
ATOM     18  C   UNL     1       6.202   4.606  18.267  0.00  0.00    +0.000 C 
BRANCH  18  19
ATOM     19  N   UNL     1       6.382   4.247  16.867  0.00  0.00    +0.000 N 
ATOM     20  C   UNL     1       6.353   5.253  15.920  0.00  0.00    +0.000 C 
ATOM     21  O   UNL     1       6.183   6.432  16.211  0.00  0.00    +0.000 OA
ATOM     22  H   UNL     1       6.758   3.342  16.632  0.00  0.00    +0.000 HD
BRANCH  20  23
ATOM     23  C   UNL     1       6.558   4.865  14.497  0.00  0.00    +0.000 A 
ATOM     24  C   UNL     1       7.704   5.335  13.841  0.00  0.00    +0.000 A 
ATOM     25  C   UNL     1       7.906   5.060  12.488  0.00  0.00    +0.000 A 
ATOM     26  C   UNL     1       6.955   4.330  11.776  0.00  0.00    +0.000 A 
ATOM     27  C   UNL     1       5.793   3.863  12.410  0.00  0.00    +0.000 A 
ATOM     28  C   UNL     1       5.606   4.128  13.782  0.00  0.00    +0.000 A 
BRANCH  27  29
ATOM     29  C   UNL     1       4.739   3.110  11.636  0.00  0.00    +0.000 C 
ATOM     30  F   UNL     1       4.306   3.760  10.521  0.00  0.00    +0.000 F 
ATOM     31  F   UNL     1       5.180   1.893  11.212  0.00  0.00    +0.000 F 
ATOM     32  F   UNL     1       3.625   2.864  12.381  0.00  0.00    +0.000 F 
ENDBRANCH  27  29
ENDBRANCH  20  23
ENDBRANCH  18  19
ENDBRANCH   4  18
TORSDOF 9
ENDMDL
MODEL 4
REMARK VINA RESULT:      -7.6      4.903      9.547
REMARK  Name = 
REMARK  9 active torsions:
REMARK  status: ('A' for Active; 'I' for Inactive)
REMARK    1  A    between atoms: C_2  and  C_3
REMARK    2  A    between atoms: C_3  and  S_4
REMARK    3  A    between atoms: S_4  and  C_5
REMARK    4  A    between atoms: C_8  and  C_9
REMARK    5  A    between atoms: C_9  and  N_10
REMARK    6  A    between atoms: C_11  and  C_13
REMARK    7  A    between atoms: C_17  and  C_18
REMARK    8  A    between atoms: N_24  and  C_25
REMARK    9  A    between atoms: C_25  and  C_26
REMARK                            x       y       z     vdW  Elec       q    Type
REMARK                         _______ _______ _______ _____ _____    ______ ____
ROOT
ATOM      1  C   UNL     1       1.752   3.886  18.866  0.00  0.00    +0.000 A 
ATOM      2  N   UNL     1       1.415   4.251  17.646  0.00  0.00    +0.000 NA
ATOM      3  N   UNL     1       1.659   5.608  17.556  0.00  0.00    +0.000 NA
ATOM      4  C   UNL     1       2.156   5.972  18.722  0.00  0.00    +0.000 A 
ATOM      5  O   UNL     1       2.225   4.933  19.613  0.00  0.00    +0.000 OA
ENDROOT
BRANCH   1   6
ATOM      6  S   UNL     1       1.609   2.273  19.488  0.00  0.00    +0.000 S 
BRANCH   6   7
ATOM      7  C   UNL     1       3.120   1.515  18.830  0.00  0.00    +0.000 C 
BRANCH   7   9
ATOM      8  O   UNL     1       4.964   2.188  20.235  0.00  0.00    +0.000 OA
ATOM      9  C   UNL     1       4.334   2.352  19.193  0.00  0.00    +0.000 C 
ATOM     10  N   UNL     1       4.665   3.312  18.260  0.00  0.00    +0.000 N 
ATOM     11  H   UNL     1       3.956   3.595  17.587  0.00  0.00    +0.000 HD
BRANCH  10  12
ATOM     12  C   UNL     1       5.709   4.287  18.536  0.00  0.00    +0.000 C 
BRANCH  12  13
ATOM     13  C   UNL     1       5.997   5.137  17.300  0.00  0.00    +0.000 C 
ATOM     14  C   UNL     1       4.918   5.070  16.235  0.00  0.00    +0.000 C 
ATOM     15  C   UNL     1       5.702   5.380  14.984  0.00  0.00    +0.000 C 
ATOM     16  C   UNL     1       7.026   4.696  15.249  0.00  0.00    +0.000 C 
ATOM     17  O   UNL     1       7.209   4.669  16.671  0.00  0.00    +0.000 OA
ENDBRANCH  12  13
ENDBRANCH  10  12
ENDBRANCH   7   9
ENDBRANCH   6   7
ENDBRANCH   1   6
BRANCH   4  18
ATOM     18  C   UNL     1       2.663   7.292  19.165  0.00  0.00    +0.000 C 
BRANCH  18  19
ATOM     19  N   UNL     1       1.588   8.153  19.638  0.00  0.00    +0.000 N 
ATOM     20  C   UNL     1       1.344   9.334  18.963  0.00  0.00    +0.000 C 
ATOM     21  O   UNL     1       1.995   9.684  17.984  0.00  0.00    +0.000 OA
ATOM     22  H   UNL     1       0.898   7.782  20.273  0.00  0.00    +0.000 HD
BRANCH  20  23
ATOM     23  C   UNL     1       0.228  10.190  19.452  0.00  0.00    +0.000 A 
ATOM     24  C   UNL     1      -0.519  10.908  18.509  0.00  0.00    +0.000 A 
ATOM     25  C   UNL     1      -1.527  11.780  18.921  0.00  0.00    +0.000 A 
ATOM     26  C   UNL     1      -1.785  11.954  20.281  0.00  0.00    +0.000 A 
ATOM     27  C   UNL     1      -1.039  11.254  21.243  0.00  0.00    +0.000 A 
ATOM     28  C   UNL     1      -0.035  10.361  20.817  0.00  0.00    +0.000 A 
BRANCH  27  29
ATOM     29  C   UNL     1      -1.283  11.470  22.717  0.00  0.00    +0.000 C 
ATOM     30  F   UNL     1      -0.859  10.440  23.500  0.00  0.00    +0.000 F 
ATOM     31  F   UNL     1      -0.652  12.583  23.186  0.00  0.00    +0.000 F 
ATOM     32  F   UNL     1      -2.603  11.640  23.004  0.00  0.00    +0.000 F 
ENDBRANCH  27  29
ENDBRANCH  20  23
ENDBRANCH  18  19
ENDBRANCH   4  18
TORSDOF 9
ENDMDL
MODEL 5
REMARK VINA RESULT:      -7.5      7.361      9.887
REMARK  Name = 
REMARK  9 active torsions:
REMARK  status: ('A' for Active; 'I' for Inactive)
REMARK    1  A    between atoms: C_2  and  C_3
REMARK    2  A    between atoms: C_3  and  S_4
REMARK    3  A    between atoms: S_4  and  C_5
REMARK    4  A    between atoms: C_8  and  C_9
REMARK    5  A    between atoms: C_9  and  N_10
REMARK    6  A    between atoms: C_11  and  C_13
REMARK    7  A    between atoms: C_17  and  C_18
REMARK    8  A    between atoms: N_24  and  C_25
REMARK    9  A    between atoms: C_25  and  C_26
REMARK                            x       y       z     vdW  Elec       q    Type
REMARK                         _______ _______ _______ _____ _____    ______ ____
ROOT
ATOM      1  C   UNL     1       8.219   8.946  17.981  0.00  0.00    +0.000 A 
ATOM      2  N   UNL     1       8.609   8.130  18.939  0.00  0.00    +0.000 NA
ATOM      3  N   UNL     1       8.166   6.869  18.590  0.00  0.00    +0.000 NA
ATOM      4  C   UNL     1       7.559   6.998  17.427  0.00  0.00    +0.000 A 
ATOM      5  O   UNL     1       7.536   8.296  16.987  0.00  0.00    +0.000 OA
ENDROOT
BRANCH   1   6
ATOM      6  S   UNL     1       8.511  10.657  17.962  0.00  0.00    +0.000 S 
BRANCH   6   7
ATOM      7  C   UNL     1       9.742  10.810  19.284  0.00  0.00    +0.000 C 
BRANCH   7   9
ATOM      8  O   UNL     1      12.098  11.259  19.020  0.00  0.00    +0.000 OA
ATOM      9  C   UNL     1      10.941  11.609  18.803  0.00  0.00    +0.000 C 
ATOM     10  N   UNL     1      10.621  12.757  18.111  0.00  0.00    +0.000 N 
ATOM     11  H   UNL     1       9.684  13.141  18.221  0.00  0.00    +0.000 HD
BRANCH  10  12
ATOM     12  C   UNL     1      11.656  13.701  17.719  0.00  0.00    +0.000 C 
BRANCH  12  13
ATOM     13  C   UNL     1      11.282  15.121  18.140  0.00  0.00    +0.000 C 
ATOM     14  C   UNL     1      10.979  15.271  19.619  0.00  0.00    +0.000 C 
ATOM     15  C   UNL     1      10.049  16.458  19.623  0.00  0.00    +0.000 C 
ATOM     16  C   UNL     1       9.248  16.251  18.355  0.00  0.00    +0.000 C 
ATOM     17  O   UNL     1      10.083  15.525  17.443  0.00  0.00    +0.000 OA
ENDBRANCH  12  13
ENDBRANCH  10  12
ENDBRANCH   7   9
ENDBRANCH   6   7
ENDBRANCH   1   6
BRANCH   4  18
ATOM     18  C   UNL     1       6.957   5.965  16.553  0.00  0.00    +0.000 C 
BRANCH  18  19
ATOM     19  N   UNL     1       5.610   5.613  16.979  0.00  0.00    +0.000 N 
ATOM     20  C   UNL     1       5.457   4.615  17.922  0.00  0.00    +0.000 C 
ATOM     21  O   UNL     1       6.408   4.015  18.412  0.00  0.00    +0.000 OA
ATOM     22  H   UNL     1       4.847   6.241  16.779  0.00  0.00    +0.000 HD
BRANCH  20  23
ATOM     23  C   UNL     1       4.072   4.285  18.357  0.00  0.00    +0.000 A 
ATOM     24  C   UNL     1       3.019   4.542  17.468  0.00  0.00    +0.000 A 
ATOM     25  C   UNL     1       1.697   4.318  17.854  0.00  0.00    +0.000 A 
ATOM     26  C   UNL     1       1.416   3.853  19.139  0.00  0.00    +0.000 A 
ATOM     27  C   UNL     1       2.455   3.603  20.050  0.00  0.00    +0.000 A 
ATOM     28  C   UNL     1       3.789   3.813  19.645  0.00  0.00    +0.000 A 
BRANCH  27  29
ATOM     29  C   UNL     1       2.156   3.141  21.455  0.00  0.00    +0.000 C 
ATOM     30  F   UNL     1       0.887   2.678  21.623  0.00  0.00    +0.000 F 
ATOM     31  F   UNL     1       2.980   2.132  21.853  0.00  0.00    +0.000 F 
ATOM     32  F   UNL     1       2.315   4.135  22.372  0.00  0.00    +0.000 F 
ENDBRANCH  27  29
ENDBRANCH  20  23
ENDBRANCH  18  19
ENDBRANCH   4  18
TORSDOF 9
ENDMDL
MODEL 6
REMARK VINA RESULT:      -7.5      5.017      9.503
REMARK  Name = 
REMARK  9 active torsions:
REMARK  status: ('A' for Active; 'I' for Inactive)
REMARK    1  A    between atoms: C_2  and  C_3
REMARK    2  A    between atoms: C_3  and  S_4
REMARK    3  A    between atoms: S_4  and  C_5
REMARK    4  A    between atoms: C_8  and  C_9
REMARK    5  A    between atoms: C_9  and  N_10
REMARK    6  A    between atoms: C_11  and  C_13
REMARK    7  A    between atoms: C_17  and  C_18
REMARK    8  A    between atoms: N_24  and  C_25
REMARK    9  A    between atoms: C_25  and  C_26
REMARK                            x       y       z     vdW  Elec       q    Type
REMARK                         _______ _______ _______ _____ _____    ______ ____
ROOT
ATOM      1  C   UNL     1       3.551   7.299  17.591  0.00  0.00    +0.000 A 
ATOM      2  N   UNL     1       2.973   6.765  18.648  0.00  0.00    +0.000 NA
ATOM      3  N   UNL     1       2.157   7.741  19.189  0.00  0.00    +0.000 NA
ATOM      4  C   UNL     1       2.273   8.795  18.406  0.00  0.00    +0.000 A 
ATOM      5  O   UNL     1       3.160   8.595  17.380  0.00  0.00    +0.000 OA
ENDROOT
BRANCH   1   6
ATOM      6  S   UNL     1       4.694   6.481  16.574  0.00  0.00    +0.000 S 
BRANCH   6   7
ATOM      7  C   UNL     1       6.104   6.318  17.702  0.00  0.00    +0.000 C 
BRANCH   7   9
ATOM      8  O   UNL     1       6.435   5.236  19.834  0.00  0.00    +0.000 OA
ATOM      9  C   UNL     1       5.803   5.294  18.783  0.00  0.00    +0.000 C 
ATOM     10  N   UNL     1       4.766   4.435  18.483  0.00  0.00    +0.000 N 
ATOM     11  H   UNL     1       4.489   4.337  17.508  0.00  0.00    +0.000 HD
BRANCH  10  12
ATOM     12  C   UNL     1       4.460   3.309  19.350  0.00  0.00    +0.000 C 
BRANCH  12  13
ATOM     13  C   UNL     1       3.222   3.598  20.197  0.00  0.00    +0.000 C 
ATOM     14  C   UNL     1       2.944   2.557  21.266  0.00  0.00    +0.000 C 
ATOM     15  C   UNL     1       1.452   2.689  21.441  0.00  0.00    +0.000 C 
ATOM     16  C   UNL     1       0.978   2.965  20.031  0.00  0.00    +0.000 C 
ATOM     17  O   UNL     1       2.055   3.617  19.344  0.00  0.00    +0.000 OA
ENDBRANCH  12  13
ENDBRANCH  10  12
ENDBRANCH   7   9
ENDBRANCH   6   7
ENDBRANCH   1   6
BRANCH   4  18
ATOM     18  C   UNL     1       1.575  10.100  18.465  0.00  0.00    +0.000 C 
BRANCH  18  19
ATOM     19  N   UNL     1       0.315  10.073  17.736  0.00  0.00    +0.000 N 
ATOM     20  C   UNL     1      -0.800  10.640  18.325  0.00  0.00    +0.000 C 
ATOM     21  O   UNL     1      -0.770  11.163  19.434  0.00  0.00    +0.000 OA
ATOM     22  H   UNL     1       0.318   9.874  16.748  0.00  0.00    +0.000 HD
BRANCH  20  23
ATOM     23  C   UNL     1      -2.073  10.617  17.553  0.00  0.00    +0.000 A 
ATOM     24  C   UNL     1      -2.098   9.922  16.336  0.00  0.00    +0.000 A 
ATOM     25  C   UNL     1      -3.244   9.931  15.540  0.00  0.00    +0.000 A 
ATOM     26  C   UNL     1      -4.368  10.651  15.946  0.00  0.00    +0.000 A 
ATOM     27  C   UNL     1      -4.359  11.366  17.155  0.00  0.00    +0.000 A 
ATOM     28  C   UNL     1      -3.204  11.335  17.962  0.00  0.00    +0.000 A 
BRANCH  27  29
ATOM     29  C   UNL     1      -5.556  12.182  17.579  0.00  0.00    +0.000 C 
ATOM     30  F   UNL     1      -5.834  13.222  16.746  0.00  0.00    +0.000 F 
ATOM     31  F   UNL     1      -6.693  11.435  17.641  0.00  0.00    +0.000 F 
ATOM     32  F   UNL     1      -5.398  12.726  18.817  0.00  0.00    +0.000 F 
ENDBRANCH  27  29
ENDBRANCH  20  23
ENDBRANCH  18  19
ENDBRANCH   4  18
TORSDOF 9
ENDMDL
MODEL 7
REMARK VINA RESULT:      -7.5      2.813      4.863
REMARK  Name = 
REMARK  9 active torsions:
REMARK  status: ('A' for Active; 'I' for Inactive)
REMARK    1  A    between atoms: C_2  and  C_3
REMARK    2  A    between atoms: C_3  and  S_4
REMARK    3  A    between atoms: S_4  and  C_5
REMARK    4  A    between atoms: C_8  and  C_9
REMARK    5  A    between atoms: C_9  and  N_10
REMARK    6  A    between atoms: C_11  and  C_13
REMARK    7  A    between atoms: C_17  and  C_18
REMARK    8  A    between atoms: N_24  and  C_25
REMARK    9  A    between atoms: C_25  and  C_26
REMARK                            x       y       z     vdW  Elec       q    Type
REMARK                         _______ _______ _______ _____ _____    ______ ____
ROOT
ATOM      1  C   UNL     1       1.852   5.372  20.360  0.00  0.00    +0.000 A 
ATOM      2  N   UNL     1       0.921   4.454  20.518  0.00  0.00    +0.000 NA
ATOM      3  N   UNL     1       1.516   3.236  20.250  0.00  0.00    +0.000 NA
ATOM      4  C   UNL     1       2.779   3.494  19.972  0.00  0.00    +0.000 A 
ATOM      5  O   UNL     1       3.061   4.835  20.003  0.00  0.00    +0.000 OA
ENDROOT
BRANCH   1   6
ATOM      6  S   UNL     1       1.600   7.077  20.559  0.00  0.00    +0.000 S 
BRANCH   6   7
ATOM      7  C   UNL     1       2.578   7.733  19.181  0.00  0.00    +0.000 C 
BRANCH   7   9
ATOM      8  O   UNL     1       2.020   9.085  17.260  0.00  0.00    +0.000 OA
ATOM      9  C   UNL     1       1.794   8.798  18.433  0.00  0.00    +0.000 C 
ATOM     10  N   UNL     1       0.815   9.416  19.181  0.00  0.00    +0.000 N 
ATOM     11  H   UNL     1       0.873   9.355  20.196  0.00  0.00    +0.000 HD
BRANCH  10  12
ATOM     12  C   UNL     1       0.085  10.557  18.651  0.00  0.00    +0.000 C 
BRANCH  12  13
ATOM     13  C   UNL     1      -1.396  10.222  18.483  0.00  0.00    +0.000 C 
ATOM     14  C   UNL     1      -1.849  10.121  17.038  0.00  0.00    +0.000 C 
ATOM     15  C   UNL     1      -3.314  10.463  17.151  0.00  0.00    +0.000 C 
ATOM     16  C   UNL     1      -3.321  11.524  18.231  0.00  0.00    +0.000 C 
ATOM     17  O   UNL     1      -2.193  11.268  19.079  0.00  0.00    +0.000 OA
ENDBRANCH  12  13
ENDBRANCH  10  12
ENDBRANCH   7   9
ENDBRANCH   6   7
ENDBRANCH   1   6
BRANCH   4  18
ATOM     18  C   UNL     1       3.895   2.564  19.681  0.00  0.00    +0.000 C 
BRANCH  18  19
ATOM     19  N   UNL     1       4.791   3.095  18.664  0.00  0.00    +0.000 N 
ATOM     20  C   UNL     1       4.293   3.300  17.391  0.00  0.00    +0.000 C 
ATOM     21  O   UNL     1       3.132   3.053  17.085  0.00  0.00    +0.000 OA
ATOM     22  H   UNL     1       5.659   3.525  18.943  0.00  0.00    +0.000 HD
BRANCH  20  23
ATOM     23  C   UNL     1       5.222   3.862  16.371  0.00  0.00    +0.000 A 
ATOM     24  C   UNL     1       6.057   4.922  16.748  0.00  0.00    +0.000 A 
ATOM     25  C   UNL     1       6.893   5.531  15.812  0.00  0.00    +0.000 A 
ATOM     26  C   UNL     1       6.887   5.097  14.486  0.00  0.00    +0.000 A 
ATOM     27  C   UNL     1       6.047   4.046  14.084  0.00  0.00    +0.000 A 
ATOM     28  C   UNL     1       5.220   3.424  15.041  0.00  0.00    +0.000 A 
BRANCH  27  29
ATOM     29  C   UNL     1       6.003   3.600  12.643  0.00  0.00    +0.000 C 
ATOM     30  F   UNL     1       6.306   2.285  12.465  0.00  0.00    +0.000 F 
ATOM     31  F   UNL     1       4.774   3.781  12.084  0.00  0.00    +0.000 F 
ATOM     32  F   UNL     1       6.875   4.293  11.860  0.00  0.00    +0.000 F 
ENDBRANCH  27  29
ENDBRANCH  20  23
ENDBRANCH  18  19
ENDBRANCH   4  18
TORSDOF 9
ENDMDL
MODEL 8
REMARK VINA RESULT:      -7.4      4.885      9.312
REMARK  Name = 
REMARK  9 active torsions:
REMARK  status: ('A' for Active; 'I' for Inactive)
REMARK    1  A    between atoms: C_2  and  C_3
REMARK    2  A    between atoms: C_3  and  S_4
REMARK    3  A    between atoms: S_4  and  C_5
REMARK    4  A    between atoms: C_8  and  C_9
REMARK    5  A    between atoms: C_9  and  N_10
REMARK    6  A    between atoms: C_11  and  C_13
REMARK    7  A    between atoms: C_17  and  C_18
REMARK    8  A    between atoms: N_24  and  C_25
REMARK    9  A    between atoms: C_25  and  C_26
REMARK                            x       y       z     vdW  Elec       q    Type
REMARK                         _______ _______ _______ _____ _____    ______ ____
ROOT
ATOM      1  C   UNL     1       2.301   6.847  19.608  0.00  0.00    +0.000 A 
ATOM      2  N   UNL     1       2.931   6.899  18.452  0.00  0.00    +0.000 NA
ATOM      3  N   UNL     1       2.664   8.141  17.910  0.00  0.00    +0.000 NA
ATOM      4  C   UNL     1       1.911   8.773  18.788  0.00  0.00    +0.000 A 
ATOM      5  O   UNL     1       1.621   8.005  19.884  0.00  0.00    +0.000 OA
ENDROOT
BRANCH   1   6
ATOM      6  S   UNL     1       2.302   5.477  20.673  0.00  0.00    +0.000 S 
BRANCH   6   7
ATOM      7  C   UNL     1       1.290   4.306  19.727  0.00  0.00    +0.000 C 
BRANCH   7   9
ATOM      8  O   UNL     1       1.401   3.922  17.347  0.00  0.00    +0.000 OA
ATOM      9  C   UNL     1       1.984   3.934  18.428  0.00  0.00    +0.000 C 
ATOM     10  N   UNL     1       3.317   3.607  18.566  0.00  0.00    +0.000 N 
ATOM     11  H   UNL     1       3.656   3.350  19.491  0.00  0.00    +0.000 HD
BRANCH  10  12
ATOM     12  C   UNL     1       4.074   3.086  17.440  0.00  0.00    +0.000 C 
BRANCH  12  13
ATOM     13  C   UNL     1       5.239   4.011  17.095  0.00  0.00    +0.000 C 
ATOM     14  C   UNL     1       5.713   4.870  18.253  0.00  0.00    +0.000 C 
ATOM     15  C   UNL     1       6.305   6.056  17.532  0.00  0.00    +0.000 C 
ATOM     16  C   UNL     1       5.370   6.224  16.354  0.00  0.00    +0.000 C 
ATOM     17  O   UNL     1       4.829   4.930  16.058  0.00  0.00    +0.000 OA
ENDBRANCH  12  13
ENDBRANCH  10  12
ENDBRANCH   7   9
ENDBRANCH   6   7
ENDBRANCH   1   6
BRANCH   4  18
ATOM     18  C   UNL     1       1.388  10.160  18.763  0.00  0.00    +0.000 C 
BRANCH  18  19
ATOM     19  N   UNL     1       0.198  10.275  17.932  0.00  0.00    +0.000 N 
ATOM     20  C   UNL     1      -1.029  10.406  18.553  0.00  0.00    +0.000 C 
ATOM     21  O   UNL     1      -1.155  10.428  19.773  0.00  0.00    +0.000 OA
ATOM     22  H   UNL     1       0.296  10.500  16.954  0.00  0.00    +0.000 HD
BRANCH  20  23
ATOM     23  C   UNL     1      -2.230  10.541  17.684  0.00  0.00    +0.000 A 
ATOM     24  C   UNL     1      -2.179   9.997  16.394  0.00  0.00    +0.000 A 
ATOM     25  C   UNL     1      -3.250  10.159  15.515  0.00  0.00    +0.000 A 
ATOM     26  C   UNL     1      -4.374  10.884  15.912  0.00  0.00    +0.000 A 
ATOM     27  C   UNL     1      -4.439  11.451  17.196  0.00  0.00    +0.000 A 
ATOM     28  C   UNL     1      -3.361  11.265  18.084  0.00  0.00    +0.000 A 
BRANCH  27  29
ATOM     29  C   UNL     1      -5.632  12.273  17.617  0.00  0.00    +0.000 C 
ATOM     30  F   UNL     1      -5.484  12.875  18.829  0.00  0.00    +0.000 F 
ATOM     31  F   UNL     1      -5.910  13.271  16.734  0.00  0.00    +0.000 F 
ATOM     32  F   UNL     1      -6.769  11.528  17.708  0.00  0.00    +0.000 F 
ENDBRANCH  27  29
ENDBRANCH  20  23
ENDBRANCH  18  19
ENDBRANCH   4  18
TORSDOF 9
ENDMDL
MODEL 9
REMARK VINA RESULT:      -7.4      4.960      9.157
REMARK  Name = 
REMARK  9 active torsions:
REMARK  status: ('A' for Active; 'I' for Inactive)
REMARK    1  A    between atoms: C_2  and  C_3
REMARK    2  A    between atoms: C_3  and  S_4
REMARK    3  A    between atoms: S_4  and  C_5
REMARK    4  A    between atoms: C_8  and  C_9
REMARK    5  A    between atoms: C_9  and  N_10
REMARK    6  A    between atoms: C_11  and  C_13
REMARK    7  A    between atoms: C_17  and  C_18
REMARK    8  A    between atoms: N_24  and  C_25
REMARK    9  A    between atoms: C_25  and  C_26
REMARK                            x       y       z     vdW  Elec       q    Type
REMARK                         _______ _______ _______ _____ _____    ______ ____
ROOT
ATOM      1  C   UNL     1       3.540   7.085  17.726  0.00  0.00    +0.000 A 
ATOM      2  N   UNL     1       2.988   8.226  17.367  0.00  0.00    +0.000 NA
ATOM      3  N   UNL     1       2.132   8.591  18.388  0.00  0.00    +0.000 NA
ATOM      4  C   UNL     1       2.243   7.660  19.314  0.00  0.00    +0.000 A 
ATOM      5  O   UNL     1       3.105   6.658  18.953  0.00  0.00    +0.000 OA
ENDROOT
BRANCH   1   6
ATOM      6  S   UNL     1       4.679   6.195  16.766  0.00  0.00    +0.000 S 
BRANCH   6   7
ATOM      7  C   UNL     1       5.719   5.462  18.058  0.00  0.00    +0.000 C 
BRANCH   7   9
ATOM      8  O   UNL     1       5.581   3.523  19.489  0.00  0.00    +0.000 OA
ATOM      9  C   UNL     1       5.124   4.148  18.535  0.00  0.00    +0.000 C 
ATOM     10  N   UNL     1       4.037   3.715  17.805  0.00  0.00    +0.000 N 
ATOM     11  H   UNL     1       3.897   4.102  16.874  0.00  0.00    +0.000 HD
BRANCH  10  12
ATOM     12  C   UNL     1       3.456   2.404  18.046  0.00  0.00    +0.000 C 
BRANCH  12  13
ATOM     13  C   UNL     1       2.255   2.507  18.984  0.00  0.00    +0.000 C 
ATOM     14  C   UNL     1       1.450   3.783  18.824  0.00  0.00    +0.000 C 
ATOM     15  C   UNL     1       0.839   3.935  20.195  0.00  0.00    +0.000 C 
ATOM     16  C   UNL     1       1.946   3.445  21.103  0.00  0.00    +0.000 C 
ATOM     17  O   UNL     1       2.717   2.496  20.353  0.00  0.00    +0.000 OA
ENDBRANCH  12  13
ENDBRANCH  10  12
ENDBRANCH   7   9
ENDBRANCH   6   7
ENDBRANCH   1   6
BRANCH   4  18
ATOM     18  C   UNL     1       1.612   7.575  20.653  0.00  0.00    +0.000 C 
BRANCH  18  19
ATOM     19  N   UNL     1       0.584   8.589  20.832  0.00  0.00    +0.000 N 
ATOM     20  C   UNL     1       0.726   9.497  21.864  0.00  0.00    +0.000 C 
ATOM     21  O   UNL     1       1.682   9.481  22.633  0.00  0.00    +0.000 OA
ATOM     22  H   UNL     1      -0.068   8.772  20.085  0.00  0.00    +0.000 HD
BRANCH  20  23
ATOM     23  C   UNL     1      -0.328  10.537  22.018  0.00  0.00    +0.000 A 
ATOM     24  C   UNL     1      -1.020  10.605  23.234  0.00  0.00    +0.000 A 
ATOM     25  C   UNL     1      -2.065  11.513  23.404  0.00  0.00    +0.000 A 
ATOM     26  C   UNL     1      -2.439  12.348  22.351  0.00  0.00    +0.000 A 
ATOM     27  C   UNL     1      -1.769  12.287  21.119  0.00  0.00    +0.000 A 
ATOM     28  C   UNL     1      -0.701  11.379  20.963  0.00  0.00    +0.000 A 
BRANCH  27  29
ATOM     29  C   UNL     1      -2.196  13.156  19.962  0.00  0.00    +0.000 C 
ATOM     30  F   UNL     1      -1.171  13.829  19.372  0.00  0.00    +0.000 F 
ATOM     31  F   UNL     1      -2.794  12.438  18.970  0.00  0.00    +0.000 F 
ATOM     32  F   UNL     1      -3.101  14.104  20.333  0.00  0.00    +0.000 F 
ENDBRANCH  27  29
ENDBRANCH  20  23
ENDBRANCH  18  19
ENDBRANCH   4  18
TORSDOF 9
ENDMDL
