MODEL 1
REMARK VINA RESULT:      -6.6      0.000      0.000
REMARK  Name = 
REMARK  8 active torsions:
REMARK  status: ('A' for Active; 'I' for Inactive)
REMARK    1  A    between atoms: C_1  and  C_2
REMARK    2  A    between atoms: C_5  and  S_6
REMARK    3  A    between atoms: S_6  and  N_9
REMARK    4  A    between atoms: N_9  and  C_10
REMARK    5  A    between atoms: C_10  and  C_11
REMARK    6  A    between atoms: C_10  and  C_13
REMARK    7  A    between atoms: C_11  and  O_12
REMARK    8  A    between atoms: C_13  and  O_15
REMARK                            x       y       z     vdW  Elec       q    Type
REMARK                         _______ _______ _______ _____ _____    ______ ____
ROOT
ATOM      1  S   UNL     1       5.575   4.810  18.837  0.00  0.00    +0.000 S 
ATOM      2  O   UNL     1       6.806   5.226  19.468  0.00  0.00    +0.000 OA
ATOM      3  O   UNL     1       4.333   5.534  19.013  0.00  0.00    +0.000 OA
ENDROOT
BRANCH   1   8
ATOM      4  C   UNL     1       6.675   4.254  12.889  0.00  0.00    +0.000 C 
ATOM      5  C   UNL     1       6.403   4.387  14.360  0.00  0.00    +0.000 A 
ATOM      6  C   UNL     1       5.147   4.053  14.883  0.00  0.00    +0.000 A 
ATOM      7  C   UNL     1       4.891   4.193  16.247  0.00  0.00    +0.000 A 
ATOM      8  C   UNL     1       5.897   4.654  17.100  0.00  0.00    +0.000 A 
ATOM      9  C   UNL     1       7.154   5.001  16.592  0.00  0.00    +0.000 A 
ATOM     10  C   UNL     1       7.400   4.865  15.223  0.00  0.00    +0.000 A 
ENDBRANCH   1   8
BRANCH   1  11
ATOM     11  N   UNL     1       5.297   3.232  19.313  0.00  0.00    +0.000 NA
ATOM     12  H   UNL     1       6.006   2.892  19.976  0.00  0.00    +0.000 HD
BRANCH  11  13
ATOM     13  C   UNL     1       3.913   2.794  19.630  0.00  0.00    +0.000 C 
BRANCH  13  14
ATOM     14  C   UNL     1       3.931   2.239  21.063  0.00  0.00    +0.000 C 
ATOM     15  O   UNL     1       2.982   2.371  21.833  0.00  0.00    +0.000 OA
BRANCH  14  16
ATOM     16  O   UNL     1       5.026   1.524  21.408  0.00  0.00    +0.000 OA
ATOM     17  H   UNL     1       5.149   0.700  20.873  0.00  0.00    +0.000 HD
ENDBRANCH  14  16
ENDBRANCH  13  14
BRANCH  13  18
ATOM     18  C   UNL     1       3.404   1.747  18.639  0.00  0.00    +0.000 C 
BRANCH  18  19
ATOM     19  O   UNL     1       4.350   0.672  18.543  0.00  0.00    +0.000 OA
ATOM     20  H   UNL     1       3.853  -0.157  18.703  0.00  0.00    +0.000 HD
ENDBRANCH  18  19
ENDBRANCH  13  18
ENDBRANCH  11  13
ENDBRANCH   1  11
TORSDOF 7
ENDMDL
MODEL 2
REMARK VINA RESULT:      -6.4      3.771      6.176
REMARK  Name = 
REMARK  8 active torsions:
REMARK  status: ('A' for Active; 'I' for Inactive)
REMARK    1  A    between atoms: C_1  and  C_2
REMARK    2  A    between atoms: C_5  and  S_6
REMARK    3  A    between atoms: S_6  and  N_9
REMARK    4  A    between atoms: N_9  and  C_10
REMARK    5  A    between atoms: C_10  and  C_11
REMARK    6  A    between atoms: C_10  and  C_13
REMARK    7  A    between atoms: C_11  and  O_12
REMARK    8  A    between atoms: C_13  and  O_15
REMARK                            x       y       z     vdW  Elec       q    Type
REMARK                         _______ _______ _______ _____ _____    ______ ____
ROOT
ATOM      1  S   UNL     1       6.592   5.739  16.455  0.00  0.00    +0.000 S 
ATOM      2  O   UNL     1       6.720   7.119  16.861  0.00  0.00    +0.000 OA
ATOM      3  O   UNL     1       7.593   4.743  16.777  0.00  0.00    +0.000 OA
ENDROOT
BRANCH   1   8
ATOM      4  C   UNL     1       1.190   3.757  18.399  0.00  0.00    +0.000 C 
ATOM      5  C   UNL     1       2.523   4.246  17.914  0.00  0.00    +0.000 A 
ATOM      6  C   UNL     1       3.444   3.354  17.349  0.00  0.00    +0.000 A 
ATOM      7  C   UNL     1       4.690   3.808  16.915  0.00  0.00    +0.000 A 
ATOM      8  C   UNL     1       5.016   5.162  17.029  0.00  0.00    +0.000 A 
ATOM      9  C   UNL     1       4.111   6.064  17.600  0.00  0.00    +0.000 A 
ATOM     10  C   UNL     1       2.869   5.600  18.040  0.00  0.00    +0.000 A 
ENDBRANCH   1   8
BRANCH   1  11
ATOM     11  N   UNL     1       6.413   5.737  14.793  0.00  0.00    +0.000 NA
ATOM     12  H   UNL     1       6.608   6.658  14.378  0.00  0.00    +0.000 HD
BRANCH  11  13
ATOM     13  C   UNL     1       6.931   4.593  14.000  0.00  0.00    +0.000 C 
BRANCH  13  14
ATOM     14  C   UNL     1       7.812   5.177  12.885  0.00  0.00    +0.000 C 
ATOM     15  O   UNL     1       7.582   4.988  11.693  0.00  0.00    +0.000 OA
BRANCH  14  16
ATOM     16  O   UNL     1       8.820   5.985  13.288  0.00  0.00    +0.000 OA
ATOM     17  H   UNL     1       8.797   6.886  12.880  0.00  0.00    +0.000 HD
ENDBRANCH  14  16
ENDBRANCH  13  14
BRANCH  13  18
ATOM     18  C   UNL     1       5.802   3.740  13.422  0.00  0.00    +0.000 C 
BRANCH  18  19
ATOM     19  O   UNL     1       6.353   2.707  12.593  0.00  0.00    +0.000 OA
ATOM     20  H   UNL     1       6.740   2.038  13.195  0.00  0.00    +0.000 HD
ENDBRANCH  18  19
ENDBRANCH  13  18
ENDBRANCH  11  13
ENDBRANCH   1  11
TORSDOF 7
ENDMDL
MODEL 3
REMARK VINA RESULT:      -6.4      3.087      5.184
REMARK  Name = 
REMARK  8 active torsions:
REMARK  status: ('A' for Active; 'I' for Inactive)
REMARK    1  A    between atoms: C_1  and  C_2
REMARK    2  A    between atoms: C_5  and  S_6
REMARK    3  A    between atoms: S_6  and  N_9
REMARK    4  A    between atoms: N_9  and  C_10
REMARK    5  A    between atoms: C_10  and  C_11
REMARK    6  A    between atoms: C_10  and  C_13
REMARK    7  A    between atoms: C_11  and  O_12
REMARK    8  A    between atoms: C_13  and  O_15
REMARK                            x       y       z     vdW  Elec       q    Type
REMARK                         _______ _______ _______ _____ _____    ______ ____
ROOT
ATOM      1  S   UNL     1       5.585   5.194  16.376  0.00  0.00    +0.000 S 
ATOM      2  O   UNL     1       6.615   4.185  16.296  0.00  0.00    +0.000 OA
ATOM      3  O   UNL     1       5.160   5.958  15.221  0.00  0.00    +0.000 OA
ENDROOT
BRANCH   1   8
ATOM      4  C   UNL     1       0.693   2.597  18.869  0.00  0.00    +0.000 C 
ATOM      5  C   UNL     1       1.900   3.237  18.249  0.00  0.00    +0.000 A 
ATOM      6  C   UNL     1       2.938   2.448  17.734  0.00  0.00    +0.000 A 
ATOM      7  C   UNL     1       4.067   3.046  17.173  0.00  0.00    +0.000 A 
ATOM      8  C   UNL     1       4.158   4.439  17.110  0.00  0.00    +0.000 A 
ATOM      9  C   UNL     1       3.135   5.241  17.628  0.00  0.00    +0.000 A 
ATOM     10  C   UNL     1       2.011   4.635  18.196  0.00  0.00    +0.000 A 
ENDBRANCH   1   8
BRANCH   1  11
ATOM     11  N   UNL     1       6.072   6.292  17.538  0.00  0.00    +0.000 NA
ATOM     12  H   UNL     1       5.314   6.534  18.190  0.00  0.00    +0.000 HD
BRANCH  11  13
ATOM     13  C   UNL     1       7.400   6.135  18.185  0.00  0.00    +0.000 C 
BRANCH  13  14
ATOM     14  C   UNL     1       7.161   5.488  19.558  0.00  0.00    +0.000 C 
ATOM     15  O   UNL     1       6.121   4.896  19.837  0.00  0.00    +0.000 OA
BRANCH  14  16
ATOM     16  O   UNL     1       8.199   5.538  20.425  0.00  0.00    +0.000 OA
ATOM     17  H   UNL     1       9.086   5.542  19.987  0.00  0.00    +0.000 HD
ENDBRANCH  14  16
ENDBRANCH  13  14
BRANCH  13  18
ATOM     18  C   UNL     1       8.130   7.471  18.324  0.00  0.00    +0.000 C 
BRANCH  18  19
ATOM     19  O   UNL     1       7.761   8.338  17.241  0.00  0.00    +0.000 OA
ATOM     20  H   UNL     1       6.793   8.475  17.307  0.00  0.00    +0.000 HD
ENDBRANCH  18  19
ENDBRANCH  13  18
ENDBRANCH  11  13
ENDBRANCH   1  11
TORSDOF 7
ENDMDL
MODEL 4
REMARK VINA RESULT:      -6.4      3.674      6.212
REMARK  Name = 
REMARK  8 active torsions:
REMARK  status: ('A' for Active; 'I' for Inactive)
REMARK    1  A    between atoms: C_1  and  C_2
REMARK    2  A    between atoms: C_5  and  S_6
REMARK    3  A    between atoms: S_6  and  N_9
REMARK    4  A    between atoms: N_9  and  C_10
REMARK    5  A    between atoms: C_10  and  C_11
REMARK    6  A    between atoms: C_10  and  C_13
REMARK    7  A    between atoms: C_11  and  O_12
REMARK    8  A    between atoms: C_13  and  O_15
REMARK                            x       y       z     vdW  Elec       q    Type
REMARK                         _______ _______ _______ _____ _____    ______ ____
ROOT
ATOM      1  S   UNL     1       6.933   5.551  16.537  0.00  0.00    +0.000 S 
ATOM      2  O   UNL     1       7.278   6.913  16.876  0.00  0.00    +0.000 OA
ATOM      3  O   UNL     1       7.872   4.458  16.682  0.00  0.00    +0.000 OA
ENDROOT
BRANCH   1   8
ATOM      4  C   UNL     1       1.847   4.170  19.557  0.00  0.00    +0.000 C 
ATOM      5  C   UNL     1       3.102   4.514  18.808  0.00  0.00    +0.000 A 
ATOM      6  C   UNL     1       3.261   4.126  17.471  0.00  0.00    +0.000 A 
ATOM      7  C   UNL     1       4.434   4.431  16.782  0.00  0.00    +0.000 A 
ATOM      8  C   UNL     1       5.452   5.144  17.423  0.00  0.00    +0.000 A 
ATOM      9  C   UNL     1       5.312   5.531  18.761  0.00  0.00    +0.000 A 
ATOM     10  C   UNL     1       4.137   5.213  19.446  0.00  0.00    +0.000 A 
ENDBRANCH   1   8
BRANCH   1  11
ATOM     11  N   UNL     1       6.431   5.561  14.943  0.00  0.00    +0.000 NA
ATOM     12  H   UNL     1       6.411   6.508  14.545  0.00  0.00    +0.000 HD
BRANCH  11  13
ATOM     13  C   UNL     1       6.934   4.521  14.008  0.00  0.00    +0.000 C 
BRANCH  13  14
ATOM     14  C   UNL     1       7.826   5.232  12.979  0.00  0.00    +0.000 C 
ATOM     15  O   UNL     1       8.772   5.944  13.306  0.00  0.00    +0.000 OA
BRANCH  14  16
ATOM     16  O   UNL     1       7.560   4.965  11.680  0.00  0.00    +0.000 OA
ATOM     17  H   UNL     1       8.210   5.364  11.049  0.00  0.00    +0.000 HD
ENDBRANCH  14  16
ENDBRANCH  13  14
BRANCH  13  18
ATOM     18  C   UNL     1       5.794   3.767  13.325  0.00  0.00    +0.000 C 
BRANCH  18  19
ATOM     19  O   UNL     1       6.326   2.668  12.570  0.00  0.00    +0.000 OA
ATOM     20  H   UNL     1       7.229   2.927  12.293  0.00  0.00    +0.000 HD
ENDBRANCH  18  19
ENDBRANCH  13  18
ENDBRANCH  11  13
ENDBRANCH   1  11
TORSDOF 7
ENDMDL
MODEL 5
REMARK VINA RESULT:      -6.4      1.035      1.306
REMARK  Name = 
REMARK  8 active torsions:
REMARK  status: ('A' for Active; 'I' for Inactive)
REMARK    1  A    between atoms: C_1  and  C_2
REMARK    2  A    between atoms: C_5  and  S_6
REMARK    3  A    between atoms: S_6  and  N_9
REMARK    4  A    between atoms: N_9  and  C_10
REMARK    5  A    between atoms: C_10  and  C_11
REMARK    6  A    between atoms: C_10  and  C_13
REMARK    7  A    between atoms: C_11  and  O_12
REMARK    8  A    between atoms: C_13  and  O_15
REMARK                            x       y       z     vdW  Elec       q    Type
REMARK                         _______ _______ _______ _____ _____    ______ ____
ROOT
ATOM      1  S   UNL     1       5.444   4.889  19.135  0.00  0.00    +0.000 S 
ATOM      2  O   UNL     1       6.715   5.061  19.800  0.00  0.00    +0.000 OA
ATOM      3  O   UNL     1       4.365   5.846  19.272  0.00  0.00    +0.000 OA
ENDROOT
BRANCH   1   8
ATOM      4  C   UNL     1       6.574   4.064  13.225  0.00  0.00    +0.000 C 
ATOM      5  C   UNL     1       6.294   4.263  14.686  0.00  0.00    +0.000 A 
ATOM      6  C   UNL     1       4.990   4.142  15.182  0.00  0.00    +0.000 A 
ATOM      7  C   UNL     1       4.728   4.345  16.537  0.00  0.00    +0.000 A 
ATOM      8  C   UNL     1       5.776   4.654  17.409  0.00  0.00    +0.000 A 
ATOM      9  C   UNL     1       7.083   4.788  16.928  0.00  0.00    +0.000 A 
ATOM     10  C   UNL     1       7.335   4.592  15.567  0.00  0.00    +0.000 A 
ENDBRANCH   1   8
BRANCH   1  11
ATOM     11  N   UNL     1       4.846   3.403  19.611  0.00  0.00    +0.000 NA
ATOM     12  H   UNL     1       5.291   3.060  20.473  0.00  0.00    +0.000 HD
BRANCH  11  13
ATOM     13  C   UNL     1       3.385   3.140  19.537  0.00  0.00    +0.000 C 
BRANCH  13  14
ATOM     14  C   UNL     1       2.827   3.283  20.962  0.00  0.00    +0.000 C 
ATOM     15  O   UNL     1       2.905   2.382  21.794  0.00  0.00    +0.000 OA
BRANCH  14  16
ATOM     16  O   UNL     1       2.311   4.492  21.277  0.00  0.00    +0.000 OA
ATOM     17  H   UNL     1       2.813   5.254  20.893  0.00  0.00    +0.000 HD
ENDBRANCH  14  16
ENDBRANCH  13  14
BRANCH  13  18
ATOM     18  C   UNL     1       3.081   1.758  18.960  0.00  0.00    +0.000 C 
BRANCH  18  19
ATOM     19  O   UNL     1       1.669   1.509  19.020  0.00  0.00    +0.000 OA
ATOM     20  H   UNL     1       1.369   1.801  19.906  0.00  0.00    +0.000 HD
ENDBRANCH  18  19
ENDBRANCH  13  18
ENDBRANCH  11  13
ENDBRANCH   1  11
TORSDOF 7
ENDMDL
MODEL 6
REMARK VINA RESULT:      -6.4      3.545      5.883
REMARK  Name = 
REMARK  8 active torsions:
REMARK  status: ('A' for Active; 'I' for Inactive)
REMARK    1  A    between atoms: C_1  and  C_2
REMARK    2  A    between atoms: C_5  and  S_6
REMARK    3  A    between atoms: S_6  and  N_9
REMARK    4  A    between atoms: N_9  and  C_10
REMARK    5  A    between atoms: C_10  and  C_11
REMARK    6  A    between atoms: C_10  and  C_13
REMARK    7  A    between atoms: C_11  and  O_12
REMARK    8  A    between atoms: C_13  and  O_15
REMARK                            x       y       z     vdW  Elec       q    Type
REMARK                         _______ _______ _______ _____ _____    ______ ____
ROOT
ATOM      1  S   UNL     1       4.323   3.981  18.098  0.00  0.00    +0.000 S 
ATOM      2  O   UNL     1       5.445   3.692  18.962  0.00  0.00    +0.000 OA
ATOM      3  O   UNL     1       3.443   2.943  17.603  0.00  0.00    +0.000 OA
ENDROOT
BRANCH   1   8
ATOM      4  C   UNL     1       0.977   8.234  20.857  0.00  0.00    +0.000 C 
ATOM      5  C   UNL     1       1.808   7.185  20.177  0.00  0.00    +0.000 A 
ATOM      6  C   UNL     1       2.516   7.488  19.006  0.00  0.00    +0.000 A 
ATOM      7  C   UNL     1       3.274   6.508  18.366  0.00  0.00    +0.000 A 
ATOM      8  C   UNL     1       3.340   5.219  18.902  0.00  0.00    +0.000 A 
ATOM      9  C   UNL     1       2.631   4.897  20.065  0.00  0.00    +0.000 A 
ATOM     10  C   UNL     1       1.868   5.883  20.696  0.00  0.00    +0.000 A 
ENDBRANCH   1   8
BRANCH   1  11
ATOM     11  N   UNL     1       4.931   4.786  16.766  0.00  0.00    +0.000 NA
ATOM     12  H   UNL     1       5.205   5.753  16.985  0.00  0.00    +0.000 HD
BRANCH  11  13
ATOM     13  C   UNL     1       5.865   4.085  15.847  0.00  0.00    +0.000 C 
BRANCH  13  14
ATOM     14  C   UNL     1       7.258   4.695  16.065  0.00  0.00    +0.000 C 
ATOM     15  O   UNL     1       7.714   5.576  15.340  0.00  0.00    +0.000 OA
BRANCH  14  16
ATOM     16  O   UNL     1       7.930   4.262  17.156  0.00  0.00    +0.000 OA
ATOM     17  H   UNL     1       8.893   4.493  17.150  0.00  0.00    +0.000 HD
ENDBRANCH  14  16
ENDBRANCH  13  14
BRANCH  13  18
ATOM     18  C   UNL     1       5.430   4.209  14.387  0.00  0.00    +0.000 C 
BRANCH  18  19
ATOM     19  O   UNL     1       6.319   3.452  13.552  0.00  0.00    +0.000 OA
ATOM     20  H   UNL     1       6.530   4.016  12.780  0.00  0.00    +0.000 HD
ENDBRANCH  18  19
ENDBRANCH  13  18
ENDBRANCH  11  13
ENDBRANCH   1  11
TORSDOF 7
ENDMDL
MODEL 7
REMARK VINA RESULT:      -6.4      3.398      5.562
REMARK  Name = 
REMARK  8 active torsions:
REMARK  status: ('A' for Active; 'I' for Inactive)
REMARK    1  A    between atoms: C_1  and  C_2
REMARK    2  A    between atoms: C_5  and  S_6
REMARK    3  A    between atoms: S_6  and  N_9
REMARK    4  A    between atoms: N_9  and  C_10
REMARK    5  A    between atoms: C_10  and  C_11
REMARK    6  A    between atoms: C_10  and  C_13
REMARK    7  A    between atoms: C_11  and  O_12
REMARK    8  A    between atoms: C_13  and  O_15
REMARK                            x       y       z     vdW  Elec       q    Type
REMARK                         _______ _______ _______ _____ _____    ______ ____
ROOT
ATOM      1  S   UNL     1       5.675   5.475  15.700  0.00  0.00    +0.000 S 
ATOM      2  O   UNL     1       5.774   4.334  14.818  0.00  0.00    +0.000 OA
ATOM      3  O   UNL     1       5.390   6.808  15.211  0.00  0.00    +0.000 OA
ENDROOT
BRANCH   1   8
ATOM      4  C   UNL     1       1.639   4.101  20.026  0.00  0.00    +0.000 C 
ATOM      5  C   UNL     1       2.639   4.442  18.961  0.00  0.00    +0.000 A 
ATOM      6  C   UNL     1       2.815   5.771  18.550  0.00  0.00    +0.000 A 
ATOM      7  C   UNL     1       3.732   6.084  17.547  0.00  0.00    +0.000 A 
ATOM      8  C   UNL     1       4.493   5.070  16.959  0.00  0.00    +0.000 A 
ATOM      9  C   UNL     1       4.323   3.737  17.351  0.00  0.00    +0.000 A 
ATOM     10  C   UNL     1       3.395   3.431  18.350  0.00  0.00    +0.000 A 
ENDBRANCH   1   8
BRANCH   1  11
ATOM     11  N   UNL     1       7.114   5.559  16.546  0.00  0.00    +0.000 NA
ATOM     12  H   UNL     1       7.885   5.925  15.971  0.00  0.00    +0.000 HD
BRANCH  11  13
ATOM     13  C   UNL     1       7.115   6.053  17.947  0.00  0.00    +0.000 C 
BRANCH  13  14
ATOM     14  C   UNL     1       7.813   7.422  17.944  0.00  0.00    +0.000 C 
ATOM     15  O   UNL     1       7.569   8.285  17.104  0.00  0.00    +0.000 OA
BRANCH  14  16
ATOM     16  O   UNL     1       8.660   7.657  18.972  0.00  0.00    +0.000 OA
ATOM     17  H   UNL     1       9.521   8.060  18.696  0.00  0.00    +0.000 HD
ENDBRANCH  14  16
ENDBRANCH  13  14
BRANCH  13  18
ATOM     18  C   UNL     1       7.813   5.079  18.896  0.00  0.00    +0.000 C 
BRANCH  18  19
ATOM     19  O   UNL     1       7.637   5.515  20.252  0.00  0.00    +0.000 OA
ATOM     20  H   UNL     1       6.735   5.243  20.521  0.00  0.00    +0.000 HD
ENDBRANCH  18  19
ENDBRANCH  13  18
ENDBRANCH  11  13
ENDBRANCH   1  11
TORSDOF 7
ENDMDL
MODEL 8
REMARK VINA RESULT:      -6.4      3.423      5.383
REMARK  Name = 
REMARK  8 active torsions:
REMARK  status: ('A' for Active; 'I' for Inactive)
REMARK    1  A    between atoms: C_1  and  C_2
REMARK    2  A    between atoms: C_5  and  S_6
REMARK    3  A    between atoms: S_6  and  N_9
REMARK    4  A    between atoms: N_9  and  C_10
REMARK    5  A    between atoms: C_10  and  C_11
REMARK    6  A    between atoms: C_10  and  C_13
REMARK    7  A    between atoms: C_11  and  O_12
REMARK    8  A    between atoms: C_13  and  O_15
REMARK                            x       y       z     vdW  Elec       q    Type
REMARK                         _______ _______ _______ _____ _____    ______ ____
ROOT
ATOM      1  S   UNL     1       5.544   6.005  16.193  0.00  0.00    +0.000 S 
ATOM      2  O   UNL     1       6.529   5.036  15.771  0.00  0.00    +0.000 OA
ATOM      3  O   UNL     1       4.972   6.973  15.279  0.00  0.00    +0.000 OA
ENDROOT
BRANCH   1   8
ATOM      4  C   UNL     1       1.027   2.958  18.878  0.00  0.00    +0.000 C 
ATOM      5  C   UNL     1       2.145   3.712  18.219  0.00  0.00    +0.000 A 
ATOM      6  C   UNL     1       2.229   5.106  18.336  0.00  0.00    +0.000 A 
ATOM      7  C   UNL     1       3.258   5.807  17.708  0.00  0.00    +0.000 A 
ATOM      8  C   UNL     1       4.223   5.114  16.971  0.00  0.00    +0.000 A 
ATOM      9  C   UNL     1       4.148   3.723  16.836  0.00  0.00    +0.000 A 
ATOM     10  C   UNL     1       3.108   3.029  17.461  0.00  0.00    +0.000 A 
ENDBRANCH   1   8
BRANCH   1  11
ATOM     11  N   UNL     1       6.218   6.863  17.458  0.00  0.00    +0.000 NA
ATOM     12  H   UNL     1       5.582   6.939  18.262  0.00  0.00    +0.000 HD
BRANCH  11  13
ATOM     13  C   UNL     1       7.639   6.630  17.829  0.00  0.00    +0.000 C 
BRANCH  13  14
ATOM     14  C   UNL     1       7.664   5.436  18.796  0.00  0.00    +0.000 C 
ATOM     15  O   UNL     1       7.436   5.555  19.997  0.00  0.00    +0.000 OA
BRANCH  14  16
ATOM     16  O   UNL     1       7.876   4.224  18.235  0.00  0.00    +0.000 OA
ATOM     17  H   UNL     1       7.168   3.948  17.601  0.00  0.00    +0.000 HD
ENDBRANCH  14  16
ENDBRANCH  13  14
BRANCH  13  18
ATOM     18  C   UNL     1       8.275   7.868  18.461  0.00  0.00    +0.000 C 
BRANCH  18  19
ATOM     19  O   UNL     1       7.849   9.043  17.757  0.00  0.00    +0.000 OA
ATOM     20  H   UNL     1       7.724   8.782  16.821  0.00  0.00    +0.000 HD
ENDBRANCH  18  19
ENDBRANCH  13  18
ENDBRANCH  11  13
ENDBRANCH   1  11
TORSDOF 7
ENDMDL
MODEL 9
REMARK VINA RESULT:      -6.3      1.780      2.433
REMARK  Name = 
REMARK  8 active torsions:
REMARK  status: ('A' for Active; 'I' for Inactive)
REMARK    1  A    between atoms: C_1  and  C_2
REMARK    2  A    between atoms: C_5  and  S_6
REMARK    3  A    between atoms: S_6  and  N_9
REMARK    4  A    between atoms: N_9  and  C_10
REMARK    5  A    between atoms: C_10  and  C_11
REMARK    6  A    between atoms: C_10  and  C_13
REMARK    7  A    between atoms: C_11  and  O_12
REMARK    8  A    between atoms: C_13  and  O_15
REMARK                            x       y       z     vdW  Elec       q    Type
REMARK                         _______ _______ _______ _____ _____    ______ ____
ROOT
ATOM      1  S   UNL     1       2.834   5.313  18.421  0.00  0.00    +0.000 S 
ATOM      2  O   UNL     1       2.924   6.631  19.006  0.00  0.00    +0.000 OA
ATOM      3  O   UNL     1       1.597   4.790  17.879  0.00  0.00    +0.000 OA
ENDROOT
BRANCH   1   8
ATOM      4  C   UNL     1       7.116   4.945  14.128  0.00  0.00    +0.000 C 
ATOM      5  C   UNL     1       6.055   5.037  15.185  0.00  0.00    +0.000 A 
ATOM      6  C   UNL     1       5.656   6.284  15.684  0.00  0.00    +0.000 A 
ATOM      7  C   UNL     1       4.682   6.368  16.679  0.00  0.00    +0.000 A 
ATOM      8  C   UNL     1       4.088   5.202  17.171  0.00  0.00    +0.000 A 
ATOM      9  C   UNL     1       4.483   3.948  16.691  0.00  0.00    +0.000 A 
ATOM     10  C   UNL     1       5.465   3.873  15.700  0.00  0.00    +0.000 A 
ENDBRANCH   1   8
BRANCH   1  11
ATOM     11  N   UNL     1       3.360   4.231  19.581  0.00  0.00    +0.000 NA
ATOM     12  H   UNL     1       3.483   4.673  20.501  0.00  0.00    +0.000 HD
BRANCH  11  13
ATOM     13  C   UNL     1       2.767   2.869  19.637  0.00  0.00    +0.000 C 
BRANCH  13  14
ATOM     14  C   UNL     1       2.134   2.709  21.029  0.00  0.00    +0.000 C 
ATOM     15  O   UNL     1       2.801   2.480  22.035  0.00  0.00    +0.000 OA
BRANCH  14  16
ATOM     16  O   UNL     1       0.799   2.912  21.099  0.00  0.00    +0.000 OA
ATOM     17  H   UNL     1       0.503   3.765  20.693  0.00  0.00    +0.000 HD
ENDBRANCH  14  16
ENDBRANCH  13  14
BRANCH  13  18
ATOM     18  C   UNL     1       3.808   1.781  19.375  0.00  0.00    +0.000 C 
BRANCH  18  19
ATOM     19  O   UNL     1       5.050   2.140  19.999  0.00  0.00    +0.000 OA
ATOM     20  H   UNL     1       5.125   1.595  20.810  0.00  0.00    +0.000 HD
ENDBRANCH  18  19
ENDBRANCH  13  18
ENDBRANCH  11  13
ENDBRANCH   1  11
TORSDOF 7
ENDMDL
