MODEL 1
REMARK VINA RESULT:      -7.5      0.000      0.000
REMARK  Name = 
REMARK  4 active torsions:
REMARK  status: ('A' for Active; 'I' for Inactive)
REMARK    1  A    between atoms: C_1  and  C_2
REMARK    2  A    between atoms: C_17  and  O_18
REMARK    3  A    between atoms: C_21  and  O_22
REMARK    4  A    between atoms: O_22  and  S_23
REMARK                            x       y       z     vdW  Elec       q    Type
REMARK                         _______ _______ _______ _____ _____    ______ ____
ROOT
ATOM      1  C   UNL     1      -1.565  11.509  22.511  0.00  0.00    +0.000 C 
ATOM      2  C   UNL     1      -1.489  12.520  21.335  0.00  0.00    +0.000 C 
ATOM      3  C   UNL     1      -0.994  13.903  21.917  0.00  0.00    +0.000 C 
ATOM      4  C   UNL     1       0.242  14.528  21.227  0.00  0.00    +0.000 C 
ATOM      5  C   UNL     1       1.371  13.499  21.079  0.00  0.00    +0.000 C 
ATOM      6  O   UNL     1       2.515  13.640  21.484  0.00  0.00    +0.000 OA
ATOM      7  C   UNL     1       0.903  12.363  20.331  0.00  0.00    +0.000 A 
ATOM      8  C   UNL     1       1.493  11.645  19.317  0.00  0.00    +0.000 A 
ATOM      9  O   UNL     1       0.511  11.031  18.584  0.00  0.00    +0.000 OA
ATOM     10  C   UNL     1      -0.669  11.368  19.172  0.00  0.00    +0.000 A 
ATOM     11  C   UNL     1      -0.464  12.005  20.363  0.00  0.00    +0.000 A 
ATOM     12  C   UNL     1      -1.930  11.270  18.523  0.00  0.00    +0.000 C 
ATOM     13  O   UNL     1      -2.122  10.774  17.420  0.00  0.00    +0.000 OA
ATOM     14  C   UNL     1      -3.031  11.935  19.302  0.00  0.00    +0.000 A 
ATOM     15  C   UNL     1      -4.281  11.936  18.678  0.00  0.00    +0.000 A 
ATOM     16  C   UNL     1      -5.429  12.445  19.298  0.00  0.00    +0.000 A 
ATOM     17  C   UNL     1      -6.667  12.401  18.630  0.00  0.00    +0.000 A 
ATOM     18  C   UNL     1      -7.824  12.885  19.209  0.00  0.00    +0.000 A 
ATOM     19  C   UNL     1      -7.762  13.404  20.488  0.00  0.00    +0.000 A 
ATOM     20  C   UNL     1      -6.571  13.370  21.226  0.00  0.00    +0.000 A 
ATOM     21  C   UNL     1      -5.339  12.957  20.613  0.00  0.00    +0.000 A 
ATOM     22  C   UNL     1      -4.039  12.986  21.232  0.00  0.00    +0.000 A 
ATOM     23  C   UNL     1      -2.853  12.508  20.591  0.00  0.00    +0.000 A 
ENDROOT
BRANCH  17  24
ATOM     24  O   UNL     1      -6.807  11.881  17.371  0.00  0.00    +0.000 OA
ATOM     25  H   UNL     1      -7.455  12.434  16.905  0.00  0.00    +0.000 HD
ENDBRANCH  17  24
BRANCH  20  26
ATOM     26  O   UNL     1      -6.550  13.711  22.561  0.00  0.00    +0.000 OA
BRANCH  26  27
ATOM     27  S   UNL     1      -6.984  12.627  23.730  0.00  0.00    +0.000 S 
ATOM     28  O   UNL     1      -5.712  12.302  24.369  0.00  0.00    +0.000 OA
ATOM     29  O   UNL     1      -7.916  13.370  24.575  0.00  0.00    +0.000 OA
ATOM     30  O   UNL     1      -7.577  11.495  23.014  0.00  0.00    +0.000 OA
ENDBRANCH  26  27
ENDBRANCH  20  26
TORSDOF 3
ENDMDL
MODEL 2
REMARK VINA RESULT:      -7.4      5.679      9.765
REMARK  Name = 
REMARK  4 active torsions:
REMARK  status: ('A' for Active; 'I' for Inactive)
REMARK    1  A    between atoms: C_1  and  C_2
REMARK    2  A    between atoms: C_17  and  O_18
REMARK    3  A    between atoms: C_21  and  O_22
REMARK    4  A    between atoms: O_22  and  S_23
REMARK                            x       y       z     vdW  Elec       q    Type
REMARK                         _______ _______ _______ _____ _____    ______ ____
ROOT
ATOM      1  C   UNL     1       0.021   9.765  17.467  0.00  0.00    +0.000 C 
ATOM      2  C   UNL     1       0.956  10.016  18.681  0.00  0.00    +0.000 C 
ATOM      3  C   UNL     1       2.065  11.048  18.232  0.00  0.00    +0.000 C 
ATOM      4  C   UNL     1       2.221  12.308  19.117  0.00  0.00    +0.000 C 
ATOM      5  C   UNL     1       0.861  12.966  19.387  0.00  0.00    +0.000 C 
ATOM      6  O   UNL     1       0.581  14.132  19.156  0.00  0.00    +0.000 OA
ATOM      7  C   UNL     1      -0.024  12.021  20.014  0.00  0.00    +0.000 A 
ATOM      8  C   UNL     1      -0.889  12.161  21.074  0.00  0.00    +0.000 A 
ATOM      9  O   UNL     1      -1.104  10.928  21.632  0.00  0.00    +0.000 OA
ATOM     10  C   UNL     1      -0.380  10.045  20.893  0.00  0.00    +0.000 A 
ATOM     11  C   UNL     1       0.126  10.637  19.770  0.00  0.00    +0.000 A 
ATOM     12  C   UNL     1      -0.015   8.749  21.349  0.00  0.00    +0.000 C 
ATOM     13  O   UNL     1      -0.394   8.232  22.392  0.00  0.00    +0.000 OA
ATOM     14  C   UNL     1       0.986   8.082  20.445  0.00  0.00    +0.000 A 
ATOM     15  C   UNL     1       1.440   6.834  20.881  0.00  0.00    +0.000 A 
ATOM     16  C   UNL     1       2.313   6.046  20.123  0.00  0.00    +0.000 A 
ATOM     17  C   UNL     1       2.721   4.788  20.602  0.00  0.00    +0.000 A 
ATOM     18  C   UNL     1       3.575   3.976  19.882  0.00  0.00    +0.000 A 
ATOM     19  C   UNL     1       4.019   4.406  18.646  0.00  0.00    +0.000 A 
ATOM     20  C   UNL     1       3.554   5.605  18.087  0.00  0.00    +0.000 A 
ATOM     21  C   UNL     1       2.740   6.506  18.855  0.00  0.00    +0.000 A 
ATOM     22  C   UNL     1       2.298   7.809  18.432  0.00  0.00    +0.000 A 
ATOM     23  C   UNL     1       1.440   8.641  19.219  0.00  0.00    +0.000 A 
ENDROOT
BRANCH  17  24
ATOM     24  O   UNL     1       2.303   4.287  21.806  0.00  0.00    +0.000 OA
ATOM     25  H   UNL     1       2.684   3.398  21.893  0.00  0.00    +0.000 HD
ENDBRANCH  17  24
BRANCH  20  26
ATOM     26  O   UNL     1       3.845   5.943  16.784  0.00  0.00    +0.000 OA
BRANCH  26  27
ATOM     27  S   UNL     1       5.394   6.271  16.309  0.00  0.00    +0.000 S 
ATOM     28  O   UNL     1       5.208   7.053  15.090  0.00  0.00    +0.000 OA
ATOM     29  O   UNL     1       5.958   7.020  17.430  0.00  0.00    +0.000 OA
ATOM     30  O   UNL     1       6.014   4.967  16.070  0.00  0.00    +0.000 OA
ENDBRANCH  26  27
ENDBRANCH  20  26
TORSDOF 3
ENDMDL
MODEL 3
REMARK VINA RESULT:      -7.1      0.776      1.150
REMARK  Name = 
REMARK  4 active torsions:
REMARK  status: ('A' for Active; 'I' for Inactive)
REMARK    1  A    between atoms: C_1  and  C_2
REMARK    2  A    between atoms: C_17  and  O_18
REMARK    3  A    between atoms: C_21  and  O_22
REMARK    4  A    between atoms: O_22  and  S_23
REMARK                            x       y       z     vdW  Elec       q    Type
REMARK                         _______ _______ _______ _____ _____    ______ ____
ROOT
ATOM      1  C   UNL     1      -1.206  12.285  22.960  0.00  0.00    +0.000 C 
ATOM      2  C   UNL     1      -1.244  13.190  21.699  0.00  0.00    +0.000 C 
ATOM      3  C   UNL     1      -1.044  14.684  22.170  0.00  0.00    +0.000 C 
ATOM      4  C   UNL     1       0.098  15.468  21.479  0.00  0.00    +0.000 C 
ATOM      5  C   UNL     1       1.402  14.659  21.478  0.00  0.00    +0.000 C 
ATOM      6  O   UNL     1       2.474  15.043  21.918  0.00  0.00    +0.000 OA
ATOM      7  C   UNL     1       1.193  13.396  20.820  0.00  0.00    +0.000 A 
ATOM      8  C   UNL     1       1.963  12.718  19.904  0.00  0.00    +0.000 A 
ATOM      9  O   UNL     1       1.155  11.872  19.189  0.00  0.00    +0.000 OA
ATOM     10  C   UNL     1      -0.099  12.032  19.692  0.00  0.00    +0.000 A 
ATOM     11  C   UNL     1      -0.085  12.795  20.825  0.00  0.00    +0.000 A 
ATOM     12  C   UNL     1      -1.280  11.648  19.000  0.00  0.00    +0.000 C 
ATOM     13  O   UNL     1      -1.312  11.034  17.941  0.00  0.00    +0.000 OA
ATOM     14  C   UNL     1      -2.529  12.159  19.664  0.00  0.00    +0.000 A 
ATOM     15  C   UNL     1      -3.719  11.876  18.989  0.00  0.00    +0.000 A 
ATOM     16  C   UNL     1      -4.975  12.212  19.507  0.00  0.00    +0.000 A 
ATOM     17  C   UNL     1      -6.142  11.884  18.793  0.00  0.00    +0.000 A 
ATOM     18  C   UNL     1      -7.400  12.190  19.272  0.00  0.00    +0.000 A 
ATOM     19  C   UNL     1      -7.511  12.818  20.499  0.00  0.00    +0.000 A 
ATOM     20  C   UNL     1      -6.379  13.067  21.289  0.00  0.00    +0.000 A 
ATOM     21  C   UNL     1      -5.059  12.841  20.771  0.00  0.00    +0.000 A 
ATOM     22  C   UNL     1      -3.826  13.163  21.441  0.00  0.00    +0.000 A 
ATOM     23  C   UNL     1      -2.536  12.862  20.900  0.00  0.00    +0.000 A 
ENDROOT
BRANCH  17  24
ATOM     24  O   UNL     1      -6.109  11.243  17.583  0.00  0.00    +0.000 OA
ATOM     25  H   UNL     1      -5.223  10.854  17.491  0.00  0.00    +0.000 HD
ENDBRANCH  17  24
BRANCH  20  26
ATOM     26  O   UNL     1      -6.501  13.517  22.585  0.00  0.00    +0.000 OA
BRANCH  26  27
ATOM     27  S   UNL     1      -6.955  12.501  23.806  0.00  0.00    +0.000 S 
ATOM     28  O   UNL     1      -7.917  13.299  24.562  0.00  0.00    +0.000 OA
ATOM     29  O   UNL     1      -7.532  11.350  23.114  0.00  0.00    +0.000 OA
ATOM     30  O   UNL     1      -5.728  12.214  24.553  0.00  0.00    +0.000 OA
ENDBRANCH  26  27
ENDBRANCH  20  26
TORSDOF 3
ENDMDL
MODEL 4
REMARK VINA RESULT:      -7.0      2.794      4.856
REMARK  Name = 
REMARK  4 active torsions:
REMARK  status: ('A' for Active; 'I' for Inactive)
REMARK    1  A    between atoms: C_1  and  C_2
REMARK    2  A    between atoms: C_17  and  O_18
REMARK    3  A    between atoms: C_21  and  O_22
REMARK    4  A    between atoms: O_22  and  S_23
REMARK                            x       y       z     vdW  Elec       q    Type
REMARK                         _______ _______ _______ _____ _____    ______ ____
ROOT
ATOM      1  C   UNL     1      -1.595  12.220  18.653  0.00  0.00    +0.000 C 
ATOM      2  C   UNL     1      -0.502  11.823  19.682  0.00  0.00    +0.000 C 
ATOM      3  C   UNL     1      -0.527  10.251  19.832  0.00  0.00    +0.000 C 
ATOM      4  C   UNL     1       0.823   9.525  19.614  0.00  0.00    +0.000 C 
ATOM      5  C   UNL     1       1.499   9.995  18.319  0.00  0.00    +0.000 C 
ATOM      6  O   UNL     1       1.866   9.268  17.408  0.00  0.00    +0.000 OA
ATOM      7  C   UNL     1       1.698  11.419  18.360  0.00  0.00    +0.000 A 
ATOM      8  C   UNL     1       2.782  12.188  18.005  0.00  0.00    +0.000 A 
ATOM      9  O   UNL     1       2.721  13.375  18.688  0.00  0.00    +0.000 OA
ATOM     10  C   UNL     1       1.589  13.322  19.441  0.00  0.00    +0.000 A 
ATOM     11  C   UNL     1       0.826  12.237  19.112  0.00  0.00    +0.000 A 
ATOM     12  C   UNL     1       1.351  14.157  20.567  0.00  0.00    +0.000 C 
ATOM     13  O   UNL     1       2.066  15.084  20.924  0.00  0.00    +0.000 OA
ATOM     14  C   UNL     1       0.148  13.725  21.359  0.00  0.00    +0.000 A 
ATOM     15  C   UNL     1      -0.093  14.463  22.521  0.00  0.00    +0.000 A 
ATOM     16  C   UNL     1      -1.213  14.243  23.332  0.00  0.00    +0.000 A 
ATOM     17  C   UNL     1      -1.416  15.031  24.480  0.00  0.00    +0.000 A 
ATOM     18  C   UNL     1      -2.511  14.851  25.301  0.00  0.00    +0.000 A 
ATOM     19  C   UNL     1      -3.443  13.885  24.970  0.00  0.00    +0.000 A 
ATOM     20  C   UNL     1      -3.331  13.152  23.780  0.00  0.00    +0.000 A 
ATOM     21  C   UNL     1      -2.156  13.257  22.960  0.00  0.00    +0.000 A 
ATOM     22  C   UNL     1      -1.879  12.476  21.782  0.00  0.00    +0.000 A 
ATOM     23  C   UNL     1      -0.715  12.664  20.971  0.00  0.00    +0.000 A 
ENDROOT
BRANCH  17  24
ATOM     24  O   UNL     1      -0.548  16.020  24.857  0.00  0.00    +0.000 OA
ATOM     25  H   UNL     1      -1.042  16.630  25.429  0.00  0.00    +0.000 HD
ENDBRANCH  17  24
BRANCH  20  26
ATOM     26  O   UNL     1      -4.349  12.327  23.354  0.00  0.00    +0.000 OA
BRANCH  26  27
ATOM     27  S   UNL     1      -5.731  12.943  22.691  0.00  0.00    +0.000 S 
ATOM     28  O   UNL     1      -6.053  11.981  21.640  0.00  0.00    +0.000 OA
ATOM     29  O   UNL     1      -6.679  12.966  23.803  0.00  0.00    +0.000 OA
ATOM     30  O   UNL     1      -5.363  14.262  22.173  0.00  0.00    +0.000 OA
ENDBRANCH  26  27
ENDBRANCH  20  26
TORSDOF 3
ENDMDL
MODEL 5
REMARK VINA RESULT:      -7.0      0.971      1.259
REMARK  Name = 
REMARK  4 active torsions:
REMARK  status: ('A' for Active; 'I' for Inactive)
REMARK    1  A    between atoms: C_1  and  C_2
REMARK    2  A    between atoms: C_17  and  O_18
REMARK    3  A    between atoms: C_21  and  O_22
REMARK    4  A    between atoms: O_22  and  S_23
REMARK                            x       y       z     vdW  Elec       q    Type
REMARK                         _______ _______ _______ _____ _____    ______ ____
ROOT
ATOM      1  C   UNL     1      -1.190  11.511  22.670  0.00  0.00    +0.000 C 
ATOM      2  C   UNL     1      -1.345  12.719  21.705  0.00  0.00    +0.000 C 
ATOM      3  C   UNL     1      -1.220  14.040  22.561  0.00  0.00    +0.000 C 
ATOM      4  C   UNL     1      -0.165  15.065  22.080  0.00  0.00    +0.000 C 
ATOM      5  C   UNL     1       1.187  14.386  21.821  0.00  0.00    +0.000 C 
ATOM      6  O   UNL     1       2.252  14.716  22.319  0.00  0.00    +0.000 OA
ATOM      7  C   UNL     1       1.029  13.337  20.849  0.00  0.00    +0.000 A 
ATOM      8  C   UNL     1       1.798  12.992  19.762  0.00  0.00    +0.000 A 
ATOM      9  O   UNL     1       1.013  12.313  18.866  0.00  0.00    +0.000 OA
ATOM     10  C   UNL     1      -0.224  12.237  19.427  0.00  0.00    +0.000 A 
ATOM     11  C   UNL     1      -0.206  12.662  20.725  0.00  0.00    +0.000 A 
ATOM     12  C   UNL     1      -1.410  11.966  18.690  0.00  0.00    +0.000 C 
ATOM     13  O   UNL     1      -1.452  11.661  17.505  0.00  0.00    +0.000 OA
ATOM     14  C   UNL     1      -2.656  12.184  19.503  0.00  0.00    +0.000 A 
ATOM     15  C   UNL     1      -3.855  12.006  18.809  0.00  0.00    +0.000 A 
ATOM     16  C   UNL     1      -5.105  12.094  19.435  0.00  0.00    +0.000 A 
ATOM     17  C   UNL     1      -6.280  11.885  18.691  0.00  0.00    +0.000 A 
ATOM     18  C   UNL     1      -7.532  11.955  19.270  0.00  0.00    +0.000 A 
ATOM     19  C   UNL     1      -7.625  12.217  20.625  0.00  0.00    +0.000 A 
ATOM     20  C   UNL     1      -6.476  12.328  21.420  0.00  0.00    +0.000 A 
ATOM     21  C   UNL     1      -5.169  12.349  20.824  0.00  0.00    +0.000 A 
ATOM     22  C   UNL     1      -3.929  12.570  21.522  0.00  0.00    +0.000 A 
ATOM     23  C   UNL     1      -2.649  12.524  20.884  0.00  0.00    +0.000 A 
ENDROOT
BRANCH  17  24
ATOM     24  O   UNL     1      -6.263  11.600  17.351  0.00  0.00    +0.000 OA
ATOM     25  H   UNL     1      -6.505  12.416  16.883  0.00  0.00    +0.000 HD
ENDBRANCH  17  24
BRANCH  20  26
ATOM     26  O   UNL     1      -6.565  12.399  22.793  0.00  0.00    +0.000 OA
BRANCH  26  27
ATOM     27  S   UNL     1      -6.941  13.817  23.555  0.00  0.00    +0.000 S 
ATOM     28  O   UNL     1      -7.915  13.404  24.562  0.00  0.00    +0.000 OA
ATOM     29  O   UNL     1      -5.665  14.277  24.098  0.00  0.00    +0.000 OA
ATOM     30  O   UNL     1      -7.512  14.679  22.518  0.00  0.00    +0.000 OA
ENDBRANCH  26  27
ENDBRANCH  20  26
TORSDOF 3
ENDMDL
MODEL 6
REMARK VINA RESULT:      -6.9      3.238      4.944
REMARK  Name = 
REMARK  4 active torsions:
REMARK  status: ('A' for Active; 'I' for Inactive)
REMARK    1  A    between atoms: C_1  and  C_2
REMARK    2  A    between atoms: C_17  and  O_18
REMARK    3  A    between atoms: C_21  and  O_22
REMARK    4  A    between atoms: O_22  and  S_23
REMARK                            x       y       z     vdW  Elec       q    Type
REMARK                         _______ _______ _______ _____ _____    ______ ____
ROOT
ATOM      1  C   UNL     1       0.921  12.888  19.976  0.00  0.00    +0.000 C 
ATOM      2  C   UNL     1      -0.132  11.747  19.999  0.00  0.00    +0.000 C 
ATOM      3  C   UNL     1      -0.640  11.529  18.520  0.00  0.00    +0.000 C 
ATOM      4  C   UNL     1      -0.547  10.084  17.973  0.00  0.00    +0.000 C 
ATOM      5  C   UNL     1       0.845   9.489  18.223  0.00  0.00    +0.000 C 
ATOM      6  O   UNL     1       1.577   9.015  17.367  0.00  0.00    +0.000 OA
ATOM      7  C   UNL     1       1.141   9.511  19.631  0.00  0.00    +0.000 A 
ATOM      8  C   UNL     1       1.703   8.559  20.449  0.00  0.00    +0.000 A 
ATOM      9  O   UNL     1       1.311   8.801  21.740  0.00  0.00    +0.000 OA
ATOM     10  C   UNL     1       0.525   9.911  21.696  0.00  0.00    +0.000 A 
ATOM     11  C   UNL     1       0.566  10.498  20.462  0.00  0.00    +0.000 A 
ATOM     12  C   UNL     1      -0.387  10.274  22.725  0.00  0.00    +0.000 C 
ATOM     13  O   UNL     1      -0.494   9.710  23.806  0.00  0.00    +0.000 OA
ATOM     14  C   UNL     1      -1.300  11.396  22.315  0.00  0.00    +0.000 A 
ATOM     15  C   UNL     1      -2.269  11.747  23.259  0.00  0.00    +0.000 A 
ATOM     16  C   UNL     1      -3.148  12.819  23.070  0.00  0.00    +0.000 A 
ATOM     17  C   UNL     1      -4.091  13.141  24.064  0.00  0.00    +0.000 A 
ATOM     18  C   UNL     1      -4.971  14.195  23.920  0.00  0.00    +0.000 A 
ATOM     19  C   UNL     1      -4.905  14.966  22.774  0.00  0.00    +0.000 A 
ATOM     20  C   UNL     1      -3.913  14.744  21.809  0.00  0.00    +0.000 A 
ATOM     21  C   UNL     1      -3.049  13.600  21.895  0.00  0.00    +0.000 A 
ATOM     22  C   UNL     1      -2.073  13.206  20.911  0.00  0.00    +0.000 A 
ATOM     23  C   UNL     1      -1.199  12.086  21.076  0.00  0.00    +0.000 A 
ENDROOT
BRANCH  17  24
ATOM     24  O   UNL     1      -4.198  12.435  25.232  0.00  0.00    +0.000 OA
ATOM     25  H   UNL     1      -4.869  11.747  25.089  0.00  0.00    +0.000 HD
ENDBRANCH  17  24
BRANCH  20  26
ATOM     26  O   UNL     1      -3.726  15.623  20.765  0.00  0.00    +0.000 OA
BRANCH  26  27
ATOM     27  S   UNL     1      -2.887  17.032  20.970  0.00  0.00    +0.000 S 
ATOM     28  O   UNL     1      -3.940  18.009  21.234  0.00  0.00    +0.000 OA
ATOM     29  O   UNL     1      -2.011  16.761  22.107  0.00  0.00    +0.000 OA
ATOM     30  O   UNL     1      -2.191  17.261  19.702  0.00  0.00    +0.000 OA
ENDBRANCH  26  27
ENDBRANCH  20  26
TORSDOF 3
ENDMDL
MODEL 7
REMARK VINA RESULT:      -6.9      2.265      6.758
REMARK  Name = 
REMARK  4 active torsions:
REMARK  status: ('A' for Active; 'I' for Inactive)
REMARK    1  A    between atoms: C_1  and  C_2
REMARK    2  A    between atoms: C_17  and  O_18
REMARK    3  A    between atoms: C_21  and  O_22
REMARK    4  A    between atoms: O_22  and  S_23
REMARK                            x       y       z     vdW  Elec       q    Type
REMARK                         _______ _______ _______ _____ _____    ______ ____
ROOT
ATOM      1  C   UNL     1      -3.731  15.116  21.902  0.00  0.00    +0.000 C 
ATOM      2  C   UNL     1      -4.266  13.657  21.925  0.00  0.00    +0.000 C 
ATOM      3  C   UNL     1      -4.293  13.177  23.429  0.00  0.00    +0.000 C 
ATOM      4  C   UNL     1      -5.645  12.626  23.943  0.00  0.00    +0.000 C 
ATOM      5  C   UNL     1      -6.798  13.577  23.595  0.00  0.00    +0.000 C 
ATOM      6  O   UNL     1      -7.591  14.051  24.394  0.00  0.00    +0.000 OA
ATOM      7  C   UNL     1      -6.850  13.782  22.172  0.00  0.00    +0.000 A 
ATOM      8  C   UNL     1      -7.915  13.807  21.303  0.00  0.00    +0.000 A 
ATOM      9  O   UNL     1      -7.464  13.507  20.044  0.00  0.00    +0.000 OA
ATOM     10  C   UNL     1      -6.121  13.320  20.158  0.00  0.00    +0.000 A 
ATOM     11  C   UNL     1      -5.673  13.684  21.396  0.00  0.00    +0.000 A 
ATOM     12  C   UNL     1      -5.337  12.627  19.195  0.00  0.00    +0.000 C 
ATOM     13  O   UNL     1      -5.741  12.221  18.112  0.00  0.00    +0.000 OA
ATOM     14  C   UNL     1      -3.941  12.349  19.681  0.00  0.00    +0.000 A 
ATOM     15  C   UNL     1      -3.146  11.604  18.807  0.00  0.00    +0.000 A 
ATOM     16  C   UNL     1      -1.800  11.322  19.071  0.00  0.00    +0.000 A 
ATOM     17  C   UNL     1      -1.040  10.585  18.144  0.00  0.00    +0.000 A 
ATOM     18  C   UNL     1       0.291  10.292  18.362  0.00  0.00    +0.000 A 
ATOM     19  C   UNL     1       0.896  10.759  19.514  0.00  0.00    +0.000 A 
ATOM     20  C   UNL     1       0.203  11.584  20.411  0.00  0.00    +0.000 A 
ATOM     21  C   UNL     1      -1.204  11.824  20.251  0.00  0.00    +0.000 A 
ATOM     22  C   UNL     1      -2.042  12.557  21.164  0.00  0.00    +0.000 A 
ATOM     23  C   UNL     1      -3.430  12.814  20.924  0.00  0.00    +0.000 A 
ENDROOT
BRANCH  17  24
ATOM     24  O   UNL     1      -1.567  10.111  16.972  0.00  0.00    +0.000 OA
ATOM     25  H   UNL     1      -1.361   9.163  16.930  0.00  0.00    +0.000 HD
ENDBRANCH  17  24
BRANCH  20  26
ATOM     26  O   UNL     1       0.853  12.203  21.457  0.00  0.00    +0.000 OA
BRANCH  26  27
ATOM     27  S   UNL     1       1.557  13.686  21.272  0.00  0.00    +0.000 S 
ATOM     28  O   UNL     1       1.180  14.065  19.914  0.00  0.00    +0.000 OA
ATOM     29  O   UNL     1       0.948  14.501  22.322  0.00  0.00    +0.000 OA
ATOM     30  O   UNL     1       2.995  13.458  21.431  0.00  0.00    +0.000 OA
ENDBRANCH  26  27
ENDBRANCH  20  26
TORSDOF 3
ENDMDL
MODEL 8
REMARK VINA RESULT:      -6.7      2.477      6.444
REMARK  Name = 
REMARK  4 active torsions:
REMARK  status: ('A' for Active; 'I' for Inactive)
REMARK    1  A    between atoms: C_1  and  C_2
REMARK    2  A    between atoms: C_17  and  O_18
REMARK    3  A    between atoms: C_21  and  O_22
REMARK    4  A    between atoms: O_22  and  S_23
REMARK                            x       y       z     vdW  Elec       q    Type
REMARK                         _______ _______ _______ _____ _____    ______ ____
ROOT
ATOM      1  C   UNL     1      -3.554  14.801  22.126  0.00  0.00    +0.000 C 
ATOM      2  C   UNL     1      -4.411  13.524  21.904  0.00  0.00    +0.000 C 
ATOM      3  C   UNL     1      -4.574  12.803  23.299  0.00  0.00    +0.000 C 
ATOM      4  C   UNL     1      -6.025  12.494  23.741  0.00  0.00    +0.000 C 
ATOM      5  C   UNL     1      -6.921  13.732  23.595  0.00  0.00    +0.000 C 
ATOM      6  O   UNL     1      -7.597  14.225  24.485  0.00  0.00    +0.000 OA
ATOM      7  C   UNL     1      -6.900  14.193  22.233  0.00  0.00    +0.000 A 
ATOM      8  C   UNL     1      -7.916  14.617  21.408  0.00  0.00    +0.000 A 
ATOM      9  O   UNL     1      -7.525  14.450  20.105  0.00  0.00    +0.000 OA
ATOM     10  C   UNL     1      -6.263  13.942  20.151  0.00  0.00    +0.000 A 
ATOM     11  C   UNL     1      -5.765  13.967  21.423  0.00  0.00    +0.000 A 
ATOM     12  C   UNL     1      -5.644  13.270  19.061  0.00  0.00    +0.000 C 
ATOM     13  O   UNL     1      -6.112  13.167  17.935  0.00  0.00    +0.000 OA
ATOM     14  C   UNL     1      -4.358  12.596  19.456  0.00  0.00    +0.000 A 
ATOM     15  C   UNL     1      -3.741  11.857  18.444  0.00  0.00    +0.000 A 
ATOM     16  C   UNL     1      -2.501  11.231  18.621  0.00  0.00    +0.000 A 
ATOM     17  C   UNL     1      -1.916  10.516  17.560  0.00  0.00    +0.000 A 
ATOM     18  C   UNL     1      -0.692   9.892  17.690  0.00  0.00    +0.000 A 
ATOM     19  C   UNL     1      -0.015   9.994  18.891  0.00  0.00    +0.000 A 
ATOM     20  C   UNL     1      -0.515  10.783  19.937  0.00  0.00    +0.000 A 
ATOM     21  C   UNL     1      -1.826  11.365  19.856  0.00  0.00    +0.000 A 
ATOM     22  C   UNL     1      -2.488  12.096  20.905  0.00  0.00    +0.000 A 
ATOM     23  C   UNL     1      -3.774  12.703  20.748  0.00  0.00    +0.000 A 
ENDROOT
BRANCH  17  24
ATOM     24  O   UNL     1      -2.518  10.392  16.335  0.00  0.00    +0.000 OA
ATOM     25  H   UNL     1      -2.096  11.037  15.744  0.00  0.00    +0.000 HD
ENDBRANCH  17  24
BRANCH  20  26
ATOM     26  O   UNL     1       0.242  11.039  21.059  0.00  0.00    +0.000 OA
BRANCH  26  27
ATOM     27  S   UNL     1       0.243  10.005  22.347  0.00  0.00    +0.000 S 
ATOM     28  O   UNL     1       1.659   9.702  22.529  0.00  0.00    +0.000 OA
ATOM     29  O   UNL     1      -0.355  10.785  23.429  0.00  0.00    +0.000 OA
ATOM     30  O   UNL     1      -0.546   8.847  21.920  0.00  0.00    +0.000 OA
ENDBRANCH  26  27
ENDBRANCH  20  26
TORSDOF 3
ENDMDL
MODEL 9
REMARK VINA RESULT:      -6.7      2.618      4.393
REMARK  Name = 
REMARK  4 active torsions:
REMARK  status: ('A' for Active; 'I' for Inactive)
REMARK    1  A    between atoms: C_1  and  C_2
REMARK    2  A    between atoms: C_17  and  O_18
REMARK    3  A    between atoms: C_21  and  O_22
REMARK    4  A    between atoms: O_22  and  S_23
REMARK                            x       y       z     vdW  Elec       q    Type
REMARK                         _______ _______ _______ _____ _____    ______ ____
ROOT
ATOM      1  C   UNL     1      -0.068  13.216  19.607  0.00  0.00    +0.000 C 
ATOM      2  C   UNL     1      -0.892  11.917  19.825  0.00  0.00    +0.000 C 
ATOM      3  C   UNL     1      -1.481  11.478  18.427  0.00  0.00    +0.000 C 
ATOM      4  C   UNL     1      -1.177  10.026  17.986  0.00  0.00    +0.000 C 
ATOM      5  C   UNL     1       0.316   9.705  18.137  0.00  0.00    +0.000 C 
ATOM      6  O   UNL     1       1.043   9.285  17.249  0.00  0.00    +0.000 OA
ATOM      7  C   UNL     1       0.725   9.909  19.500  0.00  0.00    +0.000 A 
ATOM      8  C   UNL     1       1.520   9.150  20.327  0.00  0.00    +0.000 A 
ATOM      9  O   UNL     1       1.205   9.440  21.629  0.00  0.00    +0.000 OA
ATOM     10  C   UNL     1       0.231  10.390  21.581  0.00  0.00    +0.000 A 
ATOM     11  C   UNL     1       0.058  10.857  20.309  0.00  0.00    +0.000 A 
ATOM     12  C   UNL     1      -0.637  10.685  22.668  0.00  0.00    +0.000 C 
ATOM     13  O   UNL     1      -0.545  10.215  23.794  0.00  0.00    +0.000 OA
ATOM     14  C   UNL     1      -1.770  11.590  22.269  0.00  0.00    +0.000 A 
ATOM     15  C   UNL     1      -2.699  11.856  23.279  0.00  0.00    +0.000 A 
ATOM     16  C   UNL     1      -3.771  12.739  23.099  0.00  0.00    +0.000 A 
ATOM     17  C   UNL     1      -4.664  12.985  24.157  0.00  0.00    +0.000 A 
ATOM     18  C   UNL     1      -5.729  13.854  24.024  0.00  0.00    +0.000 A 
ATOM     19  C   UNL     1      -5.904  14.515  22.822  0.00  0.00    +0.000 A 
ATOM     20  C   UNL     1      -4.977  14.376  21.780  0.00  0.00    +0.000 A 
ATOM     21  C   UNL     1      -3.917  13.411  21.863  0.00  0.00    +0.000 A 
ATOM     22  C   UNL     1      -2.977  13.101  20.817  0.00  0.00    +0.000 A 
ATOM     23  C   UNL     1      -1.903  12.168  20.977  0.00  0.00    +0.000 A 
ENDROOT
BRANCH  17  24
ATOM     24  O   UNL     1      -4.540  12.384  25.381  0.00  0.00    +0.000 OA
ATOM     25  H   UNL     1      -5.004  11.533  25.329  0.00  0.00    +0.000 HD
ENDBRANCH  17  24
BRANCH  20  26
ATOM     26  O   UNL     1      -5.044  15.173  20.658  0.00  0.00    +0.000 OA
BRANCH  26  27
ATOM     27  S   UNL     1      -6.299  15.046  19.589  0.00  0.00    +0.000 S 
ATOM     28  O   UNL     1      -6.127  13.706  19.034  0.00  0.00    +0.000 OA
ATOM     29  O   UNL     1      -7.490  15.210  20.420  0.00  0.00    +0.000 OA
ATOM     30  O   UNL     1      -6.086  16.111  18.607  0.00  0.00    +0.000 OA
ENDBRANCH  26  27
ENDBRANCH  20  26
TORSDOF 3
ENDMDL
