MODEL 1
REMARK VINA RESULT:      -8.1      0.000      0.000
REMARK  Name = 
REMARK  7 active torsions:
REMARK  status: ('A' for Active; 'I' for Inactive)
REMARK    1  A    between atoms: C_2  and  C_4
REMARK    2  A    between atoms: C_4  and  C_5
REMARK    3  A    between atoms: C_5  and  C_6
REMARK    4  A    between atoms: C_6  and  O_7
REMARK    5  A    between atoms: O_7  and  C_8
REMARK    6  A    between atoms: C_12  and  C_13
REMARK    7  A    between atoms: C_14  and  C_15
REMARK                            x       y       z     vdW  Elec       q    Type
REMARK                         _______ _______ _______ _____ _____    ______ ____
ROOT
ATOM      1  C   UNL     1       4.398   4.000  16.948  0.00  0.00    +0.000 A 
ATOM      2  C   UNL     1       5.565   4.197  16.210  0.00  0.00    +0.000 A 
ATOM      3  C   UNL     1       6.014   5.491  15.945  0.00  0.00    +0.000 A 
ATOM      4  C   UNL     1       5.294   6.592  16.429  0.00  0.00    +0.000 A 
ATOM      5  C   UNL     1       4.117   6.421  17.165  0.00  0.00    +0.000 A 
ATOM      6  C   UNL     1       3.676   5.105  17.405  0.00  0.00    +0.000 A 
ENDROOT
BRANCH   5   7
ATOM      7  C   UNL     1       3.304   7.521  17.748  0.00  0.00    +0.000 C 
ATOM      8  C   UNL     1       2.461   7.381  18.786  0.00  0.00    +0.000 C 
BRANCH   8   9
ATOM      9  C   UNL     1       1.629   8.415  19.431  0.00  0.00    +0.000 A 
ATOM     10  C   UNL     1       1.273   9.488  18.624  0.00  0.00    +0.000 A 
ATOM     11  C   UNL     1       0.624  10.569  19.194  0.00  0.00    +0.000 A 
ATOM     12  C   UNL     1       0.216  10.521  20.530  0.00  0.00    +0.000 A 
ATOM     13  C   UNL     1      -0.555  11.554  21.125  0.00  0.00    +0.000 A 
ATOM     14 CL   UNL     1      -0.983  13.000  20.269  0.00  0.00    +0.000 Cl
ATOM     15  C   UNL     1      -1.046  11.416  22.419  0.00  0.00    +0.000 A 
ATOM     16  C   UNL     1      -0.735  10.277  23.144  0.00  0.00    +0.000 A 
ATOM     17  C   UNL     1       0.076   9.280  22.577  0.00  0.00    +0.000 A 
ATOM     18  C   UNL     1       0.551   9.366  21.268  0.00  0.00    +0.000 A 
ATOM     19  N   UNL     1       1.282   8.340  20.731  0.00  0.00    +0.000 NA
ENDBRANCH   8   9
ENDBRANCH   5   7
BRANCH   1  20
ATOM     20  O   UNL     1       4.077   2.686  17.162  0.00  0.00    +0.000 OA
BRANCH  20  21
ATOM     21  C   UNL     1       2.845   2.384  17.820  0.00  0.00    +0.000 C 
BRANCH  21  22
ATOM     22  C   UNL     1       2.997   2.493  19.338  0.00  0.00    +0.000 C 
BRANCH  22  23
ATOM     23  C   UNL     1       1.657   2.405  20.069  0.00  0.00    +0.000 C 
BRANCH  23  25
ATOM     24  O   UNL     1       2.311   4.159  21.517  0.00  0.00    +0.000 OA
ATOM     25  C   UNL     1       1.759   3.014  21.447  0.00  0.00    +0.000 C 
ATOM     26  O   UNL     1       1.245   2.426  22.429  0.00  0.00    +0.000 OA
ENDBRANCH  23  25
ENDBRANCH  22  23
ENDBRANCH  21  22
ENDBRANCH  20  21
ENDBRANCH   1  20
TORSDOF 7
ENDMDL
MODEL 2
REMARK VINA RESULT:      -8.0      1.282      1.544
REMARK  Name = 
REMARK  7 active torsions:
REMARK  status: ('A' for Active; 'I' for Inactive)
REMARK    1  A    between atoms: C_2  and  C_4
REMARK    2  A    between atoms: C_4  and  C_5
REMARK    3  A    between atoms: C_5  and  C_6
REMARK    4  A    between atoms: C_6  and  O_7
REMARK    5  A    between atoms: O_7  and  C_8
REMARK    6  A    between atoms: C_12  and  C_13
REMARK    7  A    between atoms: C_14  and  C_15
REMARK                            x       y       z     vdW  Elec       q    Type
REMARK                         _______ _______ _______ _____ _____    ______ ____
ROOT
ATOM      1  C   UNL     1       5.095   4.377  18.043  0.00  0.00    +0.000 A 
ATOM      2  C   UNL     1       5.838   4.413  16.862  0.00  0.00    +0.000 A 
ATOM      3  C   UNL     1       5.723   5.502  15.999  0.00  0.00    +0.000 A 
ATOM      4  C   UNL     1       4.867   6.563  16.323  0.00  0.00    +0.000 A 
ATOM      5  C   UNL     1       4.105   6.547  17.497  0.00  0.00    +0.000 A 
ATOM      6  C   UNL     1       4.227   5.428  18.344  0.00  0.00    +0.000 A 
ENDROOT
BRANCH   5   7
ATOM      7  C   UNL     1       3.198   7.636  17.944  0.00  0.00    +0.000 C 
ATOM      8  C   UNL     1       2.418   7.580  19.038  0.00  0.00    +0.000 C 
BRANCH   8   9
ATOM      9  C   UNL     1       1.501   8.612  19.557  0.00  0.00    +0.000 A 
ATOM     10  C   UNL     1       1.077   9.559  18.633  0.00  0.00    +0.000 A 
ATOM     11  C   UNL     1       0.340  10.644  19.074  0.00  0.00    +0.000 A 
ATOM     12  C   UNL     1      -0.084  10.714  20.405  0.00  0.00    +0.000 A 
ATOM     13  C   UNL     1      -0.939  11.745  20.875  0.00  0.00    +0.000 A 
ATOM     14 CL   UNL     1      -1.462  13.049  19.860  0.00  0.00    +0.000 Cl
ATOM     15  C   UNL     1      -1.437  11.714  22.174  0.00  0.00    +0.000 A 
ATOM     16  C   UNL     1      -1.052  10.690  23.024  0.00  0.00    +0.000 A 
ATOM     17  C   UNL     1      -0.160   9.701  22.577  0.00  0.00    +0.000 A 
ATOM     18  C   UNL     1       0.327   9.677  21.270  0.00  0.00    +0.000 A 
ATOM     19  N   UNL     1       1.141   8.657  20.855  0.00  0.00    +0.000 NA
ENDBRANCH   8   9
ENDBRANCH   5   7
BRANCH   1  20
ATOM     20  O   UNL     1       5.315   3.269  18.817  0.00  0.00    +0.000 OA
BRANCH  20  21
ATOM     21  C   UNL     1       4.190   2.624  19.417  0.00  0.00    +0.000 C 
BRANCH  21  22
ATOM     22  C   UNL     1       3.434   1.780  18.390  0.00  0.00    +0.000 C 
BRANCH  22  23
ATOM     23  C   UNL     1       2.366   2.583  17.645  0.00  0.00    +0.000 C 
BRANCH  23  25
ATOM     24  O   UNL     1       0.270   1.970  18.559  0.00  0.00    +0.000 OA
ATOM     25  C   UNL     1       1.183   2.858  18.543  0.00  0.00    +0.000 C 
ATOM     26  O   UNL     1       1.177   3.877  19.274  0.00  0.00    +0.000 OA
ENDBRANCH  23  25
ENDBRANCH  22  23
ENDBRANCH  21  22
ENDBRANCH  20  21
ENDBRANCH   1  20
TORSDOF 7
ENDMDL
MODEL 3
REMARK VINA RESULT:      -7.8      1.914      3.866
REMARK  Name = 
REMARK  7 active torsions:
REMARK  status: ('A' for Active; 'I' for Inactive)
REMARK    1  A    between atoms: C_2  and  C_4
REMARK    2  A    between atoms: C_4  and  C_5
REMARK    3  A    between atoms: C_5  and  C_6
REMARK    4  A    between atoms: C_6  and  O_7
REMARK    5  A    between atoms: O_7  and  C_8
REMARK    6  A    between atoms: C_12  and  C_13
REMARK    7  A    between atoms: C_14  and  C_15
REMARK                            x       y       z     vdW  Elec       q    Type
REMARK                         _______ _______ _______ _____ _____    ______ ____
ROOT
ATOM      1  C   UNL     1       3.553   3.404  19.115  0.00  0.00    +0.000 A 
ATOM      2  C   UNL     1       3.582   2.479  20.159  0.00  0.00    +0.000 A 
ATOM      3  C   UNL     1       2.860   2.722  21.327  0.00  0.00    +0.000 A 
ATOM      4  C   UNL     1       2.100   3.894  21.447  0.00  0.00    +0.000 A 
ATOM      5  C   UNL     1       2.061   4.841  20.418  0.00  0.00    +0.000 A 
ATOM      6  C   UNL     1       2.812   4.580  19.255  0.00  0.00    +0.000 A 
ENDROOT
BRANCH   5   7
ATOM      7  C   UNL     1       1.261   6.093  20.437  0.00  0.00    +0.000 C 
ATOM      8  C   UNL     1       1.728   7.293  20.825  0.00  0.00    +0.000 C 
BRANCH   8   9
ATOM      9  C   UNL     1       1.010   8.581  20.865  0.00  0.00    +0.000 A 
ATOM     10  C   UNL     1       1.060   9.334  19.698  0.00  0.00    +0.000 A 
ATOM     11  C   UNL     1       0.542  10.617  19.705  0.00  0.00    +0.000 A 
ATOM     12  C   UNL     1      -0.139  11.096  20.828  0.00  0.00    +0.000 A 
ATOM     13  C   UNL     1      -0.788  12.358  20.839  0.00  0.00    +0.000 A 
ATOM     14 CL   UNL     1      -0.720  13.447  19.492  0.00  0.00    +0.000 Cl
ATOM     15  C   UNL     1      -1.558  12.749  21.930  0.00  0.00    +0.000 A 
ATOM     16  C   UNL     1      -1.648  11.912  23.031  0.00  0.00    +0.000 A 
ATOM     17  C   UNL     1      -0.958  10.688  23.044  0.00  0.00    +0.000 A 
ATOM     18  C   UNL     1      -0.211  10.246  21.952  0.00  0.00    +0.000 A 
ATOM     19  N   UNL     1       0.389   9.016  21.979  0.00  0.00    +0.000 NA
ENDBRANCH   8   9
ENDBRANCH   5   7
BRANCH   1  20
ATOM     20  O   UNL     1       4.281   3.039  18.013  0.00  0.00    +0.000 OA
BRANCH  20  21
ATOM     21  C   UNL     1       4.205   3.859  16.846  0.00  0.00    +0.000 C 
BRANCH  21  22
ATOM     22  C   UNL     1       5.597   4.101  16.259  0.00  0.00    +0.000 C 
BRANCH  22  23
ATOM     23  C   UNL     1       6.329   5.256  16.944  0.00  0.00    +0.000 C 
BRANCH  23  25
ATOM     24  O   UNL     1       6.875   4.886  19.217  0.00  0.00    +0.000 OA
ATOM     25  C   UNL     1       7.261   4.737  18.013  0.00  0.00    +0.000 C 
ATOM     26  O   UNL     1       8.309   4.130  17.686  0.00  0.00    +0.000 OA
ENDBRANCH  23  25
ENDBRANCH  22  23
ENDBRANCH  21  22
ENDBRANCH  20  21
ENDBRANCH   1  20
TORSDOF 7
ENDMDL
MODEL 4
REMARK VINA RESULT:      -7.8      6.731      8.864
REMARK  Name = 
REMARK  7 active torsions:
REMARK  status: ('A' for Active; 'I' for Inactive)
REMARK    1  A    between atoms: C_2  and  C_4
REMARK    2  A    between atoms: C_4  and  C_5
REMARK    3  A    between atoms: C_5  and  C_6
REMARK    4  A    between atoms: C_6  and  O_7
REMARK    5  A    between atoms: O_7  and  C_8
REMARK    6  A    between atoms: C_12  and  C_13
REMARK    7  A    between atoms: C_14  and  C_15
REMARK                            x       y       z     vdW  Elec       q    Type
REMARK                         _______ _______ _______ _____ _____    ______ ____
ROOT
ATOM      1  C   UNL     1       6.190   5.947  16.930  0.00  0.00    +0.000 A 
ATOM      2  C   UNL     1       6.499   4.981  17.887  0.00  0.00    +0.000 A 
ATOM      3  C   UNL     1       7.442   5.255  18.877  0.00  0.00    +0.000 A 
ATOM      4  C   UNL     1       8.074   6.505  18.912  0.00  0.00    +0.000 A 
ATOM      5  C   UNL     1       7.788   7.489  17.958  0.00  0.00    +0.000 A 
ATOM      6  C   UNL     1       6.843   7.181  16.960  0.00  0.00    +0.000 A 
ENDROOT
BRANCH   5   7
ATOM      7  C   UNL     1       8.378   8.853  17.932  0.00  0.00    +0.000 C 
ATOM      8  C   UNL     1       8.864   9.497  19.008  0.00  0.00    +0.000 C 
BRANCH   8   9
ATOM      9  C   UNL     1       9.472  10.839  19.069  0.00  0.00    +0.000 A 
ATOM     10  C   UNL     1       9.644  11.363  20.344  0.00  0.00    +0.000 A 
ATOM     11  C   UNL     1      10.066  12.674  20.479  0.00  0.00    +0.000 A 
ATOM     12  C   UNL     1      10.440  13.414  19.353  0.00  0.00    +0.000 A 
ATOM     13  C   UNL     1      10.990  14.719  19.451  0.00  0.00    +0.000 A 
ATOM     14 CL   UNL     1      11.164  15.538  20.969  0.00  0.00    +0.000 Cl
ATOM     15  C   UNL     1      11.463  15.375  18.319  0.00  0.00    +0.000 A 
ATOM     16  C   UNL     1      11.350  14.760  17.082  0.00  0.00    +0.000 A 
ATOM     17  C   UNL     1      10.753  13.493  16.977  0.00  0.00    +0.000 A 
ATOM     18  C   UNL     1      10.306  12.789  18.094  0.00  0.00    +0.000 A 
ATOM     19  N   UNL     1       9.793  11.527  17.955  0.00  0.00    +0.000 NA
ENDBRANCH   8   9
ENDBRANCH   5   7
BRANCH   1  20
ATOM     20  O   UNL     1       5.231   5.567  16.029  0.00  0.00    +0.000 OA
BRANCH  20  21
ATOM     21  C   UNL     1       5.433   4.363  15.287  0.00  0.00    +0.000 C 
BRANCH  21  22
ATOM     22  C   UNL     1       5.495   4.650  13.787  0.00  0.00    +0.000 C 
BRANCH  22  23
ATOM     23  C   UNL     1       6.306   3.603  13.022  0.00  0.00    +0.000 C 
BRANCH  23  25
ATOM     24  O   UNL     1       4.353   3.477  11.690  0.00  0.00    +0.000 OA
ATOM     25  C   UNL     1       5.440   2.895  12.007  0.00  0.00    +0.000 C 
ATOM     26  O   UNL     1       5.846   1.835  11.472  0.00  0.00    +0.000 OA
ENDBRANCH  23  25
ENDBRANCH  22  23
ENDBRANCH  21  22
ENDBRANCH  20  21
ENDBRANCH   1  20
TORSDOF 7
ENDMDL
MODEL 5
REMARK VINA RESULT:      -7.8      1.068      1.210
REMARK  Name = 
REMARK  7 active torsions:
REMARK  status: ('A' for Active; 'I' for Inactive)
REMARK    1  A    between atoms: C_2  and  C_4
REMARK    2  A    between atoms: C_4  and  C_5
REMARK    3  A    between atoms: C_5  and  C_6
REMARK    4  A    between atoms: C_6  and  O_7
REMARK    5  A    between atoms: O_7  and  C_8
REMARK    6  A    between atoms: C_12  and  C_13
REMARK    7  A    between atoms: C_14  and  C_15
REMARK                            x       y       z     vdW  Elec       q    Type
REMARK                         _______ _______ _______ _____ _____    ______ ____
ROOT
ATOM      1  C   UNL     1       4.026   4.106  17.488  0.00  0.00    +0.000 A 
ATOM      2  C   UNL     1       5.284   4.288  16.912  0.00  0.00    +0.000 A 
ATOM      3  C   UNL     1       5.758   5.575  16.663  0.00  0.00    +0.000 A 
ATOM      4  C   UNL     1       4.972   6.686  17.000  0.00  0.00    +0.000 A 
ATOM      5  C   UNL     1       3.704   6.530  17.571  0.00  0.00    +0.000 A 
ATOM      6  C   UNL     1       3.241   5.219  17.797  0.00  0.00    +0.000 A 
ENDROOT
BRANCH   5   7
ATOM      7  C   UNL     1       2.813   7.642  17.993  0.00  0.00    +0.000 C 
ATOM      8  C   UNL     1       2.208   7.724  19.191  0.00  0.00    +0.000 C 
BRANCH   8   9
ATOM      9  C   UNL     1       1.321   8.790  19.693  0.00  0.00    +0.000 A 
ATOM     10  C   UNL     1       0.974   9.768  18.769  0.00  0.00    +0.000 A 
ATOM     11  C   UNL     1       0.271  10.879  19.201  0.00  0.00    +0.000 A 
ATOM     12  C   UNL     1      -0.196  10.950  20.517  0.00  0.00    +0.000 A 
ATOM     13  C   UNL     1      -1.020  12.013  20.972  0.00  0.00    +0.000 A 
ATOM     14 CL   UNL     1      -1.446  13.354  19.959  0.00  0.00    +0.000 Cl
ATOM     15  C   UNL     1      -1.565  11.988  22.251  0.00  0.00    +0.000 A 
ATOM     16  C   UNL     1      -1.259  10.935  23.099  0.00  0.00    +0.000 A 
ATOM     17  C   UNL     1      -0.397   9.912  22.669  0.00  0.00    +0.000 A 
ATOM     18  C   UNL     1       0.135   9.884  21.379  0.00  0.00    +0.000 A 
ATOM     19  N   UNL     1       0.916   8.833  20.978  0.00  0.00    +0.000 NA
ENDBRANCH   8   9
ENDBRANCH   5   7
BRANCH   1  20
ATOM     20  O   UNL     1       3.686   2.797  17.705  0.00  0.00    +0.000 OA
BRANCH  20  21
ATOM     21  C   UNL     1       4.061   2.193  18.944  0.00  0.00    +0.000 C 
BRANCH  21  22
ATOM     22  C   UNL     1       3.439   2.940  20.125  0.00  0.00    +0.000 C 
BRANCH  22  23
ATOM     23  C   UNL     1       2.100   2.341  20.557  0.00  0.00    +0.000 C 
BRANCH  23  25
ATOM     24  O   UNL     1       0.347   2.359  18.966  0.00  0.00    +0.000 OA
ATOM     25  C   UNL     1       0.954   3.034  19.859  0.00  0.00    +0.000 C 
ATOM     26  O   UNL     1       0.604   4.182  20.224  0.00  0.00    +0.000 OA
ENDBRANCH  23  25
ENDBRANCH  22  23
ENDBRANCH  21  22
ENDBRANCH  20  21
ENDBRANCH   1  20
TORSDOF 7
ENDMDL
MODEL 6
REMARK VINA RESULT:      -7.8      2.061      4.347
REMARK  Name = 
REMARK  7 active torsions:
REMARK  status: ('A' for Active; 'I' for Inactive)
REMARK    1  A    between atoms: C_2  and  C_4
REMARK    2  A    between atoms: C_4  and  C_5
REMARK    3  A    between atoms: C_5  and  C_6
REMARK    4  A    between atoms: C_6  and  O_7
REMARK    5  A    between atoms: O_7  and  C_8
REMARK    6  A    between atoms: C_12  and  C_13
REMARK    7  A    between atoms: C_14  and  C_15
REMARK                            x       y       z     vdW  Elec       q    Type
REMARK                         _______ _______ _______ _____ _____    ______ ____
ROOT
ATOM      1  C   UNL     1       4.304   4.142  19.448  0.00  0.00    +0.000 A 
ATOM      2  C   UNL     1       4.019   2.874  19.956  0.00  0.00    +0.000 A 
ATOM      3  C   UNL     1       2.891   2.680  20.754  0.00  0.00    +0.000 A 
ATOM      4  C   UNL     1       2.042   3.758  21.037  0.00  0.00    +0.000 A 
ATOM      5  C   UNL     1       2.311   5.041  20.547  0.00  0.00    +0.000 A 
ATOM      6  C   UNL     1       3.465   5.214  19.758  0.00  0.00    +0.000 A 
ENDROOT
BRANCH   5   7
ATOM      7  C   UNL     1       1.456   6.237  20.764  0.00  0.00    +0.000 C 
ATOM      8  C   UNL     1       1.802   7.494  20.433  0.00  0.00    +0.000 C 
BRANCH   8   9
ATOM      9  C   UNL     1       1.015   8.730  20.602  0.00  0.00    +0.000 A 
ATOM     10  C   UNL     1       0.948   9.557  19.487  0.00  0.00    +0.000 A 
ATOM     11  C   UNL     1       0.359  10.803  19.611  0.00  0.00    +0.000 A 
ATOM     12  C   UNL     1      -0.276  11.167  20.803  0.00  0.00    +0.000 A 
ATOM     13  C   UNL     1      -0.995  12.383  20.938  0.00  0.00    +0.000 A 
ATOM     14 CL   UNL     1      -1.074  13.558  19.665  0.00  0.00    +0.000 Cl
ATOM     15  C   UNL     1      -1.715  12.655  22.096  0.00  0.00    +0.000 A 
ATOM     16  C   UNL     1      -1.687  11.746  23.141  0.00  0.00    +0.000 A 
ATOM     17  C   UNL     1      -0.929  10.569  23.031  0.00  0.00    +0.000 A 
ATOM     18  C   UNL     1      -0.228  10.244  21.869  0.00  0.00    +0.000 A 
ATOM     19  N   UNL     1       0.442   9.053  21.778  0.00  0.00    +0.000 NA
ENDBRANCH   8   9
ENDBRANCH   5   7
BRANCH   1  20
ATOM     20  O   UNL     1       5.423   4.198  18.660  0.00  0.00    +0.000 OA
BRANCH  20  21
ATOM     21  C   UNL     1       6.336   5.280  18.850  0.00  0.00    +0.000 C 
BRANCH  21  22
ATOM     22  C   UNL     1       6.563   6.038  17.541  0.00  0.00    +0.000 C 
BRANCH  22  23
ATOM     23  C   UNL     1       5.768   5.447  16.376  0.00  0.00    +0.000 C 
BRANCH  23  25
ATOM     24  O   UNL     1       6.327   3.764  14.808  0.00  0.00    +0.000 OA
ATOM     25  C   UNL     1       6.697   4.860  15.340  0.00  0.00    +0.000 C 
ATOM     26  O   UNL     1       7.724   5.492  14.994  0.00  0.00    +0.000 OA
ENDBRANCH  23  25
ENDBRANCH  22  23
ENDBRANCH  21  22
ENDBRANCH  20  21
ENDBRANCH   1  20
TORSDOF 7
ENDMDL
MODEL 7
REMARK VINA RESULT:      -7.8      6.222      7.776
REMARK  Name = 
REMARK  7 active torsions:
REMARK  status: ('A' for Active; 'I' for Inactive)
REMARK    1  A    between atoms: C_2  and  C_4
REMARK    2  A    between atoms: C_4  and  C_5
REMARK    3  A    between atoms: C_5  and  C_6
REMARK    4  A    between atoms: C_6  and  O_7
REMARK    5  A    between atoms: O_7  and  C_8
REMARK    6  A    between atoms: C_12  and  C_13
REMARK    7  A    between atoms: C_14  and  C_15
REMARK                            x       y       z     vdW  Elec       q    Type
REMARK                         _______ _______ _______ _____ _____    ______ ____
ROOT
ATOM      1  C   UNL     1       5.294   5.953  17.322  0.00  0.00    +0.000 A 
ATOM      2  C   UNL     1       5.975   4.779  17.644  0.00  0.00    +0.000 A 
ATOM      3  C   UNL     1       7.321   4.830  18.006  0.00  0.00    +0.000 A 
ATOM      4  C   UNL     1       7.985   6.064  18.052  0.00  0.00    +0.000 A 
ATOM      5  C   UNL     1       7.326   7.254  17.725  0.00  0.00    +0.000 A 
ATOM      6  C   UNL     1       5.971   7.173  17.347  0.00  0.00    +0.000 A 
ENDROOT
BRANCH   5   7
ATOM      7  C   UNL     1       7.932   8.611  17.776  0.00  0.00    +0.000 C 
ATOM      8  C   UNL     1       8.699   9.067  18.782  0.00  0.00    +0.000 C 
BRANCH   8   9
ATOM      9  C   UNL     1       9.344  10.388  18.908  0.00  0.00    +0.000 A 
ATOM     10  C   UNL     1       9.383  10.917  20.193  0.00  0.00    +0.000 A 
ATOM     11  C   UNL     1       9.834  12.213  20.370  0.00  0.00    +0.000 A 
ATOM     12  C   UNL     1      10.366  12.928  19.293  0.00  0.00    +0.000 A 
ATOM     13  C   UNL     1      10.948  14.214  19.449  0.00  0.00    +0.000 A 
ATOM     14 CL   UNL     1      10.972  15.040  20.973  0.00  0.00    +0.000 Cl
ATOM     15  C   UNL     1      11.575  14.842  18.378  0.00  0.00    +0.000 A 
ATOM     16  C   UNL     1      11.587  14.221  17.140  0.00  0.00    +0.000 A 
ATOM     17  C   UNL     1      10.961  12.975  16.970  0.00  0.00    +0.000 A 
ATOM     18  C   UNL     1      10.358  12.297  18.030  0.00  0.00    +0.000 A 
ATOM     19  N   UNL     1       9.819  11.053  17.837  0.00  0.00    +0.000 NA
ENDBRANCH   8   9
ENDBRANCH   5   7
BRANCH   1  20
ATOM     20  O   UNL     1       3.972   5.773  17.009  0.00  0.00    +0.000 OA
BRANCH  20  21
ATOM     21  C   UNL     1       2.985   6.297  17.900  0.00  0.00    +0.000 C 
BRANCH  21  22
ATOM     22  C   UNL     1       3.096   5.647  19.280  0.00  0.00    +0.000 C 
BRANCH  22  23
ATOM     23  C   UNL     1       1.941   4.689  19.571  0.00  0.00    +0.000 C 
BRANCH  23  25
ATOM     24  O   UNL     1       1.039   3.423  17.784  0.00  0.00    +0.000 OA
ATOM     25  C   UNL     1       1.983   3.503  18.636  0.00  0.00    +0.000 C 
ATOM     26  O   UNL     1       2.954   2.710  18.678  0.00  0.00    +0.000 OA
ENDBRANCH  23  25
ENDBRANCH  22  23
ENDBRANCH  21  22
ENDBRANCH  20  21
ENDBRANCH   1  20
TORSDOF 7
ENDMDL
MODEL 8
REMARK VINA RESULT:      -7.6      1.867      2.494
REMARK  Name = 
REMARK  7 active torsions:
REMARK  status: ('A' for Active; 'I' for Inactive)
REMARK    1  A    between atoms: C_2  and  C_4
REMARK    2  A    between atoms: C_4  and  C_5
REMARK    3  A    between atoms: C_5  and  C_6
REMARK    4  A    between atoms: C_6  and  O_7
REMARK    5  A    between atoms: O_7  and  C_8
REMARK    6  A    between atoms: C_12  and  C_13
REMARK    7  A    between atoms: C_14  and  C_15
REMARK                            x       y       z     vdW  Elec       q    Type
REMARK                         _______ _______ _______ _____ _____    ______ ____
ROOT
ATOM      1  C   UNL     1       3.700   4.162  17.610  0.00  0.00    +0.000 A 
ATOM      2  C   UNL     1       4.887   4.404  16.917  0.00  0.00    +0.000 A 
ATOM      3  C   UNL     1       5.271   5.712  16.627  0.00  0.00    +0.000 A 
ATOM      4  C   UNL     1       4.467   6.784  17.039  0.00  0.00    +0.000 A 
ATOM      5  C   UNL     1       3.269   6.567  17.728  0.00  0.00    +0.000 A 
ATOM      6  C   UNL     1       2.894   5.236  17.994  0.00  0.00    +0.000 A 
ENDROOT
BRANCH   5   7
ATOM      7  C   UNL     1       2.368   7.635  18.235  0.00  0.00    +0.000 C 
ATOM      8  C   UNL     1       2.454   8.933  17.896  0.00  0.00    +0.000 C 
BRANCH   8   9
ATOM      9  C   UNL     1       1.601  10.051  18.341  0.00  0.00    +0.000 A 
ATOM     10  C   UNL     1       0.341   9.696  18.808  0.00  0.00    +0.000 A 
ATOM     11  C   UNL     1      -0.571  10.694  19.101  0.00  0.00    +0.000 A 
ATOM     12  C   UNL     1      -0.186  12.037  19.055  0.00  0.00    +0.000 A 
ATOM     13  C   UNL     1      -1.050  13.088  19.460  0.00  0.00    +0.000 A 
ATOM     14 CL   UNL     1      -2.683  12.802  19.964  0.00  0.00    +0.000 Cl
ATOM     15  C   UNL     1      -0.591  14.400  19.516  0.00  0.00    +0.000 A 
ATOM     16  C   UNL     1       0.709  14.681  19.126  0.00  0.00    +0.000 A 
ATOM     17  C   UNL     1       1.547  13.650  18.670  0.00  0.00    +0.000 A 
ATOM     18  C   UNL     1       1.134  12.318  18.640  0.00  0.00    +0.000 A 
ATOM     19  N   UNL     1       2.004  11.334  18.254  0.00  0.00    +0.000 NA
ENDBRANCH   8   9
ENDBRANCH   5   7
BRANCH   1  20
ATOM     20  O   UNL     1       3.447   2.838  17.855  0.00  0.00    +0.000 OA
BRANCH  20  21
ATOM     21  C   UNL     1       3.028   2.458  19.167  0.00  0.00    +0.000 C 
BRANCH  21  22
ATOM     22  C   UNL     1       1.507   2.316  19.234  0.00  0.00    +0.000 C 
BRANCH  22  23
ATOM     23  C   UNL     1       0.905   3.023  20.449  0.00  0.00    +0.000 C 
BRANCH  23  25
ATOM     24  O   UNL     1       2.297   4.768  21.237  0.00  0.00    +0.000 OA
ATOM     25  C   UNL     1       1.994   3.537  21.360  0.00  0.00    +0.000 C 
ATOM     26  O   UNL     1       2.490   2.781  22.230  0.00  0.00    +0.000 OA
ENDBRANCH  23  25
ENDBRANCH  22  23
ENDBRANCH  21  22
ENDBRANCH  20  21
ENDBRANCH   1  20
TORSDOF 7
ENDMDL
MODEL 9
REMARK VINA RESULT:      -7.6      2.190      2.795
REMARK  Name = 
REMARK  7 active torsions:
REMARK  status: ('A' for Active; 'I' for Inactive)
REMARK    1  A    between atoms: C_2  and  C_4
REMARK    2  A    between atoms: C_4  and  C_5
REMARK    3  A    between atoms: C_5  and  C_6
REMARK    4  A    between atoms: C_6  and  O_7
REMARK    5  A    between atoms: O_7  and  C_8
REMARK    6  A    between atoms: C_12  and  C_13
REMARK    7  A    between atoms: C_14  and  C_15
REMARK                            x       y       z     vdW  Elec       q    Type
REMARK                         _______ _______ _______ _____ _____    ______ ____
ROOT
ATOM      1  C   UNL     1       5.008   4.774  18.347  0.00  0.00    +0.000 A 
ATOM      2  C   UNL     1       5.868   5.124  17.305  0.00  0.00    +0.000 A 
ATOM      3  C   UNL     1       5.609   6.260  16.538  0.00  0.00    +0.000 A 
ATOM      4  C   UNL     1       4.488   7.052  16.820  0.00  0.00    +0.000 A 
ATOM      5  C   UNL     1       3.605   6.717  17.853  0.00  0.00    +0.000 A 
ATOM      6  C   UNL     1       3.881   5.556  18.603  0.00  0.00    +0.000 A 
ENDROOT
BRANCH   5   7
ATOM      7  C   UNL     1       2.412   7.509  18.250  0.00  0.00    +0.000 C 
ATOM      8  C   UNL     1       2.109   8.728  17.770  0.00  0.00    +0.000 C 
BRANCH   8   9
ATOM      9  C   UNL     1       0.947   9.575  18.100  0.00  0.00    +0.000 A 
ATOM     10  C   UNL     1       1.179  10.575  19.037  0.00  0.00    +0.000 A 
ATOM     11  C   UNL     1       0.108  11.311  19.510  0.00  0.00    +0.000 A 
ATOM     12  C   UNL     1      -1.165  11.140  18.956  0.00  0.00    +0.000 A 
ATOM     13  C   UNL     1      -2.268  11.953  19.327  0.00  0.00    +0.000 A 
ATOM     14 CL   UNL     1      -2.151  13.169  20.557  0.00  0.00    +0.000 Cl
ATOM     15  C   UNL     1      -3.487  11.835  18.667  0.00  0.00    +0.000 A 
ATOM     16  C   UNL     1      -3.631  10.881  17.673  0.00  0.00    +0.000 A 
ATOM     17  C   UNL     1      -2.557  10.036  17.346  0.00  0.00    +0.000 A 
ATOM     18  C   UNL     1      -1.309  10.154  17.957  0.00  0.00    +0.000 A 
ATOM     19  N   UNL     1      -0.268   9.356  17.561  0.00  0.00    +0.000 NA
ENDBRANCH   8   9
ENDBRANCH   5   7
BRANCH   1  20
ATOM     20  O   UNL     1       5.385   3.654  19.041  0.00  0.00    +0.000 OA
BRANCH  20  21
ATOM     21  C   UNL     1       4.383   2.924  19.749  0.00  0.00    +0.000 C 
BRANCH  21  22
ATOM     22  C   UNL     1       3.780   1.830  18.866  0.00  0.00    +0.000 C 
BRANCH  22  23
ATOM     23  C   UNL     1       2.545   2.308  18.102  0.00  0.00    +0.000 C 
BRANCH  23  25
ATOM     24  O   UNL     1       1.503   2.234  20.226  0.00  0.00    +0.000 OA
ATOM     25  C   UNL     1       1.311   2.211  18.968  0.00  0.00    +0.000 C 
ATOM     26  O   UNL     1       0.175   2.193  18.436  0.00  0.00    +0.000 OA
ENDBRANCH  23  25
ENDBRANCH  22  23
ENDBRANCH  21  22
ENDBRANCH  20  21
ENDBRANCH   1  20
TORSDOF 7
ENDMDL
