MODEL 1
REMARK VINA RESULT:      -6.8      0.000      0.000
REMARK  Name = 
REMARK  6 active torsions:
REMARK  status: ('A' for Active; 'I' for Inactive)
REMARK    1  A    between atoms: C_1  and  C_2
REMARK    2  A    between atoms: C_2  and  C_3
REMARK    3  A    between atoms: C_8  and  C_9
REMARK    4  A    between atoms: C_9  and  C_10
REMARK    5  A    between atoms: C_9  and  C_11
REMARK    6  A    between atoms: C_12  and  O_13
REMARK                            x       y       z     vdW  Elec       q    Type
REMARK                         _______ _______ _______ _____ _____    ______ ____
ROOT
ATOM      1  C   UNL     1       5.082   4.470  15.422  0.00  0.00    +0.000 C 
ATOM      2  C   UNL     1       5.427   5.930  15.904  0.00  0.00    +0.000 C 
ATOM      3  C   UNL     1       4.435   5.651  16.963  0.00  0.00    +0.000 A 
ATOM      4  C   UNL     1       3.469   6.286  17.701  0.00  0.00    +0.000 A 
ATOM      5  C   UNL     1       2.631   5.485  18.454  0.00  0.00    +0.000 A 
ATOM      6  C   UNL     1       2.832   4.086  18.549  0.00  0.00    +0.000 A 
ATOM      7  C   UNL     1       3.862   3.489  17.760  0.00  0.00    +0.000 A 
ATOM      8  C   UNL     1       4.629   4.275  16.900  0.00  0.00    +0.000 A 
ENDROOT
BRANCH   6   9
ATOM      9  C   UNL     1       1.902   3.290  19.465  0.00  0.00    +0.000 C 
ATOM     10  C   UNL     1       1.214   4.260  20.434  0.00  0.00    +0.000 C 
ATOM     11  C   UNL     1       0.824   2.461  18.739  0.00  0.00    +0.000 C 
ENDBRANCH   6   9
BRANCH   1  13
ATOM     12  C   UNL     1       6.112   3.733  13.200  0.00  0.00    +0.000 C 
ATOM     13  C   UNL     1       6.340   4.078  14.660  0.00  0.00    +0.000 C 
ENDBRANCH   1  13
BRANCH   7  14
ATOM     14  O   UNL     1       4.199   2.178  17.949  0.00  0.00    +0.000 OA
ATOM     15  H   UNL     1       3.473   1.740  18.431  0.00  0.00    +0.000 HD
ENDBRANCH   7  14
TORSDOF 3
ENDMDL
MODEL 2
REMARK VINA RESULT:      -6.6      1.734      2.077
REMARK  Name = 
REMARK  6 active torsions:
REMARK  status: ('A' for Active; 'I' for Inactive)
REMARK    1  A    between atoms: C_1  and  C_2
REMARK    2  A    between atoms: C_2  and  C_3
REMARK    3  A    between atoms: C_8  and  C_9
REMARK    4  A    between atoms: C_9  and  C_10
REMARK    5  A    between atoms: C_9  and  C_11
REMARK    6  A    between atoms: C_12  and  O_13
REMARK                            x       y       z     vdW  Elec       q    Type
REMARK                         _______ _______ _______ _____ _____    ______ ____
ROOT
ATOM      1  C   UNL     1       5.666   5.515  16.927  0.00  0.00    +0.000 C 
ATOM      2  C   UNL     1       4.994   6.911  17.209  0.00  0.00    +0.000 C 
ATOM      3  C   UNL     1       3.933   6.102  17.844  0.00  0.00    +0.000 A 
ATOM      4  C   UNL     1       2.573   6.092  18.019  0.00  0.00    +0.000 A 
ATOM      5  C   UNL     1       2.018   4.937  18.538  0.00  0.00    +0.000 A 
ATOM      6  C   UNL     1       2.827   3.858  18.974  0.00  0.00    +0.000 A 
ATOM      7  C   UNL     1       4.238   3.936  18.769  0.00  0.00    +0.000 A 
ATOM      8  C   UNL     1       4.792   5.046  18.129  0.00  0.00    +0.000 A 
ENDROOT
BRANCH   6   9
ATOM      9  C   UNL     1       2.131   2.652  19.604  0.00  0.00    +0.000 C 
ATOM     10  C   UNL     1       1.846   2.960  21.079  0.00  0.00    +0.000 C 
ATOM     11  C   UNL     1       0.817   2.227  18.919  0.00  0.00    +0.000 C 
ENDBRANCH   6   9
BRANCH   1  13
ATOM     12  C   UNL     1       7.538   7.149  17.529  0.00  0.00    +0.000 C 
ATOM     13  C   UNL     1       7.136   5.886  16.793  0.00  0.00    +0.000 C 
ENDBRANCH   1  13
BRANCH   7  14
ATOM     14  O   UNL     1       5.065   3.001  19.323  0.00  0.00    +0.000 OA
ATOM     15  H   UNL     1       5.187   3.218  20.267  0.00  0.00    +0.000 HD
ENDBRANCH   7  14
TORSDOF 3
ENDMDL
MODEL 3
REMARK VINA RESULT:      -6.6      1.986      5.286
REMARK  Name = 
REMARK  6 active torsions:
REMARK  status: ('A' for Active; 'I' for Inactive)
REMARK    1  A    between atoms: C_1  and  C_2
REMARK    2  A    between atoms: C_2  and  C_3
REMARK    3  A    between atoms: C_8  and  C_9
REMARK    4  A    between atoms: C_9  and  C_10
REMARK    5  A    between atoms: C_9  and  C_11
REMARK    6  A    between atoms: C_12  and  O_13
REMARK                            x       y       z     vdW  Elec       q    Type
REMARK                         _______ _______ _______ _____ _____    ______ ____
ROOT
ATOM      1  C   UNL     1       2.141   4.375  19.977  0.00  0.00    +0.000 C 
ATOM      2  C   UNL     1       1.460   4.933  18.671  0.00  0.00    +0.000 C 
ATOM      3  C   UNL     1       2.844   5.260  18.271  0.00  0.00    +0.000 A 
ATOM      4  C   UNL     1       3.550   6.215  17.585  0.00  0.00    +0.000 A 
ATOM      5  C   UNL     1       4.928   6.165  17.682  0.00  0.00    +0.000 A 
ATOM      6  C   UNL     1       5.584   5.110  18.365  0.00  0.00    +0.000 A 
ATOM      7  C   UNL     1       4.789   4.143  19.052  0.00  0.00    +0.000 A 
ATOM      8  C   UNL     1       3.399   4.261  19.065  0.00  0.00    +0.000 A 
ENDROOT
BRANCH   6   9
ATOM      9  C   UNL     1       7.112   5.095  18.357  0.00  0.00    +0.000 C 
ATOM     10  C   UNL     1       7.594   4.523  17.019  0.00  0.00    +0.000 C 
ATOM     11  C   UNL     1       7.778   6.468  18.582  0.00  0.00    +0.000 C 
ENDBRANCH   6   9
BRANCH   1  13
ATOM     12  C   UNL     1       1.553   2.555  21.675  0.00  0.00    +0.000 C 
ATOM     13  C   UNL     1       1.117   3.362  20.467  0.00  0.00    +0.000 C 
ENDBRANCH   1  13
BRANCH   7  14
ATOM     14  O   UNL     1       5.371   3.024  19.576  0.00  0.00    +0.000 OA
ATOM     15  H   UNL     1       5.036   2.247  19.090  0.00  0.00    +0.000 HD
ENDBRANCH   7  14
TORSDOF 3
ENDMDL
MODEL 4
REMARK VINA RESULT:      -6.4      2.085      3.050
REMARK  Name = 
REMARK  6 active torsions:
REMARK  status: ('A' for Active; 'I' for Inactive)
REMARK    1  A    between atoms: C_1  and  C_2
REMARK    2  A    between atoms: C_2  and  C_3
REMARK    3  A    between atoms: C_8  and  C_9
REMARK    4  A    between atoms: C_9  and  C_10
REMARK    5  A    between atoms: C_9  and  C_11
REMARK    6  A    between atoms: C_12  and  O_13
REMARK                            x       y       z     vdW  Elec       q    Type
REMARK                         _______ _______ _______ _____ _____    ______ ____
ROOT
ATOM      1  C   UNL     1       6.558   5.102  18.597  0.00  0.00    +0.000 C 
ATOM      2  C   UNL     1       6.494   4.804  17.052  0.00  0.00    +0.000 C 
ATOM      3  C   UNL     1       5.139   4.299  17.360  0.00  0.00    +0.000 A 
ATOM      4  C   UNL     1       4.261   3.320  16.972  0.00  0.00    +0.000 A 
ATOM      5  C   UNL     1       3.143   3.134  17.762  0.00  0.00    +0.000 A 
ATOM      6  C   UNL     1       2.859   3.988  18.856  0.00  0.00    +0.000 A 
ATOM      7  C   UNL     1       3.812   4.994  19.203  0.00  0.00    +0.000 A 
ATOM      8  C   UNL     1       5.004   5.105  18.486  0.00  0.00    +0.000 A 
ENDROOT
BRANCH   6   9
ATOM      9  C   UNL     1       1.561   3.754  19.629  0.00  0.00    +0.000 C 
ATOM     10  C   UNL     1       0.723   2.709  18.882  0.00  0.00    +0.000 C 
ATOM     11  C   UNL     1       1.746   3.294  21.089  0.00  0.00    +0.000 C 
ENDBRANCH   6   9
BRANCH   1  13
ATOM     12  C   UNL     1       7.500   7.240  17.558  0.00  0.00    +0.000 C 
ATOM     13  C   UNL     1       7.597   6.211  18.668  0.00  0.00    +0.000 C 
ENDBRANCH   1  13
BRANCH   7  14
ATOM     14  O   UNL     1       3.501   5.942  20.137  0.00  0.00    +0.000 OA
ATOM     15  H   UNL     1       3.226   6.753  19.671  0.00  0.00    +0.000 HD
ENDBRANCH   7  14
TORSDOF 3
ENDMDL
MODEL 5
REMARK VINA RESULT:      -6.4      1.850      5.498
REMARK  Name = 
REMARK  6 active torsions:
REMARK  status: ('A' for Active; 'I' for Inactive)
REMARK    1  A    between atoms: C_1  and  C_2
REMARK    2  A    between atoms: C_2  and  C_3
REMARK    3  A    between atoms: C_8  and  C_9
REMARK    4  A    between atoms: C_9  and  C_10
REMARK    5  A    between atoms: C_9  and  C_11
REMARK    6  A    between atoms: C_12  and  O_13
REMARK                            x       y       z     vdW  Elec       q    Type
REMARK                         _______ _______ _______ _____ _____    ______ ____
ROOT
ATOM      1  C   UNL     1       2.709   4.487  20.026  0.00  0.00    +0.000 C 
ATOM      2  C   UNL     1       2.053   3.343  19.164  0.00  0.00    +0.000 C 
ATOM      3  C   UNL     1       3.176   3.604  18.240  0.00  0.00    +0.000 A 
ATOM      4  C   UNL     1       3.460   3.623  16.898  0.00  0.00    +0.000 A 
ATOM      5  C   UNL     1       4.675   4.166  16.523  0.00  0.00    +0.000 A 
ATOM      6  C   UNL     1       5.629   4.578  17.486  0.00  0.00    +0.000 A 
ATOM      7  C   UNL     1       5.273   4.524  18.868  0.00  0.00    +0.000 A 
ATOM      8  C   UNL     1       4.000   4.097  19.246  0.00  0.00    +0.000 A 
ENDROOT
BRANCH   6   9
ATOM      9  C   UNL     1       6.976   5.096  16.981  0.00  0.00    +0.000 C 
ATOM     10  C   UNL     1       7.094   4.789  15.483  0.00  0.00    +0.000 C 
ATOM     11  C   UNL     1       7.220   6.602  17.203  0.00  0.00    +0.000 C 
ENDBRANCH   6   9
BRANCH   1  13
ATOM     12  C   UNL     1       1.630   2.771  21.585  0.00  0.00    +0.000 C 
ATOM     13  C   UNL     1       2.202   4.167  21.425  0.00  0.00    +0.000 C 
ENDBRANCH   1  13
BRANCH   7  14
ATOM     14  O   UNL     1       6.217   4.750  19.830  0.00  0.00    +0.000 OA
ATOM     15  H   UNL     1       5.769   5.084  20.629  0.00  0.00    +0.000 HD
ENDBRANCH   7  14
TORSDOF 3
ENDMDL
MODEL 6
REMARK VINA RESULT:      -6.3      1.039      5.032
REMARK  Name = 
REMARK  6 active torsions:
REMARK  status: ('A' for Active; 'I' for Inactive)
REMARK    1  A    between atoms: C_1  and  C_2
REMARK    2  A    between atoms: C_2  and  C_3
REMARK    3  A    between atoms: C_8  and  C_9
REMARK    4  A    between atoms: C_9  and  C_10
REMARK    5  A    between atoms: C_9  and  C_11
REMARK    6  A    between atoms: C_12  and  O_13
REMARK                            x       y       z     vdW  Elec       q    Type
REMARK                         _______ _______ _______ _____ _____    ______ ____
ROOT
ATOM      1  C   UNL     1       2.984   5.005  20.039  0.00  0.00    +0.000 C 
ATOM      2  C   UNL     1       2.288   6.308  19.493  0.00  0.00    +0.000 C 
ATOM      3  C   UNL     1       3.219   6.145  18.356  0.00  0.00    +0.000 A 
ATOM      4  C   UNL     1       3.954   6.895  17.475  0.00  0.00    +0.000 A 
ATOM      5  C   UNL     1       4.875   6.221  16.696  0.00  0.00    +0.000 A 
ATOM      6  C   UNL     1       4.975   4.808  16.725  0.00  0.00    +0.000 A 
ATOM      7  C   UNL     1       4.175   4.085  17.661  0.00  0.00    +0.000 A 
ATOM      8  C   UNL     1       3.335   4.771  18.540  0.00  0.00    +0.000 A 
ENDROOT
BRANCH   6   9
ATOM      9  C   UNL     1       5.970   4.142  15.774  0.00  0.00    +0.000 C 
ATOM     10  C   UNL     1       5.476   4.324  14.334  0.00  0.00    +0.000 C 
ATOM     11  C   UNL     1       7.418   4.664  15.876  0.00  0.00    +0.000 C 
ENDBRANCH   6   9
BRANCH   1  13
ATOM     12  C   UNL     1       1.063   3.343  20.335  0.00  0.00    +0.000 C 
ATOM     13  C   UNL     1       1.915   4.432  20.959  0.00  0.00    +0.000 C 
ENDBRANCH   1  13
BRANCH   7  14
ATOM     14  O   UNL     1       4.116   2.721  17.606  0.00  0.00    +0.000 OA
ATOM     15  H   UNL     1       3.211   2.443  17.840  0.00  0.00    +0.000 HD
ENDBRANCH   7  14
TORSDOF 3
ENDMDL
MODEL 7
REMARK VINA RESULT:      -6.3      1.355      1.754
REMARK  Name = 
REMARK  6 active torsions:
REMARK  status: ('A' for Active; 'I' for Inactive)
REMARK    1  A    between atoms: C_1  and  C_2
REMARK    2  A    between atoms: C_2  and  C_3
REMARK    3  A    between atoms: C_8  and  C_9
REMARK    4  A    between atoms: C_9  and  C_10
REMARK    5  A    between atoms: C_9  and  C_11
REMARK    6  A    between atoms: C_12  and  O_13
REMARK                            x       y       z     vdW  Elec       q    Type
REMARK                         _______ _______ _______ _____ _____    ______ ____
ROOT
ATOM      1  C   UNL     1       5.205   4.729  15.712  0.00  0.00    +0.000 C 
ATOM      2  C   UNL     1       6.480   4.518  16.612  0.00  0.00    +0.000 C 
ATOM      3  C   UNL     1       5.505   4.490  17.722  0.00  0.00    +0.000 A 
ATOM      4  C   UNL     1       5.384   4.869  19.034  0.00  0.00    +0.000 A 
ATOM      5  C   UNL     1       4.121   4.800  19.591  0.00  0.00    +0.000 A 
ATOM      6  C   UNL     1       3.026   4.256  18.876  0.00  0.00    +0.000 A 
ATOM      7  C   UNL     1       3.221   3.873  17.514  0.00  0.00    +0.000 A 
ATOM      8  C   UNL     1       4.463   4.059  16.907  0.00  0.00    +0.000 A 
ENDROOT
BRANCH   6   9
ATOM      9  C   UNL     1       1.682   4.149  19.598  0.00  0.00    +0.000 C 
ATOM     10  C   UNL     1       1.582   2.767  20.254  0.00  0.00    +0.000 C 
ATOM     11  C   UNL     1       1.431   5.230  20.669  0.00  0.00    +0.000 C 
ENDBRANCH   6   9
BRANCH   1  13
ATOM     12  C   UNL     1       7.026   4.745  13.916  0.00  0.00    +0.000 C 
ATOM     13  C   UNL     1       5.677   4.212  14.360  0.00  0.00    +0.000 C 
ENDBRANCH   1  13
BRANCH   7  14
ATOM     14  O   UNL     1       2.244   3.192  16.845  0.00  0.00    +0.000 OA
ATOM     15  H   UNL     1       2.412   2.236  16.945  0.00  0.00    +0.000 HD
ENDBRANCH   7  14
TORSDOF 3
ENDMDL
MODEL 8
REMARK VINA RESULT:      -6.3      2.260      5.005
REMARK  Name = 
REMARK  6 active torsions:
REMARK  status: ('A' for Active; 'I' for Inactive)
REMARK    1  A    between atoms: C_1  and  C_2
REMARK    2  A    between atoms: C_2  and  C_3
REMARK    3  A    between atoms: C_8  and  C_9
REMARK    4  A    between atoms: C_9  and  C_10
REMARK    5  A    between atoms: C_9  and  C_11
REMARK    6  A    between atoms: C_12  and  O_13
REMARK                            x       y       z     vdW  Elec       q    Type
REMARK                         _______ _______ _______ _____ _____    ______ ____
ROOT
ATOM      1  C   UNL     1       2.751   4.073  19.409  0.00  0.00    +0.000 C 
ATOM      2  C   UNL     1       1.888   4.692  18.246  0.00  0.00    +0.000 C 
ATOM      3  C   UNL     1       3.138   5.400  17.900  0.00  0.00    +0.000 A 
ATOM      4  C   UNL     1       3.570   6.603  17.405  0.00  0.00    +0.000 A 
ATOM      5  C   UNL     1       4.928   6.857  17.473  0.00  0.00    +0.000 A 
ATOM      6  C   UNL     1       5.841   5.874  17.929  0.00  0.00    +0.000 A 
ATOM      7  C   UNL     1       5.325   4.638  18.424  0.00  0.00    +0.000 A 
ATOM      8  C   UNL     1       3.947   4.426  18.476  0.00  0.00    +0.000 A 
ENDROOT
BRANCH   6   9
ATOM      9  C   UNL     1       7.331   6.215  17.899  0.00  0.00    +0.000 C 
ATOM     10  C   UNL     1       7.499   7.655  17.398  0.00  0.00    +0.000 C 
ATOM     11  C   UNL     1       8.060   6.068  19.250  0.00  0.00    +0.000 C 
ENDBRANCH   6   9
BRANCH   1  13
ATOM     12  C   UNL     1       0.844   2.490  18.777  0.00  0.00    +0.000 C 
ATOM     13  C   UNL     1       2.010   2.776  19.704  0.00  0.00    +0.000 C 
ENDBRANCH   1  13
BRANCH   7  14
ATOM     14  O   UNL     1       6.173   3.606  18.711  0.00  0.00    +0.000 OA
ATOM     15  H   UNL     1       6.387   3.143  17.879  0.00  0.00    +0.000 HD
ENDBRANCH   7  14
TORSDOF 3
ENDMDL
MODEL 9
REMARK VINA RESULT:      -6.2      1.944      3.028
REMARK  Name = 
REMARK  6 active torsions:
REMARK  status: ('A' for Active; 'I' for Inactive)
REMARK    1  A    between atoms: C_1  and  C_2
REMARK    2  A    between atoms: C_2  and  C_3
REMARK    3  A    between atoms: C_8  and  C_9
REMARK    4  A    between atoms: C_9  and  C_10
REMARK    5  A    between atoms: C_9  and  C_11
REMARK    6  A    between atoms: C_12  and  O_13
REMARK                            x       y       z     vdW  Elec       q    Type
REMARK                         _______ _______ _______ _____ _____    ______ ____
ROOT
ATOM      1  C   UNL     1       5.716   6.062  17.675  0.00  0.00    +0.000 C 
ATOM      2  C   UNL     1       5.343   5.474  16.262  0.00  0.00    +0.000 C 
ATOM      3  C   UNL     1       4.252   4.803  16.997  0.00  0.00    +0.000 A 
ATOM      4  C   UNL     1       3.545   3.628  17.001  0.00  0.00    +0.000 A 
ATOM      5  C   UNL     1       2.723   3.396  18.089  0.00  0.00    +0.000 A 
ATOM      6  C   UNL     1       2.534   4.375  19.095  0.00  0.00    +0.000 A 
ATOM      7  C   UNL     1       3.295   5.581  19.027  0.00  0.00    +0.000 A 
ATOM      8  C   UNL     1       4.221   5.767  18.000  0.00  0.00    +0.000 A 
ENDROOT
BRANCH   6   9
ATOM      9  C   UNL     1       1.549   4.061  20.221  0.00  0.00    +0.000 C 
ATOM     10  C   UNL     1       0.605   2.946  19.756  0.00  0.00    +0.000 C 
ATOM     11  C   UNL     1       2.197   3.642  21.556  0.00  0.00    +0.000 C 
ENDBRANCH   6   9
BRANCH   1  13
ATOM     12  C   UNL     1       7.842   7.459  17.938  0.00  0.00    +0.000 C 
ATOM     13  C   UNL     1       6.468   7.333  17.306  0.00  0.00    +0.000 C 
ENDBRANCH   1  13
BRANCH   7  14
ATOM     14  O   UNL     1       3.020   6.616  19.876  0.00  0.00    +0.000 OA
ATOM     15  H   UNL     1       3.865   6.981  20.200  0.00  0.00    +0.000 HD
ENDBRANCH   7  14
TORSDOF 3
ENDMDL
