MODEL 1
REMARK VINA RESULT:      -8.8      0.000      0.000
REMARK  Name = 
REMARK  6 active torsions:
REMARK  status: ('A' for Active; 'I' for Inactive)
REMARK    1  A    between atoms: C_2  and  C_29
REMARK    2  A    between atoms: N_3  and  C_4
REMARK    3  A    between atoms: C_8  and  C_9
REMARK    4  A    between atoms: C_9  and  C_11
REMARK    5  A    between atoms: C_15  and  C_16
REMARK    6  A    between atoms: C_17  and  C_18
REMARK                            x       y       z     vdW  Elec       q    Type
REMARK                         _______ _______ _______ _____ _____    ______ ____
ROOT
ATOM      1  C   UNL     1       0.903   8.998  20.369  0.00  0.00    +0.000 C 
ATOM      2  O   UNL     1       0.817   8.943  21.594  0.00  0.00    +0.000 OA
ENDROOT
BRANCH   1   3
ATOM      3  C   UNL     1       1.774   8.017  19.670  0.00  0.00    +0.000 A 
ATOM      4  C   UNL     1       2.161   8.320  18.359  0.00  0.00    +0.000 A 
ATOM      5  C   UNL     1       3.045   7.491  17.657  0.00  0.00    +0.000 A 
ATOM      6  C   UNL     1       3.549   6.340  18.292  0.00  0.00    +0.000 A 
ATOM      7  C   UNL     1       4.504   5.325  17.981  0.00  0.00    +0.000 A 
ATOM      8  N   UNL     1       4.587   4.419  18.968  0.00  0.00    +0.000 NA
ATOM      9  N   UNL     1       3.714   4.850  19.888  0.00  0.00    +0.000 N 
ATOM     10  C   UNL     1       3.090   6.024  19.567  0.00  0.00    +0.000 A 
ATOM     11  C   UNL     1       2.186   6.821  20.280  0.00  0.00    +0.000 A 
ATOM     12  H   UNL     1       3.616   4.309  20.740  0.00  0.00    +0.000 HD
BRANCH   7  13
ATOM     13  C   UNL     1       5.320   5.303  16.801  0.00  0.00    +0.000 C 
ATOM     14  C   UNL     1       5.001   4.628  15.681  0.00  0.00    +0.000 C 
BRANCH  14  15
ATOM     15  C   UNL     1       5.843   4.531  14.485  0.00  0.00    +0.000 A 
ATOM     16  C   UNL     1       5.491   3.642  13.472  0.00  0.00    +0.000 A 
ATOM     17  C   UNL     1       6.305   3.547  12.346  0.00  0.00    +0.000 A 
ATOM     18  C   UNL     1       7.445   4.334  12.265  0.00  0.00    +0.000 A 
ATOM     19  C   UNL     1       7.724   5.189  13.318  0.00  0.00    +0.000 A 
ATOM     20  N   UNL     1       6.953   5.304  14.424  0.00  0.00    +0.000 NA
ENDBRANCH  14  15
ENDBRANCH   7  13
ENDBRANCH   1   3
BRANCH   1  25
ATOM     21  C   UNL     1      -0.201  12.295  18.799  0.00  0.00    +0.000 A 
ATOM     22  C   UNL     1      -1.475  11.924  18.358  0.00  0.00    +0.000 A 
ATOM     23  C   UNL     1      -1.943  10.623  18.536  0.00  0.00    +0.000 A 
ATOM     24  C   UNL     1      -1.150   9.683  19.186  0.00  0.00    +0.000 A 
ATOM     25  C   UNL     1       0.125  10.038  19.640  0.00  0.00    +0.000 A 
ATOM     26  C   UNL     1       0.621  11.328  19.392  0.00  0.00    +0.000 A 
BRANCH  21  29
ATOM     27  O   UNL     1      -0.227  14.410  20.823  0.00  0.00    +0.000 OA
ATOM     28  C   UNL     1       0.219  14.571  19.693  0.00  0.00    +0.000 C 
ATOM     29  N   UNL     1       0.291  13.616  18.688  0.00  0.00    +0.000 N 
ATOM     30  H   UNL     1       0.886  13.814  17.894  0.00  0.00    +0.000 HD
BRANCH  28  31
ATOM     31  C   UNL     1       0.825  15.891  19.391  0.00  0.00    +0.000 A 
ATOM     32  C   UNL     1       1.523  16.536  20.415  0.00  0.00    +0.000 A 
ATOM     33  C   UNL     1       2.055  17.784  20.156  0.00  0.00    +0.000 A 
ATOM     34  N   UNL     1       1.929  18.409  18.968  0.00  0.00    +0.000 NA
ATOM     35  C   UNL     1       1.229  17.763  18.011  0.00  0.00    +0.000 A 
ATOM     36 CL   UNL     1       1.073  18.630  16.541  0.00  0.00    +0.000 Cl
ATOM     37  C   UNL     1       0.662  16.514  18.157  0.00  0.00    +0.000 A 
ENDBRANCH  28  31
ENDBRANCH  21  29
ENDBRANCH   1  25
TORSDOF 6
ENDMDL
MODEL 2
REMARK VINA RESULT:      -8.6      4.188      5.995
REMARK  Name = 
REMARK  6 active torsions:
REMARK  status: ('A' for Active; 'I' for Inactive)
REMARK    1  A    between atoms: C_2  and  C_29
REMARK    2  A    between atoms: N_3  and  C_4
REMARK    3  A    between atoms: C_8  and  C_9
REMARK    4  A    between atoms: C_9  and  C_11
REMARK    5  A    between atoms: C_15  and  C_16
REMARK    6  A    between atoms: C_17  and  C_18
REMARK                            x       y       z     vdW  Elec       q    Type
REMARK                         _______ _______ _______ _____ _____    ______ ____
ROOT
ATOM      1  C   UNL     1      -0.786  11.018  22.466  0.00  0.00    +0.000 C 
ATOM      2  O   UNL     1      -1.042  10.473  23.538  0.00  0.00    +0.000 OA
ENDROOT
BRANCH   1   3
ATOM      3  C   UNL     1       0.067  10.298  21.485  0.00  0.00    +0.000 A 
ATOM      4  C   UNL     1       0.639   9.089  21.896  0.00  0.00    +0.000 A 
ATOM      5  C   UNL     1       1.389   8.307  21.008  0.00  0.00    +0.000 A 
ATOM      6  C   UNL     1       1.560   8.753  19.684  0.00  0.00    +0.000 A 
ATOM      7  C   UNL     1       2.145   8.235  18.489  0.00  0.00    +0.000 A 
ATOM      8  N   UNL     1       2.046   9.115  17.480  0.00  0.00    +0.000 NA
ATOM      9  N   UNL     1       1.405  10.163  18.016  0.00  0.00    +0.000 N 
ATOM     10  C   UNL     1       1.043   9.994  19.324  0.00  0.00    +0.000 A 
ATOM     11  C   UNL     1       0.313  10.807  20.199  0.00  0.00    +0.000 A 
ATOM     12  H   UNL     1       1.214  10.959  17.418  0.00  0.00    +0.000 HD
BRANCH   7  13
ATOM     13  C   UNL     1       2.709   6.923  18.355  0.00  0.00    +0.000 C 
ATOM     14  C   UNL     1       2.029   5.786  18.591  0.00  0.00    +0.000 C 
BRANCH  14  15
ATOM     15  C   UNL     1       2.595   4.435  18.528  0.00  0.00    +0.000 A 
ATOM     16  C   UNL     1       2.038   3.501  17.657  0.00  0.00    +0.000 A 
ATOM     17  C   UNL     1       2.573   2.216  17.615  0.00  0.00    +0.000 A 
ATOM     18  C   UNL     1       3.642   1.899  18.441  0.00  0.00    +0.000 A 
ATOM     19  C   UNL     1       4.133   2.885  19.281  0.00  0.00    +0.000 A 
ATOM     20  N   UNL     1       3.635   4.142  19.344  0.00  0.00    +0.000 NA
ENDBRANCH  14  15
ENDBRANCH   7  13
ENDBRANCH   1   3
BRANCH   1  25
ATOM     21  C   UNL     1      -2.881  13.885  21.069  0.00  0.00    +0.000 A 
ATOM     22  C   UNL     1      -2.237  14.961  21.688  0.00  0.00    +0.000 A 
ATOM     23  C   UNL     1      -1.174  14.752  22.564  0.00  0.00    +0.000 A 
ATOM     24  C   UNL     1      -0.722  13.460  22.810  0.00  0.00    +0.000 A 
ATOM     25  C   UNL     1      -1.349  12.370  22.196  0.00  0.00    +0.000 A 
ATOM     26  C   UNL     1      -2.467  12.581  21.372  0.00  0.00    +0.000 A 
BRANCH  21  29
ATOM     27  O   UNL     1      -5.731  14.295  21.595  0.00  0.00    +0.000 OA
ATOM     28  C   UNL     1      -5.263  14.221  20.465  0.00  0.00    +0.000 C 
ATOM     29  N   UNL     1      -3.926  14.055  20.132  0.00  0.00    +0.000 N 
ATOM     30  H   UNL     1      -3.654  14.242  19.176  0.00  0.00    +0.000 HD
BRANCH  28  31
ATOM     31  C   UNL     1      -6.203  14.418  19.335  0.00  0.00    +0.000 A 
ATOM     32  C   UNL     1      -6.784  13.282  18.766  0.00  0.00    +0.000 A 
ATOM     33  C   UNL     1      -7.628  13.451  17.687  0.00  0.00    +0.000 A 
ATOM     34  N   UNL     1      -7.914  14.656  17.154  0.00  0.00    +0.000 NA
ATOM     35  C   UNL     1      -7.317  15.728  17.717  0.00  0.00    +0.000 A 
ATOM     36 CL   UNL     1      -7.690  17.223  16.966  0.00  0.00    +0.000 Cl
ATOM     37  C   UNL     1      -6.463  15.676  18.800  0.00  0.00    +0.000 A 
ENDBRANCH  28  31
ENDBRANCH  21  29
ENDBRANCH   1  25
TORSDOF 6
ENDMDL
MODEL 3
REMARK VINA RESULT:      -8.6      1.214      1.356
REMARK  Name = 
REMARK  6 active torsions:
REMARK  status: ('A' for Active; 'I' for Inactive)
REMARK    1  A    between atoms: C_2  and  C_29
REMARK    2  A    between atoms: N_3  and  C_4
REMARK    3  A    between atoms: C_8  and  C_9
REMARK    4  A    between atoms: C_9  and  C_11
REMARK    5  A    between atoms: C_15  and  C_16
REMARK    6  A    between atoms: C_17  and  C_18
REMARK                            x       y       z     vdW  Elec       q    Type
REMARK                         _______ _______ _______ _____ _____    ______ ____
ROOT
ATOM      1  C   UNL     1       1.432   8.525  20.421  0.00  0.00    +0.000 C 
ATOM      2  O   UNL     1       1.574   8.585  21.641  0.00  0.00    +0.000 OA
ENDROOT
BRANCH   1   3
ATOM      3  C   UNL     1       2.037   7.382  19.688  0.00  0.00    +0.000 A 
ATOM      4  C   UNL     1       2.302   7.560  18.325  0.00  0.00    +0.000 A 
ATOM      5  C   UNL     1       2.944   6.565  17.579  0.00  0.00    +0.000 A 
ATOM      6  C   UNL     1       3.329   5.372  18.221  0.00  0.00    +0.000 A 
ATOM      7  C   UNL     1       4.059   4.198  17.865  0.00  0.00    +0.000 A 
ATOM      8  N   UNL     1       4.115   3.333  18.889  0.00  0.00    +0.000 NA
ATOM      9  N   UNL     1       3.446   3.944  19.877  0.00  0.00    +0.000 N 
ATOM     10  C   UNL     1       2.987   5.192  19.558  0.00  0.00    +0.000 A 
ATOM     11  C   UNL     1       2.321   6.160  20.320  0.00  0.00    +0.000 A 
ATOM     12  H   UNL     1       3.368   3.463  20.765  0.00  0.00    +0.000 HD
BRANCH   7  13
ATOM     13  C   UNL     1       4.707   3.988  16.602  0.00  0.00    +0.000 C 
ATOM     14  C   UNL     1       5.568   4.860  16.046  0.00  0.00    +0.000 C 
BRANCH  14  15
ATOM     15  C   UNL     1       6.194   4.706  14.730  0.00  0.00    +0.000 A 
ATOM     16  C   UNL     1       5.631   3.832  13.803  0.00  0.00    +0.000 A 
ATOM     17  C   UNL     1       6.241   3.680  12.561  0.00  0.00    +0.000 A 
ATOM     18  C   UNL     1       7.394   4.400  12.280  0.00  0.00    +0.000 A 
ATOM     19  C   UNL     1       7.891   5.245  13.259  0.00  0.00    +0.000 A 
ATOM     20  N   UNL     1       7.320   5.413  14.474  0.00  0.00    +0.000 NA
ENDBRANCH  14  15
ENDBRANCH   7  13
ENDBRANCH   1   3
BRANCH   1  25
ATOM     21  C   UNL     1       0.399  11.838  18.837  0.00  0.00    +0.000 A 
ATOM     22  C   UNL     1      -0.938  11.547  18.549  0.00  0.00    +0.000 A 
ATOM     23  C   UNL     1      -1.475  10.292  18.831  0.00  0.00    +0.000 A 
ATOM     24  C   UNL     1      -0.684   9.319  19.434  0.00  0.00    +0.000 A 
ATOM     25  C   UNL     1       0.655   9.593  19.735  0.00  0.00    +0.000 A 
ATOM     26  C   UNL     1       1.210  10.834  19.381  0.00  0.00    +0.000 A 
BRANCH  21  29
ATOM     27  O   UNL     1       0.101  14.253  20.463  0.00  0.00    +0.000 OA
ATOM     28  C   UNL     1       0.757  14.220  19.429  0.00  0.00    +0.000 C 
ATOM     29  N   UNL     1       0.968  13.113  18.618  0.00  0.00    +0.000 N 
ATOM     30  H   UNL     1       1.709  13.169  17.931  0.00  0.00    +0.000 HD
BRANCH  28  31
ATOM     31  C   UNL     1       1.473  15.462  19.047  0.00  0.00    +0.000 A 
ATOM     32  C   UNL     1       0.715  16.523  18.546  0.00  0.00    +0.000 A 
ATOM     33  C   UNL     1       1.376  17.668  18.149  0.00  0.00    +0.000 A 
ATOM     34  N   UNL     1       2.715  17.808  18.216  0.00  0.00    +0.000 NA
ATOM     35  C   UNL     1       3.416  16.754  18.685  0.00  0.00    +0.000 A 
ATOM     36 CL   UNL     1       5.114  16.983  18.705  0.00  0.00    +0.000 Cl
ATOM     37  C   UNL     1       2.859  15.567  19.115  0.00  0.00    +0.000 A 
ENDBRANCH  28  31
ENDBRANCH  21  29
ENDBRANCH   1  25
TORSDOF 6
ENDMDL
MODEL 4
REMARK VINA RESULT:      -8.5      3.865      5.502
REMARK  Name = 
REMARK  6 active torsions:
REMARK  status: ('A' for Active; 'I' for Inactive)
REMARK    1  A    between atoms: C_2  and  C_29
REMARK    2  A    between atoms: N_3  and  C_4
REMARK    3  A    between atoms: C_8  and  C_9
REMARK    4  A    between atoms: C_9  and  C_11
REMARK    5  A    between atoms: C_15  and  C_16
REMARK    6  A    between atoms: C_17  and  C_18
REMARK                            x       y       z     vdW  Elec       q    Type
REMARK                         _______ _______ _______ _____ _____    ______ ____
ROOT
ATOM      1  C   UNL     1       0.883   9.906  20.022  0.00  0.00    +0.000 C 
ATOM      2  O   UNL     1       1.362  10.469  21.004  0.00  0.00    +0.000 OA
ENDROOT
BRANCH   1   3
ATOM      3  C   UNL     1       1.519   8.653  19.536  0.00  0.00    +0.000 A 
ATOM      4  C   UNL     1       1.804   8.565  18.168  0.00  0.00    +0.000 A 
ATOM      5  C   UNL     1       2.475   7.455  17.641  0.00  0.00    +0.000 A 
ATOM      6  C   UNL     1       2.868   6.420  18.510  0.00  0.00    +0.000 A 
ATOM      7  C   UNL     1       3.622   5.212  18.402  0.00  0.00    +0.000 A 
ATOM      8  N   UNL     1       3.675   4.566  19.577  0.00  0.00    +0.000 NA
ATOM      9  N   UNL     1       2.979   5.346  20.416  0.00  0.00    +0.000 N 
ATOM     10  C   UNL     1       2.505   6.499  19.852  0.00  0.00    +0.000 A 
ATOM     11  C   UNL     1       1.811   7.584  20.399  0.00  0.00    +0.000 A 
ATOM     12  H   UNL     1       2.893   5.047  21.380  0.00  0.00    +0.000 HD
BRANCH   7  13
ATOM     13  C   UNL     1       4.295   4.771  17.214  0.00  0.00    +0.000 C 
ATOM     14  C   UNL     1       5.235   5.490  16.573  0.00  0.00    +0.000 C 
BRANCH  14  15
ATOM     15  C   UNL     1       5.892   5.097  15.323  0.00  0.00    +0.000 A 
ATOM     16  C   UNL     1       5.275   4.167  14.489  0.00  0.00    +0.000 A 
ATOM     17  C   UNL     1       5.914   3.789  13.311  0.00  0.00    +0.000 A 
ATOM     18  C   UNL     1       7.147   4.344  13.000  0.00  0.00    +0.000 A 
ATOM     19  C   UNL     1       7.693   5.259  13.886  0.00  0.00    +0.000 A 
ATOM     20  N   UNL     1       7.096   5.646  15.037  0.00  0.00    +0.000 NA
ENDBRANCH  14  15
ENDBRANCH   7  13
ENDBRANCH   1   3
BRANCH   1  25
ATOM     21  C   UNL     1      -1.840  10.773  17.494  0.00  0.00    +0.000 A 
ATOM     22  C   UNL     1      -2.515  11.763  18.215  0.00  0.00    +0.000 A 
ATOM     23  C   UNL     1      -2.113  12.109  19.504  0.00  0.00    +0.000 A 
ATOM     24  C   UNL     1      -1.009  11.487  20.078  0.00  0.00    +0.000 A 
ATOM     25  C   UNL     1      -0.317  10.498  19.369  0.00  0.00    +0.000 A 
ATOM     26  C   UNL     1      -0.771  10.101  18.101  0.00  0.00    +0.000 A 
BRANCH  21  29
ATOM     27  O   UNL     1      -4.498  10.684  16.272  0.00  0.00    +0.000 OA
ATOM     28  C   UNL     1      -3.474  10.389  15.668  0.00  0.00    +0.000 C 
ATOM     29  N   UNL     1      -2.179  10.430  16.165  0.00  0.00    +0.000 N 
ATOM     30  H   UNL     1      -1.419  10.385  15.499  0.00  0.00    +0.000 HD
BRANCH  28  31
ATOM     31  C   UNL     1      -3.618  10.037  14.234  0.00  0.00    +0.000 A 
ATOM     32  C   UNL     1      -2.464   9.678  13.533  0.00  0.00    +0.000 A 
ATOM     33  C   UNL     1      -2.581   9.389  12.188  0.00  0.00    +0.000 A 
ATOM     34  N   UNL     1      -3.751   9.442  11.520  0.00  0.00    +0.000 NA
ATOM     35  C   UNL     1      -4.839   9.813  12.226  0.00  0.00    +0.000 A 
ATOM     36 CL   UNL     1      -6.284   9.900  11.308  0.00  0.00    +0.000 Cl
ATOM     37  C   UNL     1      -4.840  10.117  13.572  0.00  0.00    +0.000 A 
ENDBRANCH  28  31
ENDBRANCH  21  29
ENDBRANCH   1  25
TORSDOF 6
ENDMDL
MODEL 5
REMARK VINA RESULT:      -8.4      3.791      4.238
REMARK  Name = 
REMARK  6 active torsions:
REMARK  status: ('A' for Active; 'I' for Inactive)
REMARK    1  A    between atoms: C_2  and  C_29
REMARK    2  A    between atoms: N_3  and  C_4
REMARK    3  A    between atoms: C_8  and  C_9
REMARK    4  A    between atoms: C_9  and  C_11
REMARK    5  A    between atoms: C_15  and  C_16
REMARK    6  A    between atoms: C_17  and  C_18
REMARK                            x       y       z     vdW  Elec       q    Type
REMARK                         _______ _______ _______ _____ _____    ______ ____
ROOT
ATOM      1  C   UNL     1       0.881  10.375  19.611  0.00  0.00    +0.000 C 
ATOM      2  O   UNL     1       1.035  11.358  18.889  0.00  0.00    +0.000 OA
ENDROOT
BRANCH   1   3
ATOM      3  C   UNL     1       1.496   9.085  19.201  0.00  0.00    +0.000 A 
ATOM      4  C   UNL     1       1.760   8.902  17.838  0.00  0.00    +0.000 A 
ATOM      5  C   UNL     1       2.411   7.752  17.377  0.00  0.00    +0.000 A 
ATOM      6  C   UNL     1       2.806   6.772  18.308  0.00  0.00    +0.000 A 
ATOM      7  C   UNL     1       3.546   5.552  18.270  0.00  0.00    +0.000 A 
ATOM      8  N   UNL     1       3.609   4.985  19.485  0.00  0.00    +0.000 NA
ATOM      9  N   UNL     1       2.935   5.828  20.280  0.00  0.00    +0.000 N 
ATOM     10  C   UNL     1       2.465   6.945  19.646  0.00  0.00    +0.000 A 
ATOM     11  C   UNL     1       1.791   8.073  20.130  0.00  0.00    +0.000 A 
ATOM     12  H   UNL     1       2.860   5.595  21.263  0.00  0.00    +0.000 HD
BRANCH   7  13
ATOM     13  C   UNL     1       4.196   5.024  17.105  0.00  0.00    +0.000 C 
ATOM     14  C   UNL     1       5.231   5.622  16.488  0.00  0.00    +0.000 C 
BRANCH  14  15
ATOM     15  C   UNL     1       5.873   5.144  15.260  0.00  0.00    +0.000 A 
ATOM     16  C   UNL     1       5.217   4.206  14.466  0.00  0.00    +0.000 A 
ATOM     17  C   UNL     1       5.841   3.746  13.310  0.00  0.00    +0.000 A 
ATOM     18  C   UNL     1       7.098   4.230  12.979  0.00  0.00    +0.000 A 
ATOM     19  C   UNL     1       7.683   5.159  13.825  0.00  0.00    +0.000 A 
ATOM     20  N   UNL     1       7.102   5.625  14.954  0.00  0.00    +0.000 NA
ENDBRANCH  14  15
ENDBRANCH   7  13
ENDBRANCH   1   3
BRANCH   1  25
ATOM     21  C   UNL     1      -1.345  11.768  22.378  0.00  0.00    +0.000 A 
ATOM     22  C   UNL     1      -1.247  10.722  23.300  0.00  0.00    +0.000 A 
ATOM     23  C   UNL     1      -0.504   9.578  23.009  0.00  0.00    +0.000 A 
ATOM     24  C   UNL     1       0.175   9.481  21.799  0.00  0.00    +0.000 A 
ATOM     25  C   UNL     1       0.094  10.521  20.866  0.00  0.00    +0.000 A 
ATOM     26  C   UNL     1      -0.715  11.638  21.133  0.00  0.00    +0.000 A 
BRANCH  21  29
ATOM     27  O   UNL     1      -4.226  12.262  22.226  0.00  0.00    +0.000 OA
ATOM     28  C   UNL     1      -3.415  13.127  22.534  0.00  0.00    +0.000 C 
ATOM     29  N   UNL     1      -2.041  12.968  22.654  0.00  0.00    +0.000 N 
ATOM     30  H   UNL     1      -1.524  13.693  23.135  0.00  0.00    +0.000 HD
BRANCH  28  31
ATOM     31  C   UNL     1      -3.957  14.457  22.904  0.00  0.00    +0.000 A 
ATOM     32  C   UNL     1      -3.052  15.437  23.318  0.00  0.00    +0.000 A 
ATOM     33  C   UNL     1      -3.552  16.665  23.704  0.00  0.00    +0.000 A 
ATOM     34  N   UNL     1      -4.867  16.961  23.704  0.00  0.00    +0.000 NA
ATOM     35  C   UNL     1      -5.712  15.982  23.318  0.00  0.00    +0.000 A 
ATOM     36 CL   UNL     1      -7.370  16.410  23.381  0.00  0.00    +0.000 Cl
ATOM     37  C   UNL     1      -5.323  14.723  22.907  0.00  0.00    +0.000 A 
ENDBRANCH  28  31
ENDBRANCH  21  29
ENDBRANCH   1  25
TORSDOF 6
ENDMDL
MODEL 6
REMARK VINA RESULT:      -8.3      1.356      1.573
REMARK  Name = 
REMARK  6 active torsions:
REMARK  status: ('A' for Active; 'I' for Inactive)
REMARK    1  A    between atoms: C_2  and  C_29
REMARK    2  A    between atoms: N_3  and  C_4
REMARK    3  A    between atoms: C_8  and  C_9
REMARK    4  A    between atoms: C_9  and  C_11
REMARK    5  A    between atoms: C_15  and  C_16
REMARK    6  A    between atoms: C_17  and  C_18
REMARK                            x       y       z     vdW  Elec       q    Type
REMARK                         _______ _______ _______ _____ _____    ______ ____
ROOT
ATOM      1  C   UNL     1       1.026   8.894  20.447  0.00  0.00    +0.000 C 
ATOM      2  O   UNL     1       0.788   8.642  21.627  0.00  0.00    +0.000 OA
ENDROOT
BRANCH   1   3
ATOM      3  C   UNL     1       1.844   7.932  19.663  0.00  0.00    +0.000 A 
ATOM      4  C   UNL     1       2.185   8.294  18.354  0.00  0.00    +0.000 A 
ATOM      5  C   UNL     1       3.020   7.484  17.576  0.00  0.00    +0.000 A 
ATOM      6  C   UNL     1       3.522   6.291  18.129  0.00  0.00    +0.000 A 
ATOM      7  C   UNL     1       4.439   5.273  17.728  0.00  0.00    +0.000 A 
ATOM      8  N   UNL     1       4.540   4.315  18.662  0.00  0.00    +0.000 NA
ATOM      9  N   UNL     1       3.716   4.716  19.639  0.00  0.00    +0.000 N 
ATOM     10  C   UNL     1       3.107   5.919  19.405  0.00  0.00    +0.000 A 
ATOM     11  C   UNL     1       2.252   6.697  20.194  0.00  0.00    +0.000 A 
ATOM     12  H   UNL     1       3.639   4.133  20.465  0.00  0.00    +0.000 HD
BRANCH   7  13
ATOM     13  C   UNL     1       5.206   5.294  16.515  0.00  0.00    +0.000 C 
ATOM     14  C   UNL     1       5.088   4.377  15.537  0.00  0.00    +0.000 C 
BRANCH  14  15
ATOM     15  C   UNL     1       5.902   4.334  14.318  0.00  0.00    +0.000 A 
ATOM     16  C   UNL     1       7.035   5.138  14.224  0.00  0.00    +0.000 A 
ATOM     17  C   UNL     1       7.793   5.101  13.057  0.00  0.00    +0.000 A 
ATOM     18  C   UNL     1       7.400   4.267  12.019  0.00  0.00    +0.000 A 
ATOM     19  C   UNL     1       6.258   3.503  12.193  0.00  0.00    +0.000 A 
ATOM     20  N   UNL     1       5.501   3.517  13.314  0.00  0.00    +0.000 NA
ENDBRANCH  14  15
ENDBRANCH   7  13
ENDBRANCH   1   3
BRANCH   1  25
ATOM     21  C   UNL     1       0.578  12.521  19.354  0.00  0.00    +0.000 A 
ATOM     22  C   UNL     1      -0.708  12.440  18.811  0.00  0.00    +0.000 A 
ATOM     23  C   UNL     1      -1.392  11.226  18.770  0.00  0.00    +0.000 A 
ATOM     24  C   UNL     1      -0.807  10.081  19.301  0.00  0.00    +0.000 A 
ATOM     25  C   UNL     1       0.477  10.144  19.854  0.00  0.00    +0.000 A 
ATOM     26  C   UNL     1       1.191  11.353  19.826  0.00  0.00    +0.000 A 
BRANCH  21  29
ATOM     27  O   UNL     1       0.043  14.764  21.157  0.00  0.00    +0.000 OA
ATOM     28  C   UNL     1       0.951  14.769  20.334  0.00  0.00    +0.000 C 
ATOM     29  N   UNL     1       1.286  13.740  19.465  0.00  0.00    +0.000 N 
ATOM     30  H   UNL     1       2.188  13.786  19.009  0.00  0.00    +0.000 HD
BRANCH  28  31
ATOM     31  C   UNL     1       1.841  15.956  20.323  0.00  0.00    +0.000 A 
ATOM     32  C   UNL     1       1.306  17.174  20.749  0.00  0.00    +0.000 A 
ATOM     33  C   UNL     1       2.114  18.293  20.703  0.00  0.00    +0.000 A 
ATOM     34  N   UNL     1       3.388  18.267  20.263  0.00  0.00    +0.000 NA
ATOM     35  C   UNL     1       3.862  17.076  19.840  0.00  0.00    +0.000 A 
ATOM     36 CL   UNL     1       5.473  17.121  19.256  0.00  0.00    +0.000 Cl
ATOM     37  C   UNL     1       3.147  15.895  19.848  0.00  0.00    +0.000 A 
ENDBRANCH  28  31
ENDBRANCH  21  29
ENDBRANCH   1  25
TORSDOF 6
ENDMDL
MODEL 7
REMARK VINA RESULT:      -8.3      4.755     11.824
REMARK  Name = 
REMARK  6 active torsions:
REMARK  status: ('A' for Active; 'I' for Inactive)
REMARK    1  A    between atoms: C_2  and  C_29
REMARK    2  A    between atoms: N_3  and  C_4
REMARK    3  A    between atoms: C_8  and  C_9
REMARK    4  A    between atoms: C_9  and  C_11
REMARK    5  A    between atoms: C_15  and  C_16
REMARK    6  A    between atoms: C_17  and  C_18
REMARK                            x       y       z     vdW  Elec       q    Type
REMARK                         _______ _______ _______ _____ _____    ______ ____
ROOT
ATOM      1  C   UNL     1       2.673   5.617  19.587  0.00  0.00    +0.000 C 
ATOM      2  O   UNL     1       2.100   4.682  20.143  0.00  0.00    +0.000 OA
ENDROOT
BRANCH   1   3
ATOM      3  C   UNL     1       2.073   6.974  19.673  0.00  0.00    +0.000 A 
ATOM      4  C   UNL     1       1.417   7.314  20.862  0.00  0.00    +0.000 A 
ATOM      5  C   UNL     1       0.895   8.598  21.057  0.00  0.00    +0.000 A 
ATOM      6  C   UNL     1       1.042   9.556  20.036  0.00  0.00    +0.000 A 
ATOM      7  C   UNL     1       0.753  10.945  19.875  0.00  0.00    +0.000 A 
ATOM      8  N   UNL     1       1.089  11.371  18.647  0.00  0.00    +0.000 NA
ATOM      9  N   UNL     1       1.587  10.284  18.044  0.00  0.00    +0.000 N 
ATOM     10  C   UNL     1       1.631   9.169  18.836  0.00  0.00    +0.000 A 
ATOM     11  C   UNL     1       2.137   7.885  18.605  0.00  0.00    +0.000 A 
ATOM     12  H   UNL     1       1.916  10.379  17.089  0.00  0.00    +0.000 HD
BRANCH   7  13
ATOM     13  C   UNL     1       0.233  11.798  20.905  0.00  0.00    +0.000 C 
ATOM     14  C   UNL     1      -0.963  11.618  21.496  0.00  0.00    +0.000 C 
BRANCH  14  15
ATOM     15  C   UNL     1      -1.550  12.507  22.502  0.00  0.00    +0.000 A 
ATOM     16  C   UNL     1      -2.819  12.228  23.004  0.00  0.00    +0.000 A 
ATOM     17  C   UNL     1      -3.374  13.087  23.948  0.00  0.00    +0.000 A 
ATOM     18  C   UNL     1      -2.653  14.198  24.362  0.00  0.00    +0.000 A 
ATOM     19  C   UNL     1      -1.399  14.405  23.810  0.00  0.00    +0.000 A 
ATOM     20  N   UNL     1      -0.833  13.589  22.891  0.00  0.00    +0.000 NA
ENDBRANCH  14  15
ENDBRANCH   7  13
ENDBRANCH   1   3
BRANCH   1  25
ATOM     21  C   UNL     1       5.207   4.582  16.930  0.00  0.00    +0.000 A 
ATOM     22  C   UNL     1       6.389   4.782  17.650  0.00  0.00    +0.000 A 
ATOM     23  C   UNL     1       6.358   5.276  18.954  0.00  0.00    +0.000 A 
ATOM     24  C   UNL     1       5.138   5.550  19.564  0.00  0.00    +0.000 A 
ATOM     25  C   UNL     1       3.945   5.349  18.861  0.00  0.00    +0.000 A 
ATOM     26  C   UNL     1       3.984   4.922  17.524  0.00  0.00    +0.000 A 
BRANCH  21  29
ATOM     27  O   UNL     1       6.458   5.638  14.504  0.00  0.00    +0.000 OA
ATOM     28  C   UNL     1       5.791   4.610  14.519  0.00  0.00    +0.000 C 
ATOM     29  N   UNL     1       5.189   4.031  15.628  0.00  0.00    +0.000 N 
ATOM     30  H   UNL     1       4.871   3.075  15.543  0.00  0.00    +0.000 HD
BRANCH  28  31
ATOM     31  C   UNL     1       5.688   3.857  13.246  0.00  0.00    +0.000 A 
ATOM     32  C   UNL     1       4.434   3.783  12.634  0.00  0.00    +0.000 A 
ATOM     33  C   UNL     1       4.319   3.049  11.470  0.00  0.00    +0.000 A 
ATOM     34  N   UNL     1       5.354   2.399  10.900  0.00  0.00    +0.000 NA
ATOM     35  C   UNL     1       6.544   2.477  11.532  0.00  0.00    +0.000 A 
ATOM     36 CL   UNL     1       7.806   1.596  10.778  0.00  0.00    +0.000 Cl
ATOM     37  C   UNL     1       6.774   3.186  12.694  0.00  0.00    +0.000 A 
ENDBRANCH  28  31
ENDBRANCH  21  29
ENDBRANCH   1  25
TORSDOF 6
ENDMDL
MODEL 8
REMARK VINA RESULT:      -8.3      1.783      1.929
REMARK  Name = 
REMARK  6 active torsions:
REMARK  status: ('A' for Active; 'I' for Inactive)
REMARK    1  A    between atoms: C_2  and  C_29
REMARK    2  A    between atoms: N_3  and  C_4
REMARK    3  A    between atoms: C_8  and  C_9
REMARK    4  A    between atoms: C_9  and  C_11
REMARK    5  A    between atoms: C_15  and  C_16
REMARK    6  A    between atoms: C_17  and  C_18
REMARK                            x       y       z     vdW  Elec       q    Type
REMARK                         _______ _______ _______ _____ _____    ______ ____
ROOT
ATOM      1  C   UNL     1       1.359   8.530  20.691  0.00  0.00    +0.000 C 
ATOM      2  O   UNL     1       1.304   8.442  21.916  0.00  0.00    +0.000 OA
ENDROOT
BRANCH   1   3
ATOM      3  C   UNL     1       1.919   7.390  19.918  0.00  0.00    +0.000 A 
ATOM      4  C   UNL     1       2.214   7.612  18.568  0.00  0.00    +0.000 A 
ATOM      5  C   UNL     1       2.818   6.618  17.789  0.00  0.00    +0.000 A 
ATOM      6  C   UNL     1       3.133   5.382  18.385  0.00  0.00    +0.000 A 
ATOM      7  C   UNL     1       3.810   4.189  17.989  0.00  0.00    +0.000 A 
ATOM      8  N   UNL     1       3.807   3.279  18.976  0.00  0.00    +0.000 NA
ATOM      9  N   UNL     1       3.153   3.881  19.979  0.00  0.00    +0.000 N 
ATOM     10  C   UNL     1       2.761   5.163  19.708  0.00  0.00    +0.000 A 
ATOM     11  C   UNL     1       2.132   6.130  20.501  0.00  0.00    +0.000 A 
ATOM     12  H   UNL     1       3.037   3.368  20.846  0.00  0.00    +0.000 HD
BRANCH   7  13
ATOM     13  C   UNL     1       4.467   4.000  16.727  0.00  0.00    +0.000 C 
ATOM     14  C   UNL     1       5.419   4.820  16.247  0.00  0.00    +0.000 C 
BRANCH  14  15
ATOM     15  C   UNL     1       6.061   4.692  14.935  0.00  0.00    +0.000 A 
ATOM     16  C   UNL     1       5.473   3.887  13.962  0.00  0.00    +0.000 A 
ATOM     17  C   UNL     1       6.098   3.759  12.725  0.00  0.00    +0.000 A 
ATOM     18  C   UNL     1       7.288   4.433  12.494  0.00  0.00    +0.000 A 
ATOM     19  C   UNL     1       7.808   5.210  13.516  0.00  0.00    +0.000 A 
ATOM     20  N   UNL     1       7.224   5.353  14.728  0.00  0.00    +0.000 NA
ENDBRANCH  14  15
ENDBRANCH   7  13
ENDBRANCH   1   3
BRANCH   1  25
ATOM     21  C   UNL     1       0.963  12.148  19.547  0.00  0.00    +0.000 A 
ATOM     22  C   UNL     1      -0.249  12.039  18.858  0.00  0.00    +0.000 A 
ATOM     23  C   UNL     1      -0.898  10.811  18.741  0.00  0.00    +0.000 A 
ATOM     24  C   UNL     1      -0.354   9.678  19.338  0.00  0.00    +0.000 A 
ATOM     25  C   UNL     1       0.855   9.769  20.037  0.00  0.00    +0.000 A 
ATOM     26  C   UNL     1       1.542  10.993  20.089  0.00  0.00    +0.000 A 
BRANCH  21  29
ATOM     27  O   UNL     1       2.603  13.633  17.631  0.00  0.00    +0.000 OA
ATOM     28  C   UNL     1       2.408  14.012  18.779  0.00  0.00    +0.000 C 
ATOM     29  N   UNL     1       1.626  13.382  19.737  0.00  0.00    +0.000 N 
ATOM     30  H   UNL     1       1.366  13.916  20.557  0.00  0.00    +0.000 HD
BRANCH  28  31
ATOM     31  C   UNL     1       2.992  15.320  19.164  0.00  0.00    +0.000 A 
ATOM     32  C   UNL     1       4.126  15.756  18.473  0.00  0.00    +0.000 A 
ATOM     33  C   UNL     1       4.701  16.953  18.851  0.00  0.00    +0.000 A 
ATOM     34  N   UNL     1       4.225  17.716  19.855  0.00  0.00    +0.000 NA
ATOM     35  C   UNL     1       3.142  17.252  20.512  0.00  0.00    +0.000 A 
ATOM     36 CL   UNL     1       2.614  18.251  21.802  0.00  0.00    +0.000 Cl
ATOM     37  C   UNL     1       2.484  16.076  20.216  0.00  0.00    +0.000 A 
ENDBRANCH  28  31
ENDBRANCH  21  29
ENDBRANCH   1  25
TORSDOF 6
ENDMDL
MODEL 9
REMARK VINA RESULT:      -8.3      2.318      2.556
REMARK  Name = 
REMARK  6 active torsions:
REMARK  status: ('A' for Active; 'I' for Inactive)
REMARK    1  A    between atoms: C_2  and  C_29
REMARK    2  A    between atoms: N_3  and  C_4
REMARK    3  A    between atoms: C_8  and  C_9
REMARK    4  A    between atoms: C_9  and  C_11
REMARK    5  A    between atoms: C_15  and  C_16
REMARK    6  A    between atoms: C_17  and  C_18
REMARK                            x       y       z     vdW  Elec       q    Type
REMARK                         _______ _______ _______ _____ _____    ______ ____
ROOT
ATOM      1  C   UNL     1       0.616   9.377  20.069  0.00  0.00    +0.000 C 
ATOM      2  O   UNL     1      -0.051   9.009  21.034  0.00  0.00    +0.000 OA
ENDROOT
BRANCH   1   3
ATOM      3  C   UNL     1       1.544   8.407  19.432  0.00  0.00    +0.000 A 
ATOM      4  C   UNL     1       1.883   8.625  18.091  0.00  0.00    +0.000 A 
ATOM      5  C   UNL     1       2.812   7.807  17.438  0.00  0.00    +0.000 A 
ATOM      6  C   UNL     1       3.412   6.753  18.153  0.00  0.00    +0.000 A 
ATOM      7  C   UNL     1       4.433   5.787  17.902  0.00  0.00    +0.000 A 
ATOM      8  N   UNL     1       4.602   4.975  18.958  0.00  0.00    +0.000 NA
ATOM      9  N   UNL     1       3.717   5.418  19.861  0.00  0.00    +0.000 N 
ATOM     10  C   UNL     1       3.002   6.512  19.461  0.00  0.00    +0.000 A 
ATOM     11  C   UNL     1       2.055   7.299  20.128  0.00  0.00    +0.000 A 
ATOM     12  H   UNL     1       3.676   4.944  20.756  0.00  0.00    +0.000 HD
BRANCH   7  13
ATOM     13  C   UNL     1       5.226   5.725  16.708  0.00  0.00    +0.000 C 
ATOM     14  C   UNL     1       5.054   4.806  15.740  0.00  0.00    +0.000 C 
BRANCH  14  15
ATOM     15  C   UNL     1       5.888   4.674  14.542  0.00  0.00    +0.000 A 
ATOM     16  C   UNL     1       5.535   3.751  13.561  0.00  0.00    +0.000 A 
ATOM     17  C   UNL     1       6.341   3.623  12.433  0.00  0.00    +0.000 A 
ATOM     18  C   UNL     1       7.475   4.415  12.318  0.00  0.00    +0.000 A 
ATOM     19  C   UNL     1       7.757   5.305  13.341  0.00  0.00    +0.000 A 
ATOM     20  N   UNL     1       6.993   5.452  14.447  0.00  0.00    +0.000 NA
ENDBRANCH  14  15
ENDBRANCH   7  13
ENDBRANCH   1   3
BRANCH   1  25
ATOM     21  C   UNL     1       1.310  12.997  19.085  0.00  0.00    +0.000 A 
ATOM     22  C   UNL     1       0.014  13.396  18.747  0.00  0.00    +0.000 A 
ATOM     23  C   UNL     1      -1.050  12.496  18.805  0.00  0.00    +0.000 A 
ATOM     24  C   UNL     1      -0.831  11.189  19.230  0.00  0.00    +0.000 A 
ATOM     25  C   UNL     1       0.459  10.774  19.578  0.00  0.00    +0.000 A 
ATOM     26  C   UNL     1       1.538  11.663  19.448  0.00  0.00    +0.000 A 
BRANCH  21  29
ATOM     27  O   UNL     1       2.826  13.976  21.390  0.00  0.00    +0.000 OA
ATOM     28  C   UNL     1       3.059  14.325  20.239  0.00  0.00    +0.000 C 
ATOM     29  N   UNL     1       2.407  13.890  19.094  0.00  0.00    +0.000 N 
ATOM     30  H   UNL     1       2.847  14.079  18.203  0.00  0.00    +0.000 HD
BRANCH  28  31
ATOM     31  C   UNL     1       4.211  15.238  20.034  0.00  0.00    +0.000 A 
ATOM     32  C   UNL     1       4.823  15.241  18.779  0.00  0.00    +0.000 A 
ATOM     33  C   UNL     1       5.921  16.056  18.590  0.00  0.00    +0.000 A 
ATOM     34  N   UNL     1       6.432  16.843  19.558  0.00  0.00    +0.000 NA
ATOM     35  C   UNL     1       5.826  16.797  20.763  0.00  0.00    +0.000 A 
ATOM     36 CL   UNL     1       6.550  17.789  21.959  0.00  0.00    +0.000 Cl
ATOM     37  C   UNL     1       4.721  16.026  21.061  0.00  0.00    +0.000 A 
ENDBRANCH  28  31
ENDBRANCH  21  29
ENDBRANCH   1  25
TORSDOF 6
ENDMDL
