MODEL 1
REMARK VINA RESULT:      -6.2      0.000      0.000
REMARK  Name = 
REMARK  7 active torsions:
REMARK  status: ('A' for Active; 'I' for Inactive)
REMARK    1  A    between atoms: C_1  and  C_2
REMARK    2  A    between atoms: C_2  and  C_3
REMARK    3  A    between atoms: C_3  and  C_4
REMARK    4  A    between atoms: C_3  and  N_5
REMARK    5  A    between atoms: C_6  and  C_8
REMARK    6  A    between atoms: C_8  and  C_9
REMARK    7  A    between atoms: C_13  and  N_14
REMARK                            x       y       z     vdW  Elec       q    Type
REMARK                         _______ _______ _______ _____ _____    ______ ____
ROOT
ATOM      1  C   UNL     1       4.792   4.435  16.944  0.00  0.00    +0.000 C 
ENDROOT
BRANCH   1   2
ATOM      2  C   UNL     1       5.931   5.276  17.463  0.00  0.00    +0.000 A 
ATOM      3  C   UNL     1       6.300   6.452  16.799  0.00  0.00    +0.000 A 
ATOM      4  C   UNL     1       7.316   7.260  17.306  0.00  0.00    +0.000 A 
ATOM      5  C   UNL     1       7.963   6.903  18.490  0.00  0.00    +0.000 A 
ATOM      6  C   UNL     1       7.588   5.755  19.190  0.00  0.00    +0.000 A 
ATOM      7  C   UNL     1       6.606   4.921  18.643  0.00  0.00    +0.000 A 
BRANCH   6   8
ATOM      8  N   UNL     1       8.337   5.334  20.297  0.00  0.00    +0.000 N 
ATOM      9  H   UNL     1       8.076   5.799  21.160  0.00  0.00    +0.000 HD
ATOM     10  H   UNL     1       8.383   4.326  20.402  0.00  0.00    +0.000 HD
ENDBRANCH   6   8
ENDBRANCH   1   2
BRANCH   1  12
ATOM     11  N   UNL     1       2.918   3.611  18.275  0.00  0.00    +0.000 N 
ATOM     12  C   UNL     1       3.475   4.702  17.645  0.00  0.00    +0.000 C 
ATOM     13  O   UNL     1       2.958   5.814  17.656  0.00  0.00    +0.000 OA
ATOM     14  H   UNL     1       3.323   2.695  18.121  0.00  0.00    +0.000 HD
BRANCH  11  15
ATOM     15  C   UNL     1       1.642   3.707  18.972  0.00  0.00    +0.000 C 
ATOM     16  C   UNL     1       0.818   2.435  18.767  0.00  0.00    +0.000 C 
BRANCH  15  18
ATOM     17  C   UNL     1       1.676   5.463  20.805  0.00  0.00    +0.000 C 
ATOM     18  C   UNL     1       1.856   3.989  20.464  0.00  0.00    +0.000 C 
ENDBRANCH  15  18
ENDBRANCH  11  15
ENDBRANCH   1  12
TORSDOF 5
ENDMDL
MODEL 2
REMARK VINA RESULT:      -6.2      2.409      2.752
REMARK  Name = 
REMARK  7 active torsions:
REMARK  status: ('A' for Active; 'I' for Inactive)
REMARK    1  A    between atoms: C_1  and  C_2
REMARK    2  A    between atoms: C_2  and  C_3
REMARK    3  A    between atoms: C_3  and  C_4
REMARK    4  A    between atoms: C_3  and  N_5
REMARK    5  A    between atoms: C_6  and  C_8
REMARK    6  A    between atoms: C_8  and  C_9
REMARK    7  A    between atoms: C_13  and  N_14
REMARK                            x       y       z     vdW  Elec       q    Type
REMARK                         _______ _______ _______ _____ _____    ______ ____
ROOT
ATOM      1  C   UNL     1       4.033   2.736  17.565  0.00  0.00    +0.000 C 
ENDROOT
BRANCH   1   2
ATOM      2  C   UNL     1       4.556   4.065  17.083  0.00  0.00    +0.000 A 
ATOM      3  C   UNL     1       3.920   5.255  17.461  0.00  0.00    +0.000 A 
ATOM      4  C   UNL     1       4.432   6.487  17.062  0.00  0.00    +0.000 A 
ATOM      5  C   UNL     1       5.593   6.540  16.290  0.00  0.00    +0.000 A 
ATOM      6  C   UNL     1       6.265   5.371  15.931  0.00  0.00    +0.000 A 
ATOM      7  C   UNL     1       5.712   4.137  16.289  0.00  0.00    +0.000 A 
BRANCH   6   8
ATOM      8  N   UNL     1       7.346   5.431  15.041  0.00  0.00    +0.000 N 
ATOM      9  H   UNL     1       8.250   5.433  15.503  0.00  0.00    +0.000 HD
ATOM     10  H   UNL     1       7.300   4.747  14.293  0.00  0.00    +0.000 HD
ENDBRANCH   6   8
ENDBRANCH   1   2
BRANCH   1  12
ATOM     11  N   UNL     1       2.680   2.928  19.589  0.00  0.00    +0.000 N 
ATOM     12  C   UNL     1       2.666   2.825  18.216  0.00  0.00    +0.000 C 
ATOM     13  O   UNL     1       1.631   2.816  17.558  0.00  0.00    +0.000 OA
ATOM     14  H   UNL     1       3.556   2.799  20.082  0.00  0.00    +0.000 HD
BRANCH  11  15
ATOM     15  C   UNL     1       1.444   2.999  20.357  0.00  0.00    +0.000 C 
ATOM     16  C   UNL     1       1.668   2.506  21.787  0.00  0.00    +0.000 C 
BRANCH  15  18
ATOM     17  C   UNL     1       1.952   5.472  20.627  0.00  0.00    +0.000 C 
ATOM     18  C   UNL     1       0.879   4.425  20.350  0.00  0.00    +0.000 C 
ENDBRANCH  15  18
ENDBRANCH  11  15
ENDBRANCH   1  12
TORSDOF 5
ENDMDL
MODEL 3
REMARK VINA RESULT:      -6.2      2.463      3.220
REMARK  Name = 
REMARK  7 active torsions:
REMARK  status: ('A' for Active; 'I' for Inactive)
REMARK    1  A    between atoms: C_1  and  C_2
REMARK    2  A    between atoms: C_2  and  C_3
REMARK    3  A    between atoms: C_3  and  C_4
REMARK    4  A    between atoms: C_3  and  N_5
REMARK    5  A    between atoms: C_6  and  C_8
REMARK    6  A    between atoms: C_8  and  C_9
REMARK    7  A    between atoms: C_13  and  N_14
REMARK                            x       y       z     vdW  Elec       q    Type
REMARK                         _______ _______ _______ _____ _____    ______ ____
ROOT
ATOM      1  C   UNL     1       5.558   4.549  19.190  0.00  0.00    +0.000 C 
ENDROOT
BRANCH   1   2
ATOM      2  C   UNL     1       5.479   4.952  17.739  0.00  0.00    +0.000 A 
ATOM      3  C   UNL     1       5.004   6.221  17.383  0.00  0.00    +0.000 A 
ATOM      4  C   UNL     1       4.980   6.616  16.048  0.00  0.00    +0.000 A 
ATOM      5  C   UNL     1       5.444   5.750  15.057  0.00  0.00    +0.000 A 
ATOM      6  C   UNL     1       5.956   4.495  15.390  0.00  0.00    +0.000 A 
ATOM      7  C   UNL     1       5.923   4.085  16.727  0.00  0.00    +0.000 A 
BRANCH   6   8
ATOM      8  N   UNL     1       6.285   3.583  14.379  0.00  0.00    +0.000 N 
ATOM      9  H   UNL     1       6.949   3.950  13.704  0.00  0.00    +0.000 HD
ATOM     10  H   UNL     1       6.555   2.667  14.723  0.00  0.00    +0.000 HD
ENDBRANCH   6   8
ENDBRANCH   1   2
BRANCH   1  12
ATOM     11  N   UNL     1       3.243   3.837  19.499  0.00  0.00    +0.000 N 
ATOM     12  C   UNL     1       4.567   3.467  19.571  0.00  0.00    +0.000 C 
ATOM     13  O   UNL     1       4.929   2.344  19.906  0.00  0.00    +0.000 OA
ATOM     14  H   UNL     1       3.013   4.811  19.342  0.00  0.00    +0.000 HD
BRANCH  11  15
ATOM     15  C   UNL     1       2.176   2.911  19.856  0.00  0.00    +0.000 C 
ATOM     16  C   UNL     1       1.619   3.239  21.242  0.00  0.00    +0.000 C 
BRANCH  15  18
ATOM     17  C   UNL     1       1.323   3.955  17.705  0.00  0.00    +0.000 C 
ATOM     18  C   UNL     1       1.064   2.927  18.800  0.00  0.00    +0.000 C 
ENDBRANCH  15  18
ENDBRANCH  11  15
ENDBRANCH   1  12
TORSDOF 5
ENDMDL
MODEL 4
REMARK VINA RESULT:      -6.1      2.194      5.685
REMARK  Name = 
REMARK  7 active torsions:
REMARK  status: ('A' for Active; 'I' for Inactive)
REMARK    1  A    between atoms: C_1  and  C_2
REMARK    2  A    between atoms: C_2  and  C_3
REMARK    3  A    between atoms: C_3  and  C_4
REMARK    4  A    between atoms: C_3  and  N_5
REMARK    5  A    between atoms: C_6  and  C_8
REMARK    6  A    between atoms: C_8  and  C_9
REMARK    7  A    between atoms: C_13  and  N_14
REMARK                            x       y       z     vdW  Elec       q    Type
REMARK                         _______ _______ _______ _____ _____    ______ ____
ROOT
ATOM      1  C   UNL     1       4.267   5.433  19.670  0.00  0.00    +0.000 C 
ENDROOT
BRANCH   1   2
ATOM      2  C   UNL     1       3.494   4.262  19.119  0.00  0.00    +0.000 A 
ATOM      3  C   UNL     1       2.176   4.429  18.677  0.00  0.00    +0.000 A 
ATOM      4  C   UNL     1       1.478   3.361  18.118  0.00  0.00    +0.000 A 
ATOM      5  C   UNL     1       2.098   2.119  17.984  0.00  0.00    +0.000 A 
ATOM      6  C   UNL     1       3.423   1.936  18.382  0.00  0.00    +0.000 A 
ATOM      7  C   UNL     1       4.097   2.999  18.994  0.00  0.00    +0.000 A 
BRANCH   6   8
ATOM      8  N   UNL     1       3.986   0.653  18.373  0.00  0.00    +0.000 N 
ATOM      9  H   UNL     1       4.961   0.642  18.090  0.00  0.00    +0.000 HD
ATOM     10  H   UNL     1       3.829   0.129  19.227  0.00  0.00    +0.000 HD
ENDBRANCH   6   8
ENDBRANCH   1   2
BRANCH   1  12
ATOM     11  N   UNL     1       5.814   5.898  17.838  0.00  0.00    +0.000 N 
ATOM     12  C   UNL     1       5.691   5.515  19.155  0.00  0.00    +0.000 C 
ATOM     13  O   UNL     1       6.655   5.268  19.872  0.00  0.00    +0.000 OA
ATOM     14  H   UNL     1       4.981   5.961  17.266  0.00  0.00    +0.000 HD
BRANCH  11  15
ATOM     15  C   UNL     1       7.118   5.999  17.197  0.00  0.00    +0.000 C 
ATOM     16  C   UNL     1       7.130   5.233  15.874  0.00  0.00    +0.000 C 
BRANCH  15  18
ATOM     17  C   UNL     1       8.191   8.066  18.209  0.00  0.00    +0.000 C 
ATOM     18  C   UNL     1       7.508   7.467  16.985  0.00  0.00    +0.000 C 
ENDBRANCH  15  18
ENDBRANCH  11  15
ENDBRANCH   1  12
TORSDOF 5
ENDMDL
MODEL 5
REMARK VINA RESULT:      -6.1      1.944      5.598
REMARK  Name = 
REMARK  7 active torsions:
REMARK  status: ('A' for Active; 'I' for Inactive)
REMARK    1  A    between atoms: C_1  and  C_2
REMARK    2  A    between atoms: C_2  and  C_3
REMARK    3  A    between atoms: C_3  and  C_4
REMARK    4  A    between atoms: C_3  and  N_5
REMARK    5  A    between atoms: C_6  and  C_8
REMARK    6  A    between atoms: C_8  and  C_9
REMARK    7  A    between atoms: C_13  and  N_14
REMARK                            x       y       z     vdW  Elec       q    Type
REMARK                         _______ _______ _______ _____ _____    ______ ____
ROOT
ATOM      1  C   UNL     1       2.567   6.663  19.449  0.00  0.00    +0.000 C 
ENDROOT
BRANCH   1   2
ATOM      2  C   UNL     1       2.114   5.226  19.510  0.00  0.00    +0.000 A 
ATOM      3  C   UNL     1       1.748   4.550  18.339  0.00  0.00    +0.000 A 
ATOM      4  C   UNL     1       1.381   3.207  18.385  0.00  0.00    +0.000 A 
ATOM      5  C   UNL     1       1.390   2.524  19.602  0.00  0.00    +0.000 A 
ATOM      6  C   UNL     1       1.787   3.166  20.776  0.00  0.00    +0.000 A 
ATOM      7  C   UNL     1       2.099   4.529  20.729  0.00  0.00    +0.000 A 
BRANCH   6   8
ATOM      8  N   UNL     1       1.657   2.512  22.009  0.00  0.00    +0.000 N 
ATOM      9  H   UNL     1       1.952   1.541  21.984  0.00  0.00    +0.000 HD
ATOM     10  H   UNL     1       2.068   3.017  22.787  0.00  0.00    +0.000 HD
ENDBRANCH   6   8
ENDBRANCH   1   2
BRANCH   1  12
ATOM     11  N   UNL     1       4.547   6.326  18.060  0.00  0.00    +0.000 N 
ATOM     12  C   UNL     1       3.352   6.997  18.196  0.00  0.00    +0.000 C 
ATOM     13  O   UNL     1       2.938   7.799  17.365  0.00  0.00    +0.000 OA
ATOM     14  H   UNL     1       4.893   5.778  18.839  0.00  0.00    +0.000 HD
BRANCH  11  15
ATOM     15  C   UNL     1       5.422   6.558  16.919  0.00  0.00    +0.000 C 
ATOM     16  C   UNL     1       6.882   6.640  17.366  0.00  0.00    +0.000 C 
BRANCH  15  18
ATOM     17  C   UNL     1       4.932   4.108  16.473  0.00  0.00    +0.000 C 
ATOM     18  C   UNL     1       5.233   5.469  15.857  0.00  0.00    +0.000 C 
ENDBRANCH  15  18
ENDBRANCH  11  15
ENDBRANCH   1  12
TORSDOF 5
ENDMDL
MODEL 6
REMARK VINA RESULT:      -6.0      1.855      5.645
REMARK  Name = 
REMARK  7 active torsions:
REMARK  status: ('A' for Active; 'I' for Inactive)
REMARK    1  A    between atoms: C_1  and  C_2
REMARK    2  A    between atoms: C_2  and  C_3
REMARK    3  A    between atoms: C_3  and  C_4
REMARK    4  A    between atoms: C_3  and  N_5
REMARK    5  A    between atoms: C_6  and  C_8
REMARK    6  A    between atoms: C_8  and  C_9
REMARK    7  A    between atoms: C_13  and  N_14
REMARK                            x       y       z     vdW  Elec       q    Type
REMARK                         _______ _______ _______ _____ _____    ______ ____
ROOT
ATOM      1  C   UNL     1       2.855   6.478  19.007  0.00  0.00    +0.000 C 
ENDROOT
BRANCH   1   2
ATOM      2  C   UNL     1       2.269   5.109  19.241  0.00  0.00    +0.000 A 
ATOM      3  C   UNL     1       1.759   4.366  18.169  0.00  0.00    +0.000 A 
ATOM      4  C   UNL     1       1.266   3.079  18.374  0.00  0.00    +0.000 A 
ATOM      5  C   UNL     1       1.291   2.519  19.651  0.00  0.00    +0.000 A 
ATOM      6  C   UNL     1       1.828   3.226  20.729  0.00  0.00    +0.000 A 
ATOM      7  C   UNL     1       2.268   4.538  20.524  0.00  0.00    +0.000 A 
BRANCH   6   8
ATOM      8  N   UNL     1       1.719   2.710  22.027  0.00  0.00    +0.000 N 
ATOM      9  H   UNL     1       2.584   2.312  22.378  0.00  0.00    +0.000 HD
ATOM     10  H   UNL     1       1.296   3.352  22.690  0.00  0.00    +0.000 HD
ENDBRANCH   6   8
ENDBRANCH   1   2
BRANCH   1  12
ATOM     11  N   UNL     1       5.082   5.685  18.393  0.00  0.00    +0.000 N 
ATOM     12  C   UNL     1       4.017   6.480  18.033  0.00  0.00    +0.000 C 
ATOM     13  O   UNL     1       3.994   7.136  16.996  0.00  0.00    +0.000 OA
ATOM     14  H   UNL     1       5.095   5.272  19.318  0.00  0.00    +0.000 HD
BRANCH  11  15
ATOM     15  C   UNL     1       6.279   5.602  17.568  0.00  0.00    +0.000 C 
ATOM     16  C   UNL     1       7.532   5.531  18.441  0.00  0.00    +0.000 C 
BRANCH  15  18
ATOM     17  C   UNL     1       6.155   4.825  15.154  0.00  0.00    +0.000 C 
ATOM     18  C   UNL     1       6.204   4.401  16.617  0.00  0.00    +0.000 C 
ENDBRANCH  15  18
ENDBRANCH  11  15
ENDBRANCH   1  12
TORSDOF 5
ENDMDL
MODEL 7
REMARK VINA RESULT:      -6.0      3.784      6.003
REMARK  Name = 
REMARK  7 active torsions:
REMARK  status: ('A' for Active; 'I' for Inactive)
REMARK    1  A    between atoms: C_1  and  C_2
REMARK    2  A    between atoms: C_2  and  C_3
REMARK    3  A    between atoms: C_3  and  C_4
REMARK    4  A    between atoms: C_3  and  N_5
REMARK    5  A    between atoms: C_6  and  C_8
REMARK    6  A    between atoms: C_8  and  C_9
REMARK    7  A    between atoms: C_13  and  N_14
REMARK                            x       y       z     vdW  Elec       q    Type
REMARK                         _______ _______ _______ _____ _____    ______ ____
ROOT
ATOM      1  C   UNL     1       6.927   4.387  15.808  0.00  0.00    +0.000 C 
ENDROOT
BRANCH   1   2
ATOM      2  C   UNL     1       5.656   4.785  16.514  0.00  0.00    +0.000 A 
ATOM      3  C   UNL     1       5.403   6.131  16.808  0.00  0.00    +0.000 A 
ATOM      4  C   UNL     1       4.205   6.508  17.412  0.00  0.00    +0.000 A 
ATOM      5  C   UNL     1       3.245   5.543  17.716  0.00  0.00    +0.000 A 
ATOM      6  C   UNL     1       3.458   4.200  17.399  0.00  0.00    +0.000 A 
ATOM      7  C   UNL     1       4.687   3.824  16.845  0.00  0.00    +0.000 A 
BRANCH   6   8
ATOM      8  N   UNL     1       2.551   3.226  17.836  0.00  0.00    +0.000 N 
ATOM      9  H   UNL     1       2.804   2.807  18.724  0.00  0.00    +0.000 HD
ATOM     10  H   UNL     1       1.583   3.528  17.817  0.00  0.00    +0.000 HD
ENDBRANCH   6   8
ENDBRANCH   1   2
BRANCH   1  12
ATOM     11  N   UNL     1       6.131   3.462  13.693  0.00  0.00    +0.000 N 
ATOM     12  C   UNL     1       6.834   4.480  14.297  0.00  0.00    +0.000 C 
ATOM     13  O   UNL     1       7.342   5.405  13.672  0.00  0.00    +0.000 OA
ATOM     14  H   UNL     1       5.849   2.663  14.248  0.00  0.00    +0.000 HD
BRANCH  11  15
ATOM     15  C   UNL     1       5.975   3.404  12.245  0.00  0.00    +0.000 C 
ATOM     16  C   UNL     1       6.221   1.984  11.733  0.00  0.00    +0.000 C 
BRANCH  15  18
ATOM     17  C   UNL     1       3.854   2.906  10.942  0.00  0.00    +0.000 C 
ATOM     18  C   UNL     1       4.589   3.908  11.825  0.00  0.00    +0.000 C 
ENDBRANCH  15  18
ENDBRANCH  11  15
ENDBRANCH   1  12
TORSDOF 5
ENDMDL
MODEL 8
REMARK VINA RESULT:      -6.0      1.382      1.749
REMARK  Name = 
REMARK  7 active torsions:
REMARK  status: ('A' for Active; 'I' for Inactive)
REMARK    1  A    between atoms: C_1  and  C_2
REMARK    2  A    between atoms: C_2  and  C_3
REMARK    3  A    between atoms: C_3  and  C_4
REMARK    4  A    between atoms: C_3  and  N_5
REMARK    5  A    between atoms: C_6  and  C_8
REMARK    6  A    between atoms: C_8  and  C_9
REMARK    7  A    between atoms: C_13  and  N_14
REMARK                            x       y       z     vdW  Elec       q    Type
REMARK                         _______ _______ _______ _____ _____    ______ ____
ROOT
ATOM      1  C   UNL     1       3.663   6.351  17.513  0.00  0.00    +0.000 C 
ENDROOT
BRANCH   1   2
ATOM      2  C   UNL     1       5.032   5.724  17.588  0.00  0.00    +0.000 A 
ATOM      3  C   UNL     1       5.548   5.020  16.493  0.00  0.00    +0.000 A 
ATOM      4  C   UNL     1       6.834   4.486  16.540  0.00  0.00    +0.000 A 
ATOM      5  C   UNL     1       7.619   4.661  17.679  0.00  0.00    +0.000 A 
ATOM      6  C   UNL     1       7.141   5.390  18.769  0.00  0.00    +0.000 A 
ATOM      7  C   UNL     1       5.829   5.874  18.735  0.00  0.00    +0.000 A 
BRANCH   6   8
ATOM      8  N   UNL     1       7.882   5.438  19.958  0.00  0.00    +0.000 N 
ATOM      9  H   UNL     1       8.661   4.788  19.975  0.00  0.00    +0.000 HD
ATOM     10  H   UNL     1       8.159   6.375  20.231  0.00  0.00    +0.000 HD
ENDBRANCH   6   8
ENDBRANCH   1   2
BRANCH   1  12
ATOM     11  N   UNL     1       2.374   4.648  18.697  0.00  0.00    +0.000 N 
ATOM     12  C   UNL     1       2.759   5.970  18.669  0.00  0.00    +0.000 C 
ATOM     13  O   UNL     1       2.413   6.785  19.518  0.00  0.00    +0.000 OA
ATOM     14  H   UNL     1       2.585   4.059  17.901  0.00  0.00    +0.000 HD
BRANCH  11  15
ATOM     15  C   UNL     1       1.488   4.139  19.736  0.00  0.00    +0.000 C 
ATOM     16  C   UNL     1       0.758   2.884  19.254  0.00  0.00    +0.000 C 
BRANCH  15  18
ATOM     17  C   UNL     1       1.763   2.614  21.747  0.00  0.00    +0.000 C 
ATOM     18  C   UNL     1       2.266   3.860  21.027  0.00  0.00    +0.000 C 
ENDBRANCH  15  18
ENDBRANCH  11  15
ENDBRANCH   1  12
TORSDOF 5
ENDMDL
MODEL 9
REMARK VINA RESULT:      -6.0      1.300      1.608
REMARK  Name = 
REMARK  7 active torsions:
REMARK  status: ('A' for Active; 'I' for Inactive)
REMARK    1  A    between atoms: C_1  and  C_2
REMARK    2  A    between atoms: C_2  and  C_3
REMARK    3  A    between atoms: C_3  and  C_4
REMARK    4  A    between atoms: C_3  and  N_5
REMARK    5  A    between atoms: C_6  and  C_8
REMARK    6  A    between atoms: C_8  and  C_9
REMARK    7  A    between atoms: C_13  and  N_14
REMARK                            x       y       z     vdW  Elec       q    Type
REMARK                         _______ _______ _______ _____ _____    ______ ____
ROOT
ATOM      1  C   UNL     1       4.068   3.121  17.385  0.00  0.00    +0.000 C 
ENDROOT
BRANCH   1   2
ATOM      2  C   UNL     1       4.980   4.317  17.485  0.00  0.00    +0.000 A 
ATOM      3  C   UNL     1       4.869   5.369  16.567  0.00  0.00    +0.000 A 
ATOM      4  C   UNL     1       5.674   6.499  16.689  0.00  0.00    +0.000 A 
ATOM      5  C   UNL     1       6.590   6.592  17.737  0.00  0.00    +0.000 A 
ATOM      6  C   UNL     1       6.693   5.573  18.685  0.00  0.00    +0.000 A 
ATOM      7  C   UNL     1       5.921   4.418  18.523  0.00  0.00    +0.000 A 
BRANCH   6   8
ATOM      8  N   UNL     1       7.711   5.614  19.648  0.00  0.00    +0.000 N 
ATOM      9  H   UNL     1       8.067   4.698  19.898  0.00  0.00    +0.000 HD
ATOM     10  H   UNL     1       8.455   6.269  19.431  0.00  0.00    +0.000 HD
ENDBRANCH   6   8
ENDBRANCH   1   2
BRANCH   1  12
ATOM     11  N   UNL     1       2.687   3.362  19.385  0.00  0.00    +0.000 N 
ATOM     12  C   UNL     1       2.704   3.348  18.008  0.00  0.00    +0.000 C 
ATOM     13  O   UNL     1       1.698   3.517  17.326  0.00  0.00    +0.000 OA
ATOM     14  H   UNL     1       3.522   3.088  19.889  0.00  0.00    +0.000 HD
BRANCH  11  15
ATOM     15  C   UNL     1       1.446   3.548  20.126  0.00  0.00    +0.000 C 
ATOM     16  C   UNL     1       1.452   2.711  21.406  0.00  0.00    +0.000 C 
BRANCH  15  18
ATOM     17  C   UNL     1       2.485   5.859  20.281  0.00  0.00    +0.000 C 
ATOM     18  C   UNL     1       1.216   5.031  20.441  0.00  0.00    +0.000 C 
ENDBRANCH  15  18
ENDBRANCH  11  15
ENDBRANCH   1  12
TORSDOF 5
ENDMDL
