MODEL 1
REMARK VINA RESULT:      -7.8      0.000      0.000
REMARK  Name = 
REMARK  11 active torsions:
REMARK  status: ('A' for Active; 'I' for Inactive)
REMARK    1  A    between atoms: C_1  and  C_2
REMARK    2  A    between atoms: C_6  and  O_7
REMARK    3  A    between atoms: O_7  and  C_8
REMARK    4  A    between atoms: C_8  and  C_9
REMARK    5  A    between atoms: C_9  and  O_10
REMARK    6  A    between atoms: C_9  and  C_11
REMARK    7  A    between atoms: C_11  and  N_12
REMARK    8  A    between atoms: N_12  and  C_13
REMARK    9  A    between atoms: C_13  and  C_14
REMARK   10  A    between atoms: C_13  and  C_15
REMARK   11  A    between atoms: C_21  and  C_22
REMARK                            x       y       z     vdW  Elec       q    Type
REMARK                         _______ _______ _______ _____ _____    ______ ____
ROOT
ATOM      1  C   UNL     1       0.214   8.387  21.634  0.00  0.00    +0.000 C 
ATOM      2  C   UNL     1       1.097   8.359  20.418  0.00  0.00    +0.000 A 
ATOM      3  O   UNL     1       1.958   7.279  20.448  0.00  0.00    +0.000 OA
ATOM      4  C   UNL     1       2.746   7.028  19.365  0.00  0.00    +0.000 A 
ATOM      5  C   UNL     1       3.484   5.847  19.399  0.00  0.00    +0.000 A 
ATOM      6  C   UNL     1       4.300   5.493  18.325  0.00  0.00    +0.000 A 
ATOM      7  C   UNL     1       4.399   6.355  17.231  0.00  0.00    +0.000 A 
ATOM      8  C   UNL     1       3.663   7.546  17.198  0.00  0.00    +0.000 A 
ATOM      9  C   UNL     1       2.823   7.871  18.264  0.00  0.00    +0.000 A 
ATOM     10  C   UNL     1       1.986   9.079  18.259  0.00  0.00    +0.000 A 
ATOM     11  O   UNL     1       2.053   9.876  17.323  0.00  0.00    +0.000 OA
ATOM     12  C   UNL     1       1.052   9.262  19.411  0.00  0.00    +0.000 A 
ENDROOT
BRANCH  12  13
ATOM     13  C   UNL     1       0.113  10.395  19.418  0.00  0.00    +0.000 A 
ATOM     14  C   UNL     1       0.438  11.587  20.080  0.00  0.00    +0.000 A 
ATOM     15  C   UNL     1      -0.457  12.659  20.088  0.00  0.00    +0.000 A 
ATOM     16  C   UNL     1      -1.682  12.553  19.430  0.00  0.00    +0.000 A 
ATOM     17  C   UNL     1      -2.017  11.371  18.771  0.00  0.00    +0.000 A 
ATOM     18  C   UNL     1      -1.128  10.294  18.771  0.00  0.00    +0.000 A 
ENDBRANCH  12  13
BRANCH   6  19
ATOM     19  O   UNL     1       5.017   4.328  18.238  0.00  0.00    +0.000 OA
BRANCH  19  20
ATOM     20  C   UNL     1       4.508   3.236  19.019  0.00  0.00    +0.000 C 
BRANCH  20  21
ATOM     21  C   UNL     1       3.748   2.256  18.117  0.00  0.00    +0.000 C 
BRANCH  21  22
ATOM     22  O   UNL     1       4.102   0.904  18.430  0.00  0.00    +0.000 OA
ATOM     23  H   UNL     1       5.056   0.903  18.632  0.00  0.00    +0.000 HD
ENDBRANCH  21  22
BRANCH  21  24
ATOM     24  C   UNL     1       2.233   2.449  18.265  0.00  0.00    +0.000 C 
BRANCH  24  25
ATOM     25  N   UNL     1       1.704   1.658  19.379  0.00  0.00    +0.000 NA
ATOM     26  H   UNL     1       2.431   1.034  19.731  0.00  0.00    +0.000 HD
BRANCH  25  27
ATOM     27  C   UNL     1       1.182   2.475  20.478  0.00  0.00    +0.000 C 
ATOM     28  C   UNL     1       2.205   2.664  21.601  0.00  0.00    +0.000 C 
ATOM     29  C   UNL     1       0.789   3.840  19.910  0.00  0.00    +0.000 C 
ENDBRANCH  25  27
ENDBRANCH  24  25
ENDBRANCH  21  24
ENDBRANCH  20  21
ENDBRANCH  19  20
ENDBRANCH   6  19
TORSDOF 8
ENDMDL
MODEL 2
REMARK VINA RESULT:      -7.4      0.530      1.266
REMARK  Name = 
REMARK  11 active torsions:
REMARK  status: ('A' for Active; 'I' for Inactive)
REMARK    1  A    between atoms: C_1  and  C_2
REMARK    2  A    between atoms: C_6  and  O_7
REMARK    3  A    between atoms: O_7  and  C_8
REMARK    4  A    between atoms: C_8  and  C_9
REMARK    5  A    between atoms: C_9  and  O_10
REMARK    6  A    between atoms: C_9  and  C_11
REMARK    7  A    between atoms: C_11  and  N_12
REMARK    8  A    between atoms: N_12  and  C_13
REMARK    9  A    between atoms: C_13  and  C_14
REMARK   10  A    between atoms: C_13  and  C_15
REMARK   11  A    between atoms: C_21  and  C_22
REMARK                            x       y       z     vdW  Elec       q    Type
REMARK                         _______ _______ _______ _____ _____    ______ ____
ROOT
ATOM      1  C   UNL     1      -0.018   8.696  21.805  0.00  0.00    +0.000 C 
ATOM      2  C   UNL     1       0.861   8.582  20.591  0.00  0.00    +0.000 A 
ATOM      3  O   UNL     1       1.672   7.465  20.661  0.00  0.00    +0.000 OA
ATOM      4  C   UNL     1       2.445   7.139  19.588  0.00  0.00    +0.000 A 
ATOM      5  C   UNL     1       3.129   5.927  19.667  0.00  0.00    +0.000 A 
ATOM      6  C   UNL     1       3.926   5.496  18.607  0.00  0.00    +0.000 A 
ATOM      7  C   UNL     1       4.062   6.311  17.480  0.00  0.00    +0.000 A 
ATOM      8  C   UNL     1       3.380   7.533  17.403  0.00  0.00    +0.000 A 
ATOM      9  C   UNL     1       2.558   7.935  18.457  0.00  0.00    +0.000 A 
ATOM     10  C   UNL     1       1.777   9.179  18.406  0.00  0.00    +0.000 A 
ATOM     11  O   UNL     1       1.879   9.936  17.441  0.00  0.00    +0.000 OA
ATOM     12  C   UNL     1       0.855   9.448  19.551  0.00  0.00    +0.000 A 
ENDROOT
BRANCH  12  13
ATOM     13  C   UNL     1      -0.032  10.622  19.515  0.00  0.00    +0.000 A 
ATOM     14  C   UNL     1      -1.291  10.546  18.903  0.00  0.00    +0.000 A 
ATOM     15  C   UNL     1      -2.129  11.662  18.868  0.00  0.00    +0.000 A 
ATOM     16  C   UNL     1      -1.721  12.862  19.449  0.00  0.00    +0.000 A 
ATOM     17  C   UNL     1      -0.469  12.950  20.058  0.00  0.00    +0.000 A 
ATOM     18  C   UNL     1       0.375  11.837  20.084  0.00  0.00    +0.000 A 
ENDBRANCH  12  13
BRANCH   6  19
ATOM     19  O   UNL     1       4.588   4.298  18.563  0.00  0.00    +0.000 OA
BRANCH  19  20
ATOM     20  C   UNL     1       4.347   3.506  17.390  0.00  0.00    +0.000 C 
BRANCH  20  21
ATOM     21  C   UNL     1       3.802   2.129  17.790  0.00  0.00    +0.000 C 
BRANCH  21  22
ATOM     22  O   UNL     1       4.433   1.665  18.988  0.00  0.00    +0.000 OA
ATOM     23  H   UNL     1       5.395   1.699  18.830  0.00  0.00    +0.000 HD
ENDBRANCH  21  22
BRANCH  21  24
ATOM     24  C   UNL     1       2.281   2.187  17.987  0.00  0.00    +0.000 C 
BRANCH  24  25
ATOM     25  N   UNL     1       1.906   1.781  19.343  0.00  0.00    +0.000 NA
ATOM     26  H   UNL     1       2.580   1.100  19.694  0.00  0.00    +0.000 HD
BRANCH  25  27
ATOM     27  C   UNL     1       1.804   2.902  20.280  0.00  0.00    +0.000 C 
ATOM     28  C   UNL     1       0.514   3.704  20.093  0.00  0.00    +0.000 C 
ATOM     29  C   UNL     1       1.854   2.340  21.702  0.00  0.00    +0.000 C 
ENDBRANCH  25  27
ENDBRANCH  24  25
ENDBRANCH  21  24
ENDBRANCH  20  21
ENDBRANCH  19  20
ENDBRANCH   6  19
TORSDOF 8
ENDMDL
MODEL 3
REMARK VINA RESULT:      -7.4      1.690      2.528
REMARK  Name = 
REMARK  11 active torsions:
REMARK  status: ('A' for Active; 'I' for Inactive)
REMARK    1  A    between atoms: C_1  and  C_2
REMARK    2  A    between atoms: C_6  and  O_7
REMARK    3  A    between atoms: O_7  and  C_8
REMARK    4  A    between atoms: C_8  and  C_9
REMARK    5  A    between atoms: C_9  and  O_10
REMARK    6  A    between atoms: C_9  and  C_11
REMARK    7  A    between atoms: C_11  and  N_12
REMARK    8  A    between atoms: N_12  and  C_13
REMARK    9  A    between atoms: C_13  and  C_14
REMARK   10  A    between atoms: C_13  and  C_15
REMARK   11  A    between atoms: C_21  and  C_22
REMARK                            x       y       z     vdW  Elec       q    Type
REMARK                         _______ _______ _______ _____ _____    ______ ____
ROOT
ATOM      1  C   UNL     1      -0.127   9.625  23.234  0.00  0.00    +0.000 C 
ATOM      2  C   UNL     1       0.365   9.733  21.817  0.00  0.00    +0.000 A 
ATOM      3  O   UNL     1       1.084   8.611  21.449  0.00  0.00    +0.000 OA
ATOM      4  C   UNL     1       1.500   8.484  20.158  0.00  0.00    +0.000 A 
ATOM      5  C   UNL     1       2.093   7.270  19.817  0.00  0.00    +0.000 A 
ATOM      6  C   UNL     1       2.528   7.038  18.513  0.00  0.00    +0.000 A 
ATOM      7  C   UNL     1       2.398   8.052  17.560  0.00  0.00    +0.000 A 
ATOM      8  C   UNL     1       1.808   9.276  17.903  0.00  0.00    +0.000 A 
ATOM      9  C   UNL     1       1.346   9.481  19.204  0.00  0.00    +0.000 A 
ATOM     10  C   UNL     1       0.670  10.723  19.605  0.00  0.00    +0.000 A 
ATOM     11  O   UNL     1       0.549  11.649  18.803  0.00  0.00    +0.000 OA
ATOM     12  C   UNL     1       0.128  10.781  20.996  0.00  0.00    +0.000 A 
ENDROOT
BRANCH  12  13
ATOM     13  C   UNL     1      -0.650  11.954  21.429  0.00  0.00    +0.000 A 
ATOM     14  C   UNL     1      -0.004  13.089  21.936  0.00  0.00    +0.000 A 
ATOM     15  C   UNL     1      -0.745  14.198  22.350  0.00  0.00    +0.000 A 
ATOM     16  C   UNL     1      -2.136  14.186  22.256  0.00  0.00    +0.000 A 
ATOM     17  C   UNL     1      -2.789  13.060  21.756  0.00  0.00    +0.000 A 
ATOM     18  C   UNL     1      -2.050  11.945  21.351  0.00  0.00    +0.000 A 
ENDBRANCH  12  13
BRANCH   6  19
ATOM     19  O   UNL     1       3.067   5.861  18.066  0.00  0.00    +0.000 OA
BRANCH  19  20
ATOM     20  C   UNL     1       4.440   5.641  18.423  0.00  0.00    +0.000 C 
BRANCH  20  21
ATOM     21  C   UNL     1       4.755   4.141  18.395  0.00  0.00    +0.000 C 
BRANCH  21  22
ATOM     22  O   UNL     1       5.903   3.851  19.200  0.00  0.00    +0.000 OA
ATOM     23  H   UNL     1       6.164   4.688  19.628  0.00  0.00    +0.000 HD
ENDBRANCH  21  22
BRANCH  21  24
ATOM     24  C   UNL     1       3.551   3.327  18.889  0.00  0.00    +0.000 C 
BRANCH  24  25
ATOM     25  N   UNL     1       3.083   3.807  20.191  0.00  0.00    +0.000 NA
ATOM     26  H   UNL     1       3.310   4.798  20.291  0.00  0.00    +0.000 HD
BRANCH  25  27
ATOM     27  C   UNL     1       1.648   3.606  20.406  0.00  0.00    +0.000 C 
ATOM     28  C   UNL     1       0.952   3.017  19.176  0.00  0.00    +0.000 C 
ATOM     29  C   UNL     1       1.473   2.658  21.594  0.00  0.00    +0.000 C 
ENDBRANCH  25  27
ENDBRANCH  24  25
ENDBRANCH  21  24
ENDBRANCH  20  21
ENDBRANCH  19  20
ENDBRANCH   6  19
TORSDOF 8
ENDMDL
MODEL 4
REMARK VINA RESULT:      -7.3      2.214      3.651
REMARK  Name = 
REMARK  11 active torsions:
REMARK  status: ('A' for Active; 'I' for Inactive)
REMARK    1  A    between atoms: C_1  and  C_2
REMARK    2  A    between atoms: C_6  and  O_7
REMARK    3  A    between atoms: O_7  and  C_8
REMARK    4  A    between atoms: C_8  and  C_9
REMARK    5  A    between atoms: C_9  and  O_10
REMARK    6  A    between atoms: C_9  and  C_11
REMARK    7  A    between atoms: C_11  and  N_12
REMARK    8  A    between atoms: N_12  and  C_13
REMARK    9  A    between atoms: C_13  and  C_14
REMARK   10  A    between atoms: C_13  and  C_15
REMARK   11  A    between atoms: C_21  and  C_22
REMARK                            x       y       z     vdW  Elec       q    Type
REMARK                         _______ _______ _______ _____ _____    ______ ____
ROOT
ATOM      1  C   UNL     1      -0.142   8.826  21.950  0.00  0.00    +0.000 C 
ATOM      2  C   UNL     1       0.726   8.712  20.728  0.00  0.00    +0.000 A 
ATOM      3  O   UNL     1       1.451   7.535  20.735  0.00  0.00    +0.000 OA
ATOM      4  C   UNL     1       2.198   7.209  19.643  0.00  0.00    +0.000 A 
ATOM      5  C   UNL     1       2.789   5.948  19.654  0.00  0.00    +0.000 A 
ATOM      6  C   UNL     1       3.551   5.516  18.569  0.00  0.00    +0.000 A 
ATOM      7  C   UNL     1       3.749   6.378  17.488  0.00  0.00    +0.000 A 
ATOM      8  C   UNL     1       3.161   7.649  17.479  0.00  0.00    +0.000 A 
ATOM      9  C   UNL     1       2.371   8.055  18.556  0.00  0.00    +0.000 A 
ATOM     10  C   UNL     1       1.686   9.355  18.575  0.00  0.00    +0.000 A 
ATOM     11  O   UNL     1       1.845  10.153  17.652  0.00  0.00    +0.000 OA
ATOM     12  C   UNL     1       0.786   9.630  19.736  0.00  0.00    +0.000 A 
ENDROOT
BRANCH  12  13
ATOM     13  C   UNL     1      -0.010  10.868  19.767  0.00  0.00    +0.000 A 
ATOM     14  C   UNL     1      -1.267  10.922  19.148  0.00  0.00    +0.000 A 
ATOM     15  C   UNL     1      -2.019  12.098  19.177  0.00  0.00    +0.000 A 
ATOM     16  C   UNL     1      -1.526  13.229  19.827  0.00  0.00    +0.000 A 
ATOM     17  C   UNL     1      -0.275  13.187  20.442  0.00  0.00    +0.000 A 
ATOM     18  C   UNL     1       0.483  12.014  20.406  0.00  0.00    +0.000 A 
ENDBRANCH  12  13
BRANCH   6  19
ATOM     19  O   UNL     1       4.122   4.275  18.459  0.00  0.00    +0.000 OA
BRANCH  19  20
ATOM     20  C   UNL     1       5.321   4.082  19.224  0.00  0.00    +0.000 C 
BRANCH  20  21
ATOM     21  C   UNL     1       6.386   5.099  18.796  0.00  0.00    +0.000 C 
BRANCH  21  22
ATOM     22  O   UNL     1       7.222   5.451  19.903  0.00  0.00    +0.000 OA
ATOM     23  H   UNL     1       8.033   4.914  19.824  0.00  0.00    +0.000 HD
ENDBRANCH  21  22
BRANCH  21  24
ATOM     24  C   UNL     1       7.241   4.536  17.652  0.00  0.00    +0.000 C 
BRANCH  24  25
ATOM     25  N   UNL     1       7.316   5.479  16.533  0.00  0.00    +0.000 NA
ATOM     26  H   UNL     1       8.289   5.589  16.244  0.00  0.00    +0.000 HD
BRANCH  25  27
ATOM     27  C   UNL     1       6.503   5.082  15.381  0.00  0.00    +0.000 C 
ATOM     28  C   UNL     1       7.300   5.087  14.074  0.00  0.00    +0.000 C 
ATOM     29  C   UNL     1       5.962   3.675  15.643  0.00  0.00    +0.000 C 
ENDBRANCH  25  27
ENDBRANCH  24  25
ENDBRANCH  21  24
ENDBRANCH  20  21
ENDBRANCH  19  20
ENDBRANCH   6  19
TORSDOF 8
ENDMDL
MODEL 5
REMARK VINA RESULT:      -7.3      1.375      1.917
REMARK  Name = 
REMARK  11 active torsions:
REMARK  status: ('A' for Active; 'I' for Inactive)
REMARK    1  A    between atoms: C_1  and  C_2
REMARK    2  A    between atoms: C_6  and  O_7
REMARK    3  A    between atoms: O_7  and  C_8
REMARK    4  A    between atoms: C_8  and  C_9
REMARK    5  A    between atoms: C_9  and  O_10
REMARK    6  A    between atoms: C_9  and  C_11
REMARK    7  A    between atoms: C_11  and  N_12
REMARK    8  A    between atoms: N_12  and  C_13
REMARK    9  A    between atoms: C_13  and  C_14
REMARK   10  A    between atoms: C_13  and  C_15
REMARK   11  A    between atoms: C_21  and  C_22
REMARK                            x       y       z     vdW  Elec       q    Type
REMARK                         _______ _______ _______ _____ _____    ______ ____
ROOT
ATOM      1  C   UNL     1      -0.414   9.709  23.044  0.00  0.00    +0.000 C 
ATOM      2  C   UNL     1       0.268   9.624  21.707  0.00  0.00    +0.000 A 
ATOM      3  O   UNL     1       0.985   8.448  21.584  0.00  0.00    +0.000 OA
ATOM      4  C   UNL     1       1.566   8.148  20.389  0.00  0.00    +0.000 A 
ATOM      5  C   UNL     1       2.151   6.887  20.287  0.00  0.00    +0.000 A 
ATOM      6  C   UNL     1       2.748   6.480  19.094  0.00  0.00    +0.000 A 
ATOM      7  C   UNL     1       2.788   7.366  18.014  0.00  0.00    +0.000 A 
ATOM      8  C   UNL     1       2.206   8.636  18.117  0.00  0.00    +0.000 A 
ATOM      9  C   UNL     1       1.581   9.017  19.306  0.00  0.00    +0.000 A 
ATOM     10  C   UNL     1       0.907  10.315  19.452  0.00  0.00    +0.000 A 
ATOM     11  O   UNL     1       0.931  11.133  18.533  0.00  0.00    +0.000 OA
ATOM     12  C   UNL     1       0.185  10.563  20.736  0.00  0.00    +0.000 A 
ENDROOT
BRANCH  12  13
ATOM     13  C   UNL     1      -0.597  11.798  20.909  0.00  0.00    +0.000 A 
ATOM     14  C   UNL     1      -0.065  12.885  21.617  0.00  0.00    +0.000 A 
ATOM     15  C   UNL     1      -0.811  14.054  21.782  0.00  0.00    +0.000 A 
ATOM     16  C   UNL     1      -2.091  14.151  21.237  0.00  0.00    +0.000 A 
ATOM     17  C   UNL     1      -2.631  13.074  20.535  0.00  0.00    +0.000 A 
ATOM     18  C   UNL     1      -1.891  11.900  20.377  0.00  0.00    +0.000 A 
ENDBRANCH  12  13
BRANCH   6  19
ATOM     19  O   UNL     1       3.296   5.243  18.876  0.00  0.00    +0.000 OA
BRANCH  19  20
ATOM     20  C   UNL     1       3.685   4.976  17.520  0.00  0.00    +0.000 C 
BRANCH  20  21
ATOM     21  C   UNL     1       3.395   3.512  17.170  0.00  0.00    +0.000 C 
BRANCH  21  22
ATOM     22  O   UNL     1       4.523   2.686  17.479  0.00  0.00    +0.000 OA
ATOM     23  H   UNL     1       4.768   2.881  18.402  0.00  0.00    +0.000 HD
ENDBRANCH  21  22
BRANCH  21  24
ATOM     24  C   UNL     1       2.156   3.011  17.926  0.00  0.00    +0.000 C 
BRANCH  24  25
ATOM     25  N   UNL     1       2.533   2.165  19.060  0.00  0.00    +0.000 NA
ATOM     26  H   UNL     1       3.516   2.317  19.288  0.00  0.00    +0.000 HD
BRANCH  25  27
ATOM     27  C   UNL     1       1.711   2.388  20.252  0.00  0.00    +0.000 C 
ATOM     28  C   UNL     1       2.534   2.883  21.444  0.00  0.00    +0.000 C 
ATOM     29  C   UNL     1       0.641   3.424  19.905  0.00  0.00    +0.000 C 
ENDBRANCH  25  27
ENDBRANCH  24  25
ENDBRANCH  21  24
ENDBRANCH  20  21
ENDBRANCH  19  20
ENDBRANCH   6  19
TORSDOF 8
ENDMDL
MODEL 6
REMARK VINA RESULT:      -7.1      2.351      3.548
REMARK  Name = 
REMARK  11 active torsions:
REMARK  status: ('A' for Active; 'I' for Inactive)
REMARK    1  A    between atoms: C_1  and  C_2
REMARK    2  A    between atoms: C_6  and  O_7
REMARK    3  A    between atoms: O_7  and  C_8
REMARK    4  A    between atoms: C_8  and  C_9
REMARK    5  A    between atoms: C_9  and  O_10
REMARK    6  A    between atoms: C_9  and  C_11
REMARK    7  A    between atoms: C_11  and  N_12
REMARK    8  A    between atoms: N_12  and  C_13
REMARK    9  A    between atoms: C_13  and  C_14
REMARK   10  A    between atoms: C_13  and  C_15
REMARK   11  A    between atoms: C_21  and  C_22
REMARK                            x       y       z     vdW  Elec       q    Type
REMARK                         _______ _______ _______ _____ _____    ______ ____
ROOT
ATOM      1  C   UNL     1       0.149   8.370  21.767  0.00  0.00    +0.000 C 
ATOM      2  C   UNL     1       0.986   8.437  20.520  0.00  0.00    +0.000 A 
ATOM      3  O   UNL     1       1.807   7.330  20.406  0.00  0.00    +0.000 OA
ATOM      4  C   UNL     1       2.545   7.166  19.273  0.00  0.00    +0.000 A 
ATOM      5  C   UNL     1       3.240   5.963  19.159  0.00  0.00    +0.000 A 
ATOM      6  C   UNL     1       4.002   5.693  18.023  0.00  0.00    +0.000 A 
ATOM      7  C   UNL     1       4.093   6.659  17.018  0.00  0.00    +0.000 A 
ATOM      8  C   UNL     1       3.401   7.871  17.134  0.00  0.00    +0.000 A 
ATOM      9  C   UNL     1       2.613   8.113  18.261  0.00  0.00    +0.000 A 
ATOM     10  C   UNL     1       1.822   9.343  18.410  0.00  0.00    +0.000 A 
ATOM     11  O   UNL     1       1.885  10.228  17.557  0.00  0.00    +0.000 OA
ATOM     12  C   UNL     1       0.939   9.439  19.611  0.00  0.00    +0.000 A 
ENDROOT
BRANCH  12  13
ATOM     13  C   UNL     1       0.042  10.596  19.770  0.00  0.00    +0.000 A 
ATOM     14  C   UNL     1       0.420  11.685  20.568  0.00  0.00    +0.000 A 
ATOM     15  C   UNL     1      -0.434  12.780  20.718  0.00  0.00    +0.000 A 
ATOM     16  C   UNL     1      -1.669  12.800  20.071  0.00  0.00    +0.000 A 
ATOM     17  C   UNL     1      -2.055  11.720  19.278  0.00  0.00    +0.000 A 
ATOM     18  C   UNL     1      -1.207  10.619  19.134  0.00  0.00    +0.000 A 
ENDBRANCH  12  13
BRANCH   6  19
ATOM     19  O   UNL     1       4.671   4.520  17.791  0.00  0.00    +0.000 OA
BRANCH  19  20
ATOM     20  C   UNL     1       4.732   4.112  16.416  0.00  0.00    +0.000 C 
BRANCH  20  21
ATOM     21  C   UNL     1       6.180   3.786  16.029  0.00  0.00    +0.000 C 
BRANCH  21  22
ATOM     22  O   UNL     1       6.430   4.139  14.665  0.00  0.00    +0.000 OA
ATOM     23  H   UNL     1       5.620   4.572  14.334  0.00  0.00    +0.000 HD
ENDBRANCH  21  22
BRANCH  21  24
ATOM     24  C   UNL     1       7.163   4.523  16.949  0.00  0.00    +0.000 C 
BRANCH  24  25
ATOM     25  N   UNL     1       7.306   5.927  16.557  0.00  0.00    +0.000 NA
ATOM     26  H   UNL     1       6.393   6.304  16.301  0.00  0.00    +0.000 HD
BRANCH  25  27
ATOM     27  C   UNL     1       7.910   6.764  17.597  0.00  0.00    +0.000 C 
ATOM     28  C   UNL     1       7.352   8.189  17.596  0.00  0.00    +0.000 C 
ATOM     29  C   UNL     1       7.637   6.110  18.952  0.00  0.00    +0.000 C 
ENDBRANCH  25  27
ENDBRANCH  24  25
ENDBRANCH  21  24
ENDBRANCH  20  21
ENDBRANCH  19  20
ENDBRANCH   6  19
TORSDOF 8
ENDMDL
MODEL 7
REMARK VINA RESULT:      -7.1      2.187      3.524
REMARK  Name = 
REMARK  11 active torsions:
REMARK  status: ('A' for Active; 'I' for Inactive)
REMARK    1  A    between atoms: C_1  and  C_2
REMARK    2  A    between atoms: C_6  and  O_7
REMARK    3  A    between atoms: O_7  and  C_8
REMARK    4  A    between atoms: C_8  and  C_9
REMARK    5  A    between atoms: C_9  and  O_10
REMARK    6  A    between atoms: C_9  and  C_11
REMARK    7  A    between atoms: C_11  and  N_12
REMARK    8  A    between atoms: N_12  and  C_13
REMARK    9  A    between atoms: C_13  and  C_14
REMARK   10  A    between atoms: C_13  and  C_15
REMARK   11  A    between atoms: C_21  and  C_22
REMARK                            x       y       z     vdW  Elec       q    Type
REMARK                         _______ _______ _______ _____ _____    ______ ____
ROOT
ATOM      1  C   UNL     1       0.041   9.505  23.360  0.00  0.00    +0.000 C 
ATOM      2  C   UNL     1       0.498   9.578  21.929  0.00  0.00    +0.000 A 
ATOM      3  O   UNL     1       1.210   8.449  21.572  0.00  0.00    +0.000 OA
ATOM      4  C   UNL     1       1.595   8.291  20.274  0.00  0.00    +0.000 A 
ATOM      5  C   UNL     1       2.181   7.069  19.949  0.00  0.00    +0.000 A 
ATOM      6  C   UNL     1       2.585   6.806  18.641  0.00  0.00    +0.000 A 
ATOM      7  C   UNL     1       2.431   7.795  17.667  0.00  0.00    +0.000 A 
ATOM      8  C   UNL     1       1.848   9.027  17.994  0.00  0.00    +0.000 A 
ATOM      9  C   UNL     1       1.416   9.263  19.300  0.00  0.00    +0.000 A 
ATOM     10  C   UNL     1       0.748  10.515  19.686  0.00  0.00    +0.000 A 
ATOM     11  O   UNL     1       0.607  11.421  18.866  0.00  0.00    +0.000 OA
ATOM     12  C   UNL     1       0.240  10.607  21.088  0.00  0.00    +0.000 A 
ENDROOT
BRANCH  12  13
ATOM     13  C   UNL     1      -0.529  11.788  21.511  0.00  0.00    +0.000 A 
ATOM     14  C   UNL     1       0.129  12.956  21.925  0.00  0.00    +0.000 A 
ATOM     15  C   UNL     1      -0.604  14.074  22.328  0.00  0.00    +0.000 A 
ATOM     16  C   UNL     1      -1.997  14.039  22.319  0.00  0.00    +0.000 A 
ATOM     17  C   UNL     1      -2.661  12.882  21.913  0.00  0.00    +0.000 A 
ATOM     18  C   UNL     1      -1.931  11.759  21.518  0.00  0.00    +0.000 A 
ENDBRANCH  12  13
BRANCH   6  19
ATOM     19  O   UNL     1       3.115   5.618  18.210  0.00  0.00    +0.000 OA
BRANCH  19  20
ATOM     20  C   UNL     1       3.635   4.768  19.244  0.00  0.00    +0.000 C 
BRANCH  20  21
ATOM     21  C   UNL     1       4.830   3.968  18.712  0.00  0.00    +0.000 C 
BRANCH  21  22
ATOM     22  O   UNL     1       5.178   2.917  19.620  0.00  0.00    +0.000 OA
ATOM     23  H   UNL     1       6.119   2.712  19.465  0.00  0.00    +0.000 HD
ENDBRANCH  21  22
BRANCH  21  24
ATOM     24  C   UNL     1       4.515   3.382  17.329  0.00  0.00    +0.000 C 
BRANCH  24  25
ATOM     25  N   UNL     1       5.640   3.562  16.408  0.00  0.00    +0.000 NA
ATOM     26  H   UNL     1       5.978   2.650  16.099  0.00  0.00    +0.000 HD
BRANCH  25  27
ATOM     27  C   UNL     1       5.313   4.387  15.243  0.00  0.00    +0.000 C 
ATOM     28  C   UNL     1       5.465   5.884  15.526  0.00  0.00    +0.000 C 
ATOM     29  C   UNL     1       6.247   3.987  14.099  0.00  0.00    +0.000 C 
ENDBRANCH  25  27
ENDBRANCH  24  25
ENDBRANCH  21  24
ENDBRANCH  20  21
ENDBRANCH  19  20
ENDBRANCH   6  19
TORSDOF 8
ENDMDL
MODEL 8
REMARK VINA RESULT:      -7.1      3.151      7.981
REMARK  Name = 
REMARK  11 active torsions:
REMARK  status: ('A' for Active; 'I' for Inactive)
REMARK    1  A    between atoms: C_1  and  C_2
REMARK    2  A    between atoms: C_6  and  O_7
REMARK    3  A    between atoms: O_7  and  C_8
REMARK    4  A    between atoms: C_8  and  C_9
REMARK    5  A    between atoms: C_9  and  O_10
REMARK    6  A    between atoms: C_9  and  C_11
REMARK    7  A    between atoms: C_11  and  N_12
REMARK    8  A    between atoms: N_12  and  C_13
REMARK    9  A    between atoms: C_13  and  C_14
REMARK   10  A    between atoms: C_13  and  C_15
REMARK   11  A    between atoms: C_21  and  C_22
REMARK                            x       y       z     vdW  Elec       q    Type
REMARK                         _______ _______ _______ _____ _____    ______ ____
ROOT
ATOM      1  C   UNL     1       1.900   5.439  20.990  0.00  0.00    +0.000 C 
ATOM      2  C   UNL     1       1.868   6.645  20.093  0.00  0.00    +0.000 A 
ATOM      3  O   UNL     1       1.179   7.689  20.681  0.00  0.00    +0.000 OA
ATOM      4  C   UNL     1       1.156   8.902  20.060  0.00  0.00    +0.000 A 
ATOM      5  C   UNL     1       0.570   9.947  20.770  0.00  0.00    +0.000 A 
ATOM      6  C   UNL     1       0.523  11.231  20.226  0.00  0.00    +0.000 A 
ATOM      7  C   UNL     1       1.035  11.448  18.945  0.00  0.00    +0.000 A 
ATOM      8  C   UNL     1       1.619  10.396  18.227  0.00  0.00    +0.000 A 
ATOM      9  C   UNL     1       1.691   9.124  18.799  0.00  0.00    +0.000 A 
ATOM     10  C   UNL     1       2.342   7.997  18.114  0.00  0.00    +0.000 A 
ATOM     11  O   UNL     1       2.792   8.139  16.978  0.00  0.00    +0.000 OA
ATOM     12  C   UNL     1       2.447   6.714  18.872  0.00  0.00    +0.000 A 
ENDROOT
BRANCH  12  13
ATOM     13  C   UNL     1       3.177   5.577  18.288  0.00  0.00    +0.000 A 
ATOM     14  C   UNL     1       4.576   5.516  18.361  0.00  0.00    +0.000 A 
ATOM     15  C   UNL     1       5.266   4.437  17.803  0.00  0.00    +0.000 A 
ATOM     16  C   UNL     1       4.566   3.409  17.172  0.00  0.00    +0.000 A 
ATOM     17  C   UNL     1       3.175   3.463  17.090  0.00  0.00    +0.000 A 
ATOM     18  C   UNL     1       2.484   4.546  17.639  0.00  0.00    +0.000 A 
ENDBRANCH  12  13
BRANCH   6  19
ATOM     19  O   UNL     1       0.022  12.334  20.867  0.00  0.00    +0.000 OA
BRANCH  19  20
ATOM     20  C   UNL     1      -1.360  12.248  21.245  0.00  0.00    +0.000 C 
BRANCH  20  21
ATOM     21  C   UNL     1      -2.232  12.966  20.207  0.00  0.00    +0.000 C 
BRANCH  21  22
ATOM     22  O   UNL     1      -1.441  13.853  19.410  0.00  0.00    +0.000 OA
ATOM     23  H   UNL     1      -1.931  14.695  19.358  0.00  0.00    +0.000 HD
ENDBRANCH  21  22
BRANCH  21  24
ATOM     24  C   UNL     1      -2.948  11.949  19.307  0.00  0.00    +0.000 C 
BRANCH  24  25
ATOM     25  N   UNL     1      -2.723  12.244  17.890  0.00  0.00    +0.000 NA
ATOM     26  H   UNL     1      -2.108  13.054  17.804  0.00  0.00    +0.000 HD
BRANCH  25  27
ATOM     27  C   UNL     1      -2.159  11.117  17.143  0.00  0.00    +0.000 C 
ATOM     28  C   UNL     1      -2.185   9.814  17.946  0.00  0.00    +0.000 C 
ATOM     29  C   UNL     1      -2.974  10.942  15.860  0.00  0.00    +0.000 C 
ENDBRANCH  25  27
ENDBRANCH  24  25
ENDBRANCH  21  24
ENDBRANCH  20  21
ENDBRANCH  19  20
ENDBRANCH   6  19
TORSDOF 8
ENDMDL
MODEL 9
REMARK VINA RESULT:      -7.1      1.573      2.356
REMARK  Name = 
REMARK  11 active torsions:
REMARK  status: ('A' for Active; 'I' for Inactive)
REMARK    1  A    between atoms: C_1  and  C_2
REMARK    2  A    between atoms: C_6  and  O_7
REMARK    3  A    between atoms: O_7  and  C_8
REMARK    4  A    between atoms: C_8  and  C_9
REMARK    5  A    between atoms: C_9  and  O_10
REMARK    6  A    between atoms: C_9  and  C_11
REMARK    7  A    between atoms: C_11  and  N_12
REMARK    8  A    between atoms: N_12  and  C_13
REMARK    9  A    between atoms: C_13  and  C_14
REMARK   10  A    between atoms: C_13  and  C_15
REMARK   11  A    between atoms: C_21  and  C_22
REMARK                            x       y       z     vdW  Elec       q    Type
REMARK                         _______ _______ _______ _____ _____    ______ ____
ROOT
ATOM      1  C   UNL     1      -0.470   9.373  22.903  0.00  0.00    +0.000 C 
ATOM      2  C   UNL     1       0.192   9.496  21.559  0.00  0.00    +0.000 A 
ATOM      3  O   UNL     1       0.969   8.388  21.279  0.00  0.00    +0.000 OA
ATOM      4  C   UNL     1       1.545   8.275  20.050  0.00  0.00    +0.000 A 
ATOM      5  C   UNL     1       2.196   7.072  19.782  0.00  0.00    +0.000 A 
ATOM      6  C   UNL     1       2.793   6.854  18.540  0.00  0.00    +0.000 A 
ATOM      7  C   UNL     1       2.766   7.870  17.582  0.00  0.00    +0.000 A 
ATOM      8  C   UNL     1       2.119   9.083  17.853  0.00  0.00    +0.000 A 
ATOM      9  C   UNL     1       1.494   9.274  19.087  0.00  0.00    +0.000 A 
ATOM     10  C   UNL     1       0.754  10.503  19.404  0.00  0.00    +0.000 A 
ATOM     11  O   UNL     1       0.718  11.432  18.597  0.00  0.00    +0.000 OA
ATOM     12  C   UNL     1       0.042  10.546  20.717  0.00  0.00    +0.000 A 
ENDROOT
BRANCH  12  13
ATOM     13  C   UNL     1      -0.803  11.703  21.054  0.00  0.00    +0.000 A 
ATOM     14  C   UNL     1      -0.363  12.661  21.979  0.00  0.00    +0.000 A 
ATOM     15  C   UNL     1      -1.168  13.756  22.299  0.00  0.00    +0.000 A 
ATOM     16  C   UNL     1      -2.416  13.908  21.696  0.00  0.00    +0.000 A 
ATOM     17  C   UNL     1      -2.864  12.959  20.778  0.00  0.00    +0.000 A 
ATOM     18  C   UNL     1      -2.065  11.857  20.464  0.00  0.00    +0.000 A 
ENDBRANCH  12  13
BRANCH   6  19
ATOM     19  O   UNL     1       3.403   5.687  18.160  0.00  0.00    +0.000 OA
BRANCH  19  20
ATOM     20  C   UNL     1       4.828   5.659  18.326  0.00  0.00    +0.000 C 
BRANCH  20  21
ATOM     21  C   UNL     1       5.338   4.216  18.234  0.00  0.00    +0.000 C 
BRANCH  21  22
ATOM     22  O   UNL     1       6.769   4.184  18.238  0.00  0.00    +0.000 OA
ATOM     23  H   UNL     1       7.070   5.107  18.142  0.00  0.00    +0.000 HD
ENDBRANCH  21  22
BRANCH  21  24
ATOM     24  C   UNL     1       4.793   3.376  19.398  0.00  0.00    +0.000 C 
BRANCH  24  25
ATOM     25  N   UNL     1       4.126   2.165  18.911  0.00  0.00    +0.000 NA
ATOM     26  H   UNL     1       4.607   1.341  19.276  0.00  0.00    +0.000 HD
BRANCH  25  27
ATOM     27  C   UNL     1       2.705   2.102  19.260  0.00  0.00    +0.000 C 
ATOM     28  C   UNL     1       2.370   2.940  20.496  0.00  0.00    +0.000 C 
ATOM     29  C   UNL     1       1.899   2.610  18.064  0.00  0.00    +0.000 C 
ENDBRANCH  25  27
ENDBRANCH  24  25
ENDBRANCH  21  24
ENDBRANCH  20  21
ENDBRANCH  19  20
ENDBRANCH   6  19
TORSDOF 8
ENDMDL
