MODEL 1
REMARK VINA RESULT:      -7.7      0.000      0.000
REMARK  Name = 
REMARK  5 active torsions:
REMARK  status: ('A' for Active; 'I' for Inactive)
REMARK    1  A    between atoms: C_1  and  N_2
REMARK    2  A    between atoms: N_2  and  C_3
REMARK    3  A    between atoms: C_4  and  O_6
REMARK    4  A    between atoms: O_6  and  C_7
REMARK    5  A    between atoms: C_11  and  C_12
REMARK                            x       y       z     vdW  Elec       q    Type
REMARK                         _______ _______ _______ _____ _____    ______ ____
ROOT
ATOM      1  C   UNL     1       4.759   4.472  18.476  0.00  0.00    +0.000 A 
ATOM      2  C   UNL     1       3.990   3.537  17.785  0.00  0.00    +0.000 A 
ATOM      3  C   UNL     1       2.621   3.754  17.633  0.00  0.00    +0.000 A 
ATOM      4  C   UNL     1       2.030   4.902  18.172  0.00  0.00    +0.000 A 
ATOM      5  C   UNL     1       2.804   5.844  18.864  0.00  0.00    +0.000 A 
ATOM      6  C   UNL     1       4.181   5.631  18.994  0.00  0.00    +0.000 A 
ENDROOT
BRANCH   5   7
ATOM      7  C   UNL     1       2.217   7.030  19.461  0.00  0.00    +0.000 A 
ATOM      8  C   UNL     1       2.030   8.244  18.833  0.00  0.00    +0.000 A 
ATOM      9  N   UNL     1       1.360   9.025  19.735  0.00  0.00    +0.000 N 
ATOM     10  C   UNL     1       0.888  10.325  19.595  0.00  0.00    +0.000 A 
ATOM     11  C   UNL     1       0.236  10.891  20.623  0.00  0.00    +0.000 A 
ATOM     12 CL   UNL     1      -0.392  12.485  20.523  0.00  0.00    +0.000 Cl
ATOM     13  C   UNL     1       0.052  10.135  21.854  0.00  0.00    +0.000 A 
ATOM     14  C   UNL     1       0.515   8.874  21.977  0.00  0.00    +0.000 A 
ATOM     15  C   UNL     1       1.193   8.261  20.885  0.00  0.00    +0.000 A 
ATOM     16  N   UNL     1       1.702   7.058  20.740  0.00  0.00    +0.000 NA
ENDBRANCH   5   7
BRANCH   1  17
ATOM     17  O   UNL     1       6.150   4.266  18.505  0.00  0.00    +0.000 OA
BRANCH  17  21
ATOM     18  C   UNL     1       8.082   7.342  18.210  0.00  0.00    +0.000 C 
ATOM     19  N   UNL     1       7.420   6.095  17.884  0.00  0.00    +0.000 N 
ATOM     20  C   UNL     1       6.925   5.890  16.535  0.00  0.00    +0.000 C 
ATOM     21  C   UNL     1       6.976   5.306  18.939  0.00  0.00    +0.000 C 
ATOM     22  O   UNL     1       7.263   5.520  20.113  0.00  0.00    +0.000 OA
ENDBRANCH  17  21
ENDBRANCH   1  17
TORSDOF 3
ENDMDL
MODEL 2
REMARK VINA RESULT:      -7.7      1.564      2.133
REMARK  Name = 
REMARK  5 active torsions:
REMARK  status: ('A' for Active; 'I' for Inactive)
REMARK    1  A    between atoms: C_1  and  N_2
REMARK    2  A    between atoms: N_2  and  C_3
REMARK    3  A    between atoms: C_4  and  O_6
REMARK    4  A    between atoms: O_6  and  C_7
REMARK    5  A    between atoms: C_11  and  C_12
REMARK                            x       y       z     vdW  Elec       q    Type
REMARK                         _______ _______ _______ _____ _____    ______ ____
ROOT
ATOM      1  C   UNL     1       4.038   4.413  19.404  0.00  0.00    +0.000 A 
ATOM      2  C   UNL     1       3.311   3.398  20.023  0.00  0.00    +0.000 A 
ATOM      3  C   UNL     1       2.094   3.702  20.631  0.00  0.00    +0.000 A 
ATOM      4  C   UNL     1       1.612   5.015  20.619  0.00  0.00    +0.000 A 
ATOM      5  C   UNL     1       2.343   6.036  19.993  0.00  0.00    +0.000 A 
ATOM      6  C   UNL     1       3.553   5.720  19.365  0.00  0.00    +0.000 A 
ENDROOT
BRANCH   5   7
ATOM      7  C   UNL     1       1.886   7.414  19.988  0.00  0.00    +0.000 A 
ATOM      8  C   UNL     1       1.940   8.279  18.915  0.00  0.00    +0.000 A 
ATOM      9  N   UNL     1       1.314   9.422  19.334  0.00  0.00    +0.000 N 
ATOM     10  C   UNL     1       1.056  10.593  18.631  0.00  0.00    +0.000 A 
ATOM     11  C   UNL     1       0.405  11.590  19.251  0.00  0.00    +0.000 A 
ATOM     12 CL   UNL     1       0.032  13.060  18.446  0.00  0.00    +0.000 Cl
ATOM     13  C   UNL     1      -0.002  11.422  20.639  0.00  0.00    +0.000 A 
ATOM     14  C   UNL     1       0.255  10.280  21.310  0.00  0.00    +0.000 A 
ATOM     15  C   UNL     1       0.932   9.212  20.654  0.00  0.00    +0.000 A 
ATOM     16  N   UNL     1       1.267   8.010  21.065  0.00  0.00    +0.000 NA
ENDBRANCH   5   7
BRANCH   1  17
ATOM     17  O   UNL     1       5.201   4.038  18.707  0.00  0.00    +0.000 OA
BRANCH  17  21
ATOM     18  C   UNL     1       6.668   4.416  15.393  0.00  0.00    +0.000 C 
ATOM     19  N   UNL     1       6.449   4.517  16.821  0.00  0.00    +0.000 N 
ATOM     20  C   UNL     1       7.593   4.660  17.704  0.00  0.00    +0.000 C 
ATOM     21  C   UNL     1       5.209   4.126  17.313  0.00  0.00    +0.000 C 
ATOM     22  O   UNL     1       4.247   3.866  16.595  0.00  0.00    +0.000 OA
ENDBRANCH  17  21
ENDBRANCH   1  17
TORSDOF 3
ENDMDL
MODEL 3
REMARK VINA RESULT:      -7.6      1.324      1.475
REMARK  Name = 
REMARK  5 active torsions:
REMARK  status: ('A' for Active; 'I' for Inactive)
REMARK    1  A    between atoms: C_1  and  N_2
REMARK    2  A    between atoms: N_2  and  C_3
REMARK    3  A    between atoms: C_4  and  O_6
REMARK    4  A    between atoms: O_6  and  C_7
REMARK    5  A    between atoms: C_11  and  C_12
REMARK                            x       y       z     vdW  Elec       q    Type
REMARK                         _______ _______ _______ _____ _____    ______ ____
ROOT
ATOM      1  C   UNL     1       3.963   4.616  19.400  0.00  0.00    +0.000 A 
ATOM      2  C   UNL     1       3.277   3.569  20.012  0.00  0.00    +0.000 A 
ATOM      3  C   UNL     1       2.062   3.826  20.646  0.00  0.00    +0.000 A 
ATOM      4  C   UNL     1       1.542   5.125  20.666  0.00  0.00    +0.000 A 
ATOM      5  C   UNL     1       2.232   6.177  20.047  0.00  0.00    +0.000 A 
ATOM      6  C   UNL     1       3.440   5.908  19.394  0.00  0.00    +0.000 A 
ENDROOT
BRANCH   5   7
ATOM      7  C   UNL     1       1.736   7.541  20.075  0.00  0.00    +0.000 A 
ATOM      8  C   UNL     1       1.801   8.447  19.037  0.00  0.00    +0.000 A 
ATOM      9  N   UNL     1       1.127   9.555  19.474  0.00  0.00    +0.000 N 
ATOM     10  C   UNL     1       0.859  10.744  18.803  0.00  0.00    +0.000 A 
ATOM     11  C   UNL     1       0.158  11.698  19.435  0.00  0.00    +0.000 A 
ATOM     12 CL   UNL     1      -0.230  13.185  18.671  0.00  0.00    +0.000 Cl
ATOM     13  C   UNL     1      -0.290  11.468  20.802  0.00  0.00    +0.000 A 
ATOM     14  C   UNL     1      -0.023  10.310  21.440  0.00  0.00    +0.000 A 
ATOM     15  C   UNL     1       0.707   9.287  20.771  0.00  0.00    +0.000 A 
ATOM     16  N   UNL     1       1.063   8.080  21.151  0.00  0.00    +0.000 NA
ENDBRANCH   5   7
BRANCH   1  17
ATOM     17  O   UNL     1       5.125   4.288  18.678  0.00  0.00    +0.000 OA
BRANCH  17  21
ATOM     18  C   UNL     1       7.538   6.793  17.591  0.00  0.00    +0.000 C 
ATOM     19  N   UNL     1       6.558   5.726  17.572  0.00  0.00    +0.000 N 
ATOM     20  C   UNL     1       5.696   5.577  16.413  0.00  0.00    +0.000 C 
ATOM     21  C   UNL     1       6.242   5.120  18.784  0.00  0.00    +0.000 C 
ATOM     22  O   UNL     1       6.864   5.319  19.823  0.00  0.00    +0.000 OA
ENDBRANCH  17  21
ENDBRANCH   1  17
TORSDOF 3
ENDMDL
MODEL 4
REMARK VINA RESULT:      -7.6      2.315      3.541
REMARK  Name = 
REMARK  5 active torsions:
REMARK  status: ('A' for Active; 'I' for Inactive)
REMARK    1  A    between atoms: C_1  and  N_2
REMARK    2  A    between atoms: N_2  and  C_3
REMARK    3  A    between atoms: C_4  and  O_6
REMARK    4  A    between atoms: O_6  and  C_7
REMARK    5  A    between atoms: C_11  and  C_12
REMARK                            x       y       z     vdW  Elec       q    Type
REMARK                         _______ _______ _______ _____ _____    ______ ____
ROOT
ATOM      1  C   UNL     1       3.774   4.386  17.286  0.00  0.00    +0.000 A 
ATOM      2  C   UNL     1       4.871   4.713  16.491  0.00  0.00    +0.000 A 
ATOM      3  C   UNL     1       5.225   6.052  16.332  0.00  0.00    +0.000 A 
ATOM      4  C   UNL     1       4.483   7.054  16.966  0.00  0.00    +0.000 A 
ATOM      5  C   UNL     1       3.381   6.724  17.768  0.00  0.00    +0.000 A 
ATOM      6  C   UNL     1       3.044   5.377  17.941  0.00  0.00    +0.000 A 
ENDROOT
BRANCH   5   7
ATOM      7  C   UNL     1       2.571   7.740  18.415  0.00  0.00    +0.000 A 
ATOM      8  C   UNL     1       2.069   8.877  17.816  0.00  0.00    +0.000 A 
ATOM      9  N   UNL     1       1.291   9.480  18.767  0.00  0.00    +0.000 N 
ATOM     10  C   UNL     1       0.522  10.635  18.673  0.00  0.00    +0.000 A 
ATOM     11  C   UNL     1      -0.179  11.033  19.746  0.00  0.00    +0.000 A 
ATOM     12 CL   UNL     1      -1.167  12.437  19.706  0.00  0.00    +0.000 Cl
ATOM     13  C   UNL     1      -0.106  10.256  20.975  0.00  0.00    +0.000 A 
ATOM     14  C   UNL     1       0.645   9.138  21.053  0.00  0.00    +0.000 A 
ATOM     15  C   UNL     1       1.379   8.700  19.914  0.00  0.00    +0.000 A 
ATOM     16  N   UNL     1       2.143   7.649  19.722  0.00  0.00    +0.000 NA
ENDBRANCH   5   7
BRANCH   1  17
ATOM     17  O   UNL     1       3.525   3.019  17.507  0.00  0.00    +0.000 OA
BRANCH  17  21
ATOM     18  C   UNL     1       1.848   2.126  20.616  0.00  0.00    +0.000 C 
ATOM     19  N   UNL     1       2.867   2.293  19.601  0.00  0.00    +0.000 N 
ATOM     20  C   UNL     1       4.253   2.444  20.008  0.00  0.00    +0.000 C 
ATOM     21  C   UNL     1       2.452   2.654  18.324  0.00  0.00    +0.000 C 
ATOM     22  O   UNL     1       1.276   2.668  17.973  0.00  0.00    +0.000 OA
ENDBRANCH  17  21
ENDBRANCH   1  17
TORSDOF 3
ENDMDL
MODEL 5
REMARK VINA RESULT:      -7.6      2.305      3.729
REMARK  Name = 
REMARK  5 active torsions:
REMARK  status: ('A' for Active; 'I' for Inactive)
REMARK    1  A    between atoms: C_1  and  N_2
REMARK    2  A    between atoms: N_2  and  C_3
REMARK    3  A    between atoms: C_4  and  O_6
REMARK    4  A    between atoms: O_6  and  C_7
REMARK    5  A    between atoms: C_11  and  C_12
REMARK                            x       y       z     vdW  Elec       q    Type
REMARK                         _______ _______ _______ _____ _____    ______ ____
ROOT
ATOM      1  C   UNL     1       4.147   4.666  17.260  0.00  0.00    +0.000 A 
ATOM      2  C   UNL     1       5.079   5.214  16.381  0.00  0.00    +0.000 A 
ATOM      3  C   UNL     1       5.161   6.599  16.246  0.00  0.00    +0.000 A 
ATOM      4  C   UNL     1       4.313   7.427  16.990  0.00  0.00    +0.000 A 
ATOM      5  C   UNL     1       3.377   6.876  17.877  0.00  0.00    +0.000 A 
ATOM      6  C   UNL     1       3.316   5.485  18.023  0.00  0.00    +0.000 A 
ENDROOT
BRANCH   5   7
ATOM      7  C   UNL     1       2.462   7.705  18.640  0.00  0.00    +0.000 A 
ATOM      8  C   UNL     1       2.084   7.496  19.950  0.00  0.00    +0.000 A 
ATOM      9  N   UNL     1       1.300   8.568  20.281  0.00  0.00    +0.000 N 
ATOM     10  C   UNL     1       0.694   8.876  21.494  0.00  0.00    +0.000 A 
ATOM     11  C   UNL     1      -0.025  10.005  21.590  0.00  0.00    +0.000 A 
ATOM     12 CL   UNL     1      -0.789  10.464  23.057  0.00  0.00    +0.000 Cl
ATOM     13  C   UNL     1      -0.158  10.867  20.424  0.00  0.00    +0.000 A 
ATOM     14  C   UNL     1       0.435  10.557  19.253  0.00  0.00    +0.000 A 
ATOM     15  C   UNL     1       1.212   9.369  19.148  0.00  0.00    +0.000 A 
ATOM     16  N   UNL     1       1.905   8.866  18.151  0.00  0.00    +0.000 NA
ENDBRANCH   5   7
BRANCH   1  17
ATOM     17  O   UNL     1       4.180   3.272  17.446  0.00  0.00    +0.000 OA
BRANCH  17  21
ATOM     18  C   UNL     1       1.873   1.671  19.768  0.00  0.00    +0.000 C 
ATOM     19  N   UNL     1       3.091   2.152  19.150  0.00  0.00    +0.000 N 
ATOM     20  C   UNL     1       4.231   2.473  19.990  0.00  0.00    +0.000 C 
ATOM     21  C   UNL     1       3.011   2.618  17.842  0.00  0.00    +0.000 C 
ATOM     22  O   UNL     1       2.016   2.485  17.136  0.00  0.00    +0.000 OA
ENDBRANCH  17  21
ENDBRANCH   1  17
TORSDOF 3
ENDMDL
MODEL 6
REMARK VINA RESULT:      -7.6      1.377      1.897
REMARK  Name = 
REMARK  5 active torsions:
REMARK  status: ('A' for Active; 'I' for Inactive)
REMARK    1  A    between atoms: C_1  and  N_2
REMARK    2  A    between atoms: N_2  and  C_3
REMARK    3  A    between atoms: C_4  and  O_6
REMARK    4  A    between atoms: O_6  and  C_7
REMARK    5  A    between atoms: C_11  and  C_12
REMARK                            x       y       z     vdW  Elec       q    Type
REMARK                         _______ _______ _______ _____ _____    ______ ____
ROOT
ATOM      1  C   UNL     1       4.108   4.214  19.649  0.00  0.00    +0.000 A 
ATOM      2  C   UNL     1       3.312   3.187  20.152  0.00  0.00    +0.000 A 
ATOM      3  C   UNL     1       2.020   3.474  20.589  0.00  0.00    +0.000 A 
ATOM      4  C   UNL     1       1.533   4.784  20.523  0.00  0.00    +0.000 A 
ATOM      5  C   UNL     1       2.333   5.817  20.014  0.00  0.00    +0.000 A 
ATOM      6  C   UNL     1       3.621   5.517  19.556  0.00  0.00    +0.000 A 
ENDROOT
BRANCH   5   7
ATOM      7  C   UNL     1       1.869   7.191  19.959  0.00  0.00    +0.000 A 
ATOM      8  C   UNL     1       1.348   7.911  21.014  0.00  0.00    +0.000 A 
ATOM      9  N   UNL     1       1.144   9.175  20.530  0.00  0.00    +0.000 N 
ATOM     10  C   UNL     1       0.674  10.306  21.189  0.00  0.00    +0.000 A 
ATOM     11  C   UNL     1       0.570  11.456  20.506  0.00  0.00    +0.000 A 
ATOM     12 CL   UNL     1       0.015  12.900  21.252  0.00  0.00    +0.000 Cl
ATOM     13  C   UNL     1       0.940  11.486  19.098  0.00  0.00    +0.000 A 
ATOM     14  C   UNL     1       1.395  10.382  18.470  0.00  0.00    +0.000 A 
ATOM     15  C   UNL     1       1.523   9.161  19.192  0.00  0.00    +0.000 A 
ATOM     16  N   UNL     1       1.962   7.977  18.830  0.00  0.00    +0.000 NA
ENDBRANCH   5   7
BRANCH   1  17
ATOM     17  O   UNL     1       5.360   3.856  19.115  0.00  0.00    +0.000 OA
BRANCH  17  21
ATOM     18  C   UNL     1       7.287   6.326  17.255  0.00  0.00    +0.000 C 
ATOM     19  N   UNL     1       6.502   5.153  17.581  0.00  0.00    +0.000 N 
ATOM     20  C   UNL     1       5.652   4.566  16.561  0.00  0.00    +0.000 C 
ATOM     21  C   UNL     1       6.321   4.851  18.926  0.00  0.00    +0.000 C 
ATOM     22  O   UNL     1       6.924   5.416  19.834  0.00  0.00    +0.000 OA
ENDBRANCH  17  21
ENDBRANCH   1  17
TORSDOF 3
ENDMDL
MODEL 7
REMARK VINA RESULT:      -7.5      1.563      2.394
REMARK  Name = 
REMARK  5 active torsions:
REMARK  status: ('A' for Active; 'I' for Inactive)
REMARK    1  A    between atoms: C_1  and  N_2
REMARK    2  A    between atoms: N_2  and  C_3
REMARK    3  A    between atoms: C_4  and  O_6
REMARK    4  A    between atoms: O_6  and  C_7
REMARK    5  A    between atoms: C_11  and  C_12
REMARK                            x       y       z     vdW  Elec       q    Type
REMARK                         _______ _______ _______ _____ _____    ______ ____
ROOT
ATOM      1  C   UNL     1       4.180   4.166  19.457  0.00  0.00    +0.000 A 
ATOM      2  C   UNL     1       3.499   3.190  20.180  0.00  0.00    +0.000 A 
ATOM      3  C   UNL     1       2.295   3.516  20.804  0.00  0.00    +0.000 A 
ATOM      4  C   UNL     1       1.783   4.814  20.704  0.00  0.00    +0.000 A 
ATOM      5  C   UNL     1       2.468   5.795  19.973  0.00  0.00    +0.000 A 
ATOM      6  C   UNL     1       3.664   5.455  19.330  0.00  0.00    +0.000 A 
ENDROOT
BRANCH   5   7
ATOM      7  C   UNL     1       1.979   7.159  19.874  0.00  0.00    +0.000 A 
ATOM      8  C   UNL     1       1.397   7.885  20.892  0.00  0.00    +0.000 A 
ATOM      9  N   UNL     1       1.190   9.137  20.377  0.00  0.00    +0.000 N 
ATOM     10  C   UNL     1       0.668  10.268  20.995  0.00  0.00    +0.000 A 
ATOM     11  C   UNL     1       0.572  11.404  20.288  0.00  0.00    +0.000 A 
ATOM     12 CL   UNL     1      -0.044  12.848  20.983  0.00  0.00    +0.000 Cl
ATOM     13  C   UNL     1       1.004  11.419  18.897  0.00  0.00    +0.000 A 
ATOM     14  C   UNL     1       1.509  10.314  18.310  0.00  0.00    +0.000 A 
ATOM     15  C   UNL     1       1.628   9.108  19.058  0.00  0.00    +0.000 A 
ATOM     16  N   UNL     1       2.107   7.928  18.737  0.00  0.00    +0.000 NA
ENDBRANCH   5   7
BRANCH   1  17
ATOM     17  O   UNL     1       5.328   3.760  18.751  0.00  0.00    +0.000 OA
BRANCH  17  21
ATOM     18  C   UNL     1       6.891   4.612  15.572  0.00  0.00    +0.000 C 
ATOM     19  N   UNL     1       6.600   4.549  16.990  0.00  0.00    +0.000 N 
ATOM     20  C   UNL     1       7.682   4.719  17.942  0.00  0.00    +0.000 C 
ATOM     21  C   UNL     1       5.388   3.986  17.374  0.00  0.00    +0.000 C 
ATOM     22  O   UNL     1       4.492   3.702  16.585  0.00  0.00    +0.000 OA
ENDBRANCH  17  21
ENDBRANCH   1  17
TORSDOF 3
ENDMDL
MODEL 8
REMARK VINA RESULT:      -7.5      0.798      1.399
REMARK  Name = 
REMARK  5 active torsions:
REMARK  status: ('A' for Active; 'I' for Inactive)
REMARK    1  A    between atoms: C_1  and  N_2
REMARK    2  A    between atoms: N_2  and  C_3
REMARK    3  A    between atoms: C_4  and  O_6
REMARK    4  A    between atoms: O_6  and  C_7
REMARK    5  A    between atoms: C_11  and  C_12
REMARK                            x       y       z     vdW  Elec       q    Type
REMARK                         _______ _______ _______ _____ _____    ______ ____
ROOT
ATOM      1  C   UNL     1       4.944   4.421  18.439  0.00  0.00    +0.000 A 
ATOM      2  C   UNL     1       4.246   3.381  17.828  0.00  0.00    +0.000 A 
ATOM      3  C   UNL     1       2.873   3.506  17.623  0.00  0.00    +0.000 A 
ATOM      4  C   UNL     1       2.206   4.666  18.030  0.00  0.00    +0.000 A 
ATOM      5  C   UNL     1       2.909   5.713  18.643  0.00  0.00    +0.000 A 
ATOM      6  C   UNL     1       4.291   5.591  18.826  0.00  0.00    +0.000 A 
ENDROOT
BRANCH   5   7
ATOM      7  C   UNL     1       2.243   6.918  19.105  0.00  0.00    +0.000 A 
ATOM      8  C   UNL     1       1.700   7.112  20.358  0.00  0.00    +0.000 A 
ATOM      9  N   UNL     1       1.275   8.413  20.376  0.00  0.00    +0.000 N 
ATOM     10  C   UNL     1       0.693   9.135  21.412  0.00  0.00    +0.000 A 
ATOM     11  C   UNL     1       0.368  10.420  21.202  0.00  0.00    +0.000 A 
ATOM     12 CL   UNL     1      -0.338  11.384  22.435  0.00  0.00    +0.000 Cl
ATOM     13  C   UNL     1       0.624  11.017  19.898  0.00  0.00    +0.000 A 
ATOM     14  C   UNL     1       1.190  10.305  18.902  0.00  0.00    +0.000 A 
ATOM     15  C   UNL     1       1.551   8.945  19.122  0.00  0.00    +0.000 A 
ATOM     16  N   UNL     1       2.133   8.062  18.343  0.00  0.00    +0.000 NA
ENDBRANCH   5   7
BRANCH   1  17
ATOM     17  O   UNL     1       6.343   4.296  18.521  0.00  0.00    +0.000 OA
BRANCH  17  21
ATOM     18  C   UNL     1       8.120   7.470  18.303  0.00  0.00    +0.000 C 
ATOM     19  N   UNL     1       7.543   6.188  17.953  0.00  0.00    +0.000 N 
ATOM     20  C   UNL     1       7.128   5.951  16.582  0.00  0.00    +0.000 C 
ATOM     21  C   UNL     1       7.089   5.380  18.990  0.00  0.00    +0.000 C 
ATOM     22  O   UNL     1       7.305   5.614  20.175  0.00  0.00    +0.000 OA
ENDBRANCH  17  21
ENDBRANCH   1  17
TORSDOF 3
ENDMDL
MODEL 9
REMARK VINA RESULT:      -7.4      2.241      3.379
REMARK  Name = 
REMARK  5 active torsions:
REMARK  status: ('A' for Active; 'I' for Inactive)
REMARK    1  A    between atoms: C_1  and  N_2
REMARK    2  A    between atoms: N_2  and  C_3
REMARK    3  A    between atoms: C_4  and  O_6
REMARK    4  A    between atoms: O_6  and  C_7
REMARK    5  A    between atoms: C_11  and  C_12
REMARK                            x       y       z     vdW  Elec       q    Type
REMARK                         _______ _______ _______ _____ _____    ______ ____
ROOT
ATOM      1  C   UNL     1       3.509   4.635  17.819  0.00  0.00    +0.000 A 
ATOM      2  C   UNL     1       4.542   4.901  16.923  0.00  0.00    +0.000 A 
ATOM      3  C   UNL     1       4.830   6.222  16.583  0.00  0.00    +0.000 A 
ATOM      4  C   UNL     1       4.085   7.267  17.139  0.00  0.00    +0.000 A 
ATOM      5  C   UNL     1       3.047   6.999  18.043  0.00  0.00    +0.000 A 
ATOM      6  C   UNL     1       2.778   5.672  18.397  0.00  0.00    +0.000 A 
ENDROOT
BRANCH   5   7
ATOM      7  C   UNL     1       2.235   8.058  18.615  0.00  0.00    +0.000 A 
ATOM      8  C   UNL     1       1.701   9.128  17.928  0.00  0.00    +0.000 A 
ATOM      9  N   UNL     1       0.935   9.804  18.839  0.00  0.00    +0.000 N 
ATOM     10  C   UNL     1       0.144  10.934  18.660  0.00  0.00    +0.000 A 
ATOM     11  C   UNL     1      -0.539  11.418  19.709  0.00  0.00    +0.000 A 
ATOM     12 CL   UNL     1      -1.551  12.797  19.565  0.00  0.00    +0.000 Cl
ATOM     13  C   UNL     1      -0.426  10.756  21.001  0.00  0.00    +0.000 A 
ATOM     14  C   UNL     1       0.345   9.661  21.162  0.00  0.00    +0.000 A 
ATOM     15  C   UNL     1       1.061   9.132  20.050  0.00  0.00    +0.000 A 
ATOM     16  N   UNL     1       1.839   8.079  19.935  0.00  0.00    +0.000 NA
ENDBRANCH   5   7
BRANCH   1  17
ATOM     17  O   UNL     1       3.331   3.298  18.217  0.00  0.00    +0.000 OA
BRANCH  17  21
ATOM     18  C   UNL     1       2.604   2.183  21.609  0.00  0.00    +0.000 C 
ATOM     19  N   UNL     1       2.465   2.781  20.297  0.00  0.00    +0.000 N 
ATOM     20  C   UNL     1       1.150   2.845  19.685  0.00  0.00    +0.000 C 
ATOM     21  C   UNL     1       3.619   2.944  19.538  0.00  0.00    +0.000 C 
ATOM     22  O   UNL     1       4.751   2.770  19.979  0.00  0.00    +0.000 OA
ENDBRANCH  17  21
ENDBRANCH   1  17
TORSDOF 3
ENDMDL
