MODEL 1
REMARK VINA RESULT:      -8.9      0.000      0.000
REMARK  Name = 
REMARK  0 active torsions:
REMARK  status: ('A' for Active; 'I' for Inactive)
REMARK                            x       y       z     vdW  Elec       q    Type
REMARK                         _______ _______ _______ _____ _____    ______ ____
ROOT
ATOM      1  O   UNL     1       8.182   4.810  18.305  0.00  0.00    +0.000 OA
ATOM      2  C   UNL     1       7.047   4.698  17.862  0.00  0.00    +0.000 C 
ATOM      3  C   UNL     1       5.828   4.659  18.807  0.00  0.00    +0.000 C 
ATOM      4  O   UNL     1       6.005   4.879  20.000  0.00  0.00    +0.000 OA
ATOM      5  C   UNL     1       4.474   4.280  18.259  0.00  0.00    +0.000 A 
ATOM      6  C   UNL     1       4.338   4.073  16.865  0.00  0.00    +0.000 A 
ATOM      7  C   UNL     1       3.129   3.606  16.339  0.00  0.00    +0.000 A 
ATOM      8  C   UNL     1       2.122   3.203  17.199  0.00  0.00    +0.000 A 
ATOM      9  C   UNL     1       2.226   3.444  18.568  0.00  0.00    +0.000 A 
ATOM     10  C   UNL     1       1.177   3.068  19.401  0.00  0.00    +0.000 A 
ATOM     11  C   UNL     1       0.901   3.819  20.525  0.00  0.00    +0.000 A 
ATOM     12  C   UNL     1       1.909   4.608  21.046  0.00  0.00    +0.000 A 
ATOM     13  C   UNL     1       3.162   4.635  20.421  0.00  0.00    +0.000 A 
ATOM     14  C   UNL     1       3.335   4.123  19.107  0.00  0.00    +0.000 A 
ATOM     15  C   UNL     1       5.432   4.329  15.966  0.00  0.00    +0.000 A 
ATOM     16  C   UNL     1       5.568   4.300  14.563  0.00  0.00    +0.000 A 
ATOM     17  C   UNL     1       6.921   4.555  14.304  0.00  0.00    +0.000 A 
ATOM     18  O   UNL     1       7.588   4.725  15.472  0.00  0.00    +0.000 OA
ATOM     19  C   UNL     1       6.679   4.592  16.479  0.00  0.00    +0.000 A 
ENDROOT
TORSDOF 0
ENDMDL
MODEL 2
REMARK VINA RESULT:      -8.1      1.640      1.670
REMARK  Name = 
REMARK  0 active torsions:
REMARK  status: ('A' for Active; 'I' for Inactive)
REMARK                            x       y       z     vdW  Elec       q    Type
REMARK                         _______ _______ _______ _____ _____    ______ ____
ROOT
ATOM      1  O   UNL     1       6.165   7.633  17.010  0.00  0.00    +0.000 OA
ATOM      2  C   UNL     1       5.591   6.556  16.916  0.00  0.00    +0.000 C 
ATOM      3  C   UNL     1       4.465   6.170  17.897  0.00  0.00    +0.000 C 
ATOM      4  O   UNL     1       4.061   7.016  18.688  0.00  0.00    +0.000 OA
ATOM      5  C   UNL     1       3.946   4.753  17.913  0.00  0.00    +0.000 A 
ATOM      6  C   UNL     1       4.433   3.839  16.948  0.00  0.00    +0.000 A 
ATOM      7  C   UNL     1       4.064   2.491  17.008  0.00  0.00    +0.000 A 
ATOM      8  C   UNL     1       3.346   2.028  18.097  0.00  0.00    +0.000 A 
ATOM      9  C   UNL     1       2.823   2.924  19.027  0.00  0.00    +0.000 A 
ATOM     10  C   UNL     1       2.068   2.431  20.087  0.00  0.00    +0.000 A 
ATOM     11  C   UNL     1       1.030   3.189  20.590  0.00  0.00    +0.000 A 
ATOM     12  C   UNL     1       1.055   4.554  20.374  0.00  0.00    +0.000 A 
ATOM     13  C   UNL     1       2.109   5.122  19.648  0.00  0.00    +0.000 A 
ATOM     14  C   UNL     1       2.982   4.315  18.872  0.00  0.00    +0.000 A 
ATOM     15  C   UNL     1       5.319   4.270  15.898  0.00  0.00    +0.000 A 
ATOM     16  C   UNL     1       5.884   3.630  14.776  0.00  0.00    +0.000 A 
ATOM     17  C   UNL     1       6.743   4.569  14.191  0.00  0.00    +0.000 A 
ATOM     18  O   UNL     1       6.720   5.720  14.908  0.00  0.00    +0.000 OA
ATOM     19  C   UNL     1       5.850   5.536  15.941  0.00  0.00    +0.000 A 
ENDROOT
TORSDOF 0
ENDMDL
MODEL 3
REMARK VINA RESULT:      -8.0      3.502      4.420
REMARK  Name = 
REMARK  0 active torsions:
REMARK  status: ('A' for Active; 'I' for Inactive)
REMARK                            x       y       z     vdW  Elec       q    Type
REMARK                         _______ _______ _______ _____ _____    ______ ____
ROOT
ATOM      1  O   UNL     1       3.016   2.942  19.802  0.00  0.00    +0.000 OA
ATOM      2  C   UNL     1       3.155   4.079  19.371  0.00  0.00    +0.000 C 
ATOM      3  C   UNL     1       2.497   5.281  20.080  0.00  0.00    +0.000 C 
ATOM      4  O   UNL     1       1.946   5.095  21.159  0.00  0.00    +0.000 OA
ATOM      5  C   UNL     1       2.481   6.628  19.399  0.00  0.00    +0.000 A 
ATOM      6  C   UNL     1       3.168   6.777  18.170  0.00  0.00    +0.000 A 
ATOM      7  C   UNL     1       3.075   7.976  17.455  0.00  0.00    +0.000 A 
ATOM      8  C   UNL     1       2.191   8.954  17.875  0.00  0.00    +0.000 A 
ATOM      9  C   UNL     1       1.545   8.838  19.105  0.00  0.00    +0.000 A 
ATOM     10  C   UNL     1       0.697   9.859  19.521  0.00  0.00    +0.000 A 
ATOM     11  C   UNL     1       0.590  10.147  20.866  0.00  0.00    +0.000 A 
ATOM     12  C   UNL     1       0.932   9.161  21.773  0.00  0.00    +0.000 A 
ATOM     13  C   UNL     1       1.385   7.920  21.309  0.00  0.00    +0.000 A 
ATOM     14  C   UNL     1       1.793   7.747  19.960  0.00  0.00    +0.000 A 
ATOM     15  C   UNL     1       3.963   5.706  17.629  0.00  0.00    +0.000 A 
ATOM     16  C   UNL     1       4.807   5.590  16.505  0.00  0.00    +0.000 A 
ATOM     17  C   UNL     1       5.219   4.252  16.472  0.00  0.00    +0.000 A 
ATOM     18  O   UNL     1       4.662   3.574  17.506  0.00  0.00    +0.000 OA
ATOM     19  C   UNL     1       3.904   4.463  18.210  0.00  0.00    +0.000 A 
ENDROOT
TORSDOF 0
ENDMDL
MODEL 4
REMARK VINA RESULT:      -7.8      3.175      4.753
REMARK  Name = 
REMARK  0 active torsions:
REMARK  status: ('A' for Active; 'I' for Inactive)
REMARK                            x       y       z     vdW  Elec       q    Type
REMARK                         _______ _______ _______ _____ _____    ______ ____
ROOT
ATOM      1  O   UNL     1       6.140   4.578  17.601  0.00  0.00    +0.000 OA
ATOM      2  C   UNL     1       5.089   4.764  18.201  0.00  0.00    +0.000 C 
ATOM      3  C   UNL     1       4.286   6.067  18.007  0.00  0.00    +0.000 C 
ATOM      4  O   UNL     1       4.648   6.855  17.139  0.00  0.00    +0.000 OA
ATOM      5  C   UNL     1       3.132   6.374  18.931  0.00  0.00    +0.000 A 
ATOM      6  C   UNL     1       2.749   5.402  19.886  0.00  0.00    +0.000 A 
ATOM      7  C   UNL     1       1.765   5.700  20.834  0.00  0.00    +0.000 A 
ATOM      8  C   UNL     1       1.279   6.992  20.930  0.00  0.00    +0.000 A 
ATOM      9  C   UNL     1       1.613   7.943  19.968  0.00  0.00    +0.000 A 
ATOM     10  C   UNL     1       1.073   9.221  20.067  0.00  0.00    +0.000 A 
ATOM     11  C   UNL     1       0.797   9.932  18.916  0.00  0.00    +0.000 A 
ATOM     12  C   UNL     1       1.470   9.586  17.759  0.00  0.00    +0.000 A 
ATOM     13  C   UNL     1       2.388   8.529  17.781  0.00  0.00    +0.000 A 
ATOM     14  C   UNL     1       2.425   7.613  18.865  0.00  0.00    +0.000 A 
ATOM     15  C   UNL     1       3.364   4.100  19.910  0.00  0.00    +0.000 A 
ATOM     16  C   UNL     1       3.139   2.929  20.662  0.00  0.00    +0.000 A 
ATOM     17  C   UNL     1       4.140   2.029  20.278  0.00  0.00    +0.000 A 
ATOM     18  O   UNL     1       4.943   2.604  19.349  0.00  0.00    +0.000 OA
ATOM     19  C   UNL     1       4.465   3.861  19.124  0.00  0.00    +0.000 A 
ENDROOT
TORSDOF 0
ENDMDL
MODEL 5
REMARK VINA RESULT:      -7.7      3.103      4.441
REMARK  Name = 
REMARK  0 active torsions:
REMARK  status: ('A' for Active; 'I' for Inactive)
REMARK                            x       y       z     vdW  Elec       q    Type
REMARK                         _______ _______ _______ _____ _____    ______ ____
ROOT
ATOM      1  O   UNL     1       5.627   4.449  16.375  0.00  0.00    +0.000 OA
ATOM      2  C   UNL     1       4.657   4.578  17.110  0.00  0.00    +0.000 C 
ATOM      3  C   UNL     1       4.011   5.962  17.334  0.00  0.00    +0.000 C 
ATOM      4  O   UNL     1       4.402   6.907  16.657  0.00  0.00    +0.000 OA
ATOM      5  C   UNL     1       2.979   6.134  18.422  0.00  0.00    +0.000 A 
ATOM      6  C   UNL     1       2.552   4.992  19.140  0.00  0.00    +0.000 A 
ATOM      7  C   UNL     1       1.688   5.131  20.231  0.00  0.00    +0.000 A 
ATOM      8  C   UNL     1       1.377   6.396  20.697  0.00  0.00    +0.000 A 
ATOM      9  C   UNL     1       1.754   7.526  19.973  0.00  0.00    +0.000 A 
ATOM     10  C   UNL     1       1.387   8.782  20.444  0.00  0.00    +0.000 A 
ATOM     11  C   UNL     1       1.116   9.792  19.543  0.00  0.00    +0.000 A 
ATOM     12  C   UNL     1       1.649   9.692  18.271  0.00  0.00    +0.000 A 
ATOM     13  C   UNL     1       2.426   8.578  17.931  0.00  0.00    +0.000 A 
ATOM     14  C   UNL     1       2.430   7.413  18.743  0.00  0.00    +0.000 A 
ATOM     15  C   UNL     1       2.998   3.673  18.773  0.00  0.00    +0.000 A 
ATOM     16  C   UNL     1       2.686   2.376  19.230  0.00  0.00    +0.000 A 
ATOM     17  C   UNL     1       3.534   1.509  18.529  0.00  0.00    +0.000 A 
ATOM     18  O   UNL     1       4.330   2.221  17.693  0.00  0.00    +0.000 OA
ATOM     19  C   UNL     1       3.997   3.535  17.840  0.00  0.00    +0.000 A 
ENDROOT
TORSDOF 0
ENDMDL
MODEL 6
REMARK VINA RESULT:      -7.6      2.292      5.765
REMARK  Name = 
REMARK  0 active torsions:
REMARK  status: ('A' for Active; 'I' for Inactive)
REMARK                            x       y       z     vdW  Elec       q    Type
REMARK                         _______ _______ _______ _____ _____    ______ ____
ROOT
ATOM      1  O   UNL     1       2.362   2.468  19.993  0.00  0.00    +0.000 OA
ATOM      2  C   UNL     1       2.709   3.471  19.383  0.00  0.00    +0.000 C 
ATOM      3  C   UNL     1       3.598   3.365  18.126  0.00  0.00    +0.000 C 
ATOM      4  O   UNL     1       3.838   2.252  17.670  0.00  0.00    +0.000 OA
ATOM      5  C   UNL     1       4.206   4.615  17.538  0.00  0.00    +0.000 A 
ATOM      6  C   UNL     1       3.857   5.868  18.095  0.00  0.00    +0.000 A 
ATOM      7  C   UNL     1       4.491   7.034  17.653  0.00  0.00    +0.000 A 
ATOM      8  C   UNL     1       5.564   6.939  16.784  0.00  0.00    +0.000 A 
ATOM      9  C   UNL     1       5.888   5.718  16.195  0.00  0.00    +0.000 A 
ATOM     10  C   UNL     1       6.944   5.664  15.291  0.00  0.00    +0.000 A 
ATOM     11  C   UNL     1       6.891   4.773  14.239  0.00  0.00    +0.000 A 
ATOM     12  C   UNL     1       6.065   3.671  14.359  0.00  0.00    +0.000 A 
ATOM     13  C   UNL     1       5.305   3.497  15.522  0.00  0.00    +0.000 A 
ATOM     14  C   UNL     1       5.122   4.562  16.442  0.00  0.00    +0.000 A 
ATOM     15  C   UNL     1       2.855   5.971  19.124  0.00  0.00    +0.000 A 
ATOM     16  C   UNL     1       2.250   7.055  19.791  0.00  0.00    +0.000 A 
ATOM     17  C   UNL     1       1.414   6.490  20.761  0.00  0.00    +0.000 A 
ATOM     18  O   UNL     1       1.497   5.138  20.708  0.00  0.00    +0.000 OA
ATOM     19  C   UNL     1       2.370   4.826  19.708  0.00  0.00    +0.000 A 
ENDROOT
TORSDOF 0
ENDMDL
MODEL 7
REMARK VINA RESULT:      -7.5      4.875      7.336
REMARK  Name = 
REMARK  0 active torsions:
REMARK  status: ('A' for Active; 'I' for Inactive)
REMARK                            x       y       z     vdW  Elec       q    Type
REMARK                         _______ _______ _______ _____ _____    ______ ____
ROOT
ATOM      1  O   UNL     1       0.367  11.508  18.613  0.00  0.00    +0.000 OA
ATOM      2  C   UNL     1       0.752  10.505  19.199  0.00  0.00    +0.000 C 
ATOM      3  C   UNL     1       1.678   9.486  18.502  0.00  0.00    +0.000 C 
ATOM      4  O   UNL     1       2.131   9.766  17.397  0.00  0.00    +0.000 OA
ATOM      5  C   UNL     1       1.939   8.150  19.155  0.00  0.00    +0.000 A 
ATOM      6  C   UNL     1       1.411   7.909  20.446  0.00  0.00    +0.000 A 
ATOM      7  C   UNL     1       1.532   6.644  21.029  0.00  0.00    +0.000 A 
ATOM      8  C   UNL     1       2.033   5.593  20.280  0.00  0.00    +0.000 A 
ATOM      9  C   UNL     1       2.597   5.827  19.027  0.00  0.00    +0.000 A 
ATOM     10  C   UNL     1       3.132   4.757  18.318  0.00  0.00    +0.000 A 
ATOM     11  C   UNL     1       4.223   4.964  17.498  0.00  0.00    +0.000 A 
ATOM     12  C   UNL     1       4.459   6.246  17.039  0.00  0.00    +0.000 A 
ATOM     13  C   UNL     1       3.607   7.288  17.424  0.00  0.00    +0.000 A 
ATOM     14  C   UNL     1       2.699   7.131  18.504  0.00  0.00    +0.000 A 
ATOM     15  C   UNL     1       0.736   8.949  21.178  0.00  0.00    +0.000 A 
ATOM     16  C   UNL     1       0.197   9.033  22.479  0.00  0.00    +0.000 A 
ATOM     17  C   UNL     1      -0.415  10.290  22.559  0.00  0.00    +0.000 A 
ATOM     18  O   UNL     1      -0.274  10.946  21.380  0.00  0.00    +0.000 OA
ATOM     19  C   UNL     1       0.431  10.129  20.546  0.00  0.00    +0.000 A 
ENDROOT
TORSDOF 0
ENDMDL
MODEL 8
REMARK VINA RESULT:      -7.4      1.941      3.054
REMARK  Name = 
REMARK  0 active torsions:
REMARK  status: ('A' for Active; 'I' for Inactive)
REMARK                            x       y       z     vdW  Elec       q    Type
REMARK                         _______ _______ _______ _____ _____    ______ ____
ROOT
ATOM      1  O   UNL     1       7.627   4.597  15.032  0.00  0.00    +0.000 OA
ATOM      2  C   UNL     1       6.857   4.954  15.915  0.00  0.00    +0.000 C 
ATOM      3  C   UNL     1       5.682   4.055  16.352  0.00  0.00    +0.000 C 
ATOM      4  O   UNL     1       5.612   2.919  15.896  0.00  0.00    +0.000 OA
ATOM      5  C   UNL     1       4.616   4.616  17.262  0.00  0.00    +0.000 A 
ATOM      6  C   UNL     1       4.780   5.924  17.777  0.00  0.00    +0.000 A 
ATOM      7  C   UNL     1       3.758   6.518  18.524  0.00  0.00    +0.000 A 
ATOM      8  C   UNL     1       2.532   5.884  18.628  0.00  0.00    +0.000 A 
ATOM      9  C   UNL     1       2.373   4.579  18.165  0.00  0.00    +0.000 A 
ATOM     10  C   UNL     1       1.141   3.953  18.324  0.00  0.00    +0.000 A 
ATOM     11  C   UNL     1       1.095   2.589  18.531  0.00  0.00    +0.000 A 
ATOM     12  C   UNL     1       2.175   1.830  18.120  0.00  0.00    +0.000 A 
ATOM     13  C   UNL     1       3.277   2.457  17.526  0.00  0.00    +0.000 A 
ATOM     14  C   UNL     1       3.452   3.864  17.610  0.00  0.00    +0.000 A 
ATOM     15  C   UNL     1       5.989   6.670  17.539  0.00  0.00    +0.000 A 
ATOM     16  C   UNL     1       6.465   7.921  17.981  0.00  0.00    +0.000 A 
ATOM     17  C   UNL     1       7.679   8.126  17.314  0.00  0.00    +0.000 A 
ATOM     18  O   UNL     1       7.941   7.072  16.502  0.00  0.00    +0.000 OA
ATOM     19  C   UNL     1       6.913   6.187  16.646  0.00  0.00    +0.000 A 
ENDROOT
TORSDOF 0
ENDMDL
MODEL 9
REMARK VINA RESULT:      -7.4      3.839      6.097
REMARK  Name = 
REMARK  0 active torsions:
REMARK  status: ('A' for Active; 'I' for Inactive)
REMARK                            x       y       z     vdW  Elec       q    Type
REMARK                         _______ _______ _______ _____ _____    ______ ____
ROOT
ATOM      1  O   UNL     1       1.939  10.182  17.560  0.00  0.00    +0.000 OA
ATOM      2  C   UNL     1       2.004   9.226  18.321  0.00  0.00    +0.000 C 
ATOM      3  C   UNL     1       2.641   7.895  17.868  0.00  0.00    +0.000 C 
ATOM      4  O   UNL     1       3.203   7.855  16.779  0.00  0.00    +0.000 OA
ATOM      5  C   UNL     1       2.491   6.667  18.733  0.00  0.00    +0.000 A 
ATOM      6  C   UNL     1       1.860   6.795  19.993  0.00  0.00    +0.000 A 
ATOM      7  C   UNL     1       1.599   5.660  20.767  0.00  0.00    +0.000 A 
ATOM      8  C   UNL     1       1.821   4.404  20.231  0.00  0.00    +0.000 A 
ATOM      9  C   UNL     1       2.483   4.265  19.012  0.00  0.00    +0.000 A 
ATOM     10  C   UNL     1       2.731   2.988  18.520  0.00  0.00    +0.000 A 
ATOM     11  C   UNL     1       3.872   2.756  17.779  0.00  0.00    +0.000 A 
ATOM     12  C   UNL     1       4.475   3.833  17.157  0.00  0.00    +0.000 A 
ATOM     13  C   UNL     1       3.930   5.114  17.305  0.00  0.00    +0.000 A 
ATOM     14  C   UNL     1       2.966   5.388  18.312  0.00  0.00    +0.000 A 
ATOM     15  C   UNL     1       1.468   8.085  20.500  0.00  0.00    +0.000 A 
ATOM     16  C   UNL     1       0.916   8.526  21.720  0.00  0.00    +0.000 A 
ATOM     17  C   UNL     1       0.674   9.896  21.558  0.00  0.00    +0.000 A 
ATOM     18  O   UNL     1       1.044  10.284  20.312  0.00  0.00    +0.000 OA
ATOM     19  C   UNL     1       1.531   9.181  19.675  0.00  0.00    +0.000 A 
ENDROOT
TORSDOF 0
ENDMDL
