MODEL 1
REMARK VINA RESULT:      -8.0      0.000      0.000
REMARK  Name = 
REMARK  8 active torsions:
REMARK  status: ('A' for Active; 'I' for Inactive)
REMARK    1  A    between atoms: C_1  and  C_2
REMARK    2  A    between atoms: C_2  and  C_3
REMARK    3  A    between atoms: C_2  and  C_4
REMARK    4  A    between atoms: C_4  and  N_5
REMARK    5  A    between atoms: C_6  and  S_7
REMARK    6  A    between atoms: S_7  and  C_8
REMARK    7  A    between atoms: C_8  and  C_9
REMARK    8  A    between atoms: C_15  and  C_17
REMARK                            x       y       z     vdW  Elec       q    Type
REMARK                         _______ _______ _______ _____ _____    ______ ____
ROOT
ATOM      1  S   UNL     1       2.314   7.123  19.563  0.00  0.00    +0.000 S 
ENDROOT
BRANCH   1   3
ATOM      2  N   UNL     1       3.408   4.664  18.911  0.00  0.00    +0.000 N 
ATOM      3  C   UNL     1       3.263   6.010  18.537  0.00  0.00    +0.000 A 
ATOM      4  N   UNL     1       3.789   6.492  17.452  0.00  0.00    +0.000 NA
ATOM      5  C   UNL     1       4.587   5.649  16.657  0.00  0.00    +0.000 A 
ATOM      6  C   UNL     1       5.360   6.194  15.628  0.00  0.00    +0.000 A 
ATOM      7  C   UNL     1       6.210   5.385  14.857  0.00  0.00    +0.000 A 
ATOM      8  C   UNL     1       6.290   4.014  15.095  0.00  0.00    +0.000 A 
ATOM      9  C   UNL     1       5.517   3.454  16.105  0.00  0.00    +0.000 A 
ATOM     10  C   UNL     1       4.679   4.280  16.873  0.00  0.00    +0.000 A 
ATOM     11  C   UNL     1       3.959   3.733  18.020  0.00  0.00    +0.000 A 
ATOM     12  O   UNL     1       3.933   2.517  18.177  0.00  0.00    +0.000 OA
BRANCH   2  13
ATOM     13  C   UNL     1       3.148   4.089  20.239  0.00  0.00    +0.000 C 
BRANCH  13  15
ATOM     14  C   UNL     1       0.944   3.347  19.219  0.00  0.00    +0.000 C 
ATOM     15  C   UNL     1       1.641   3.804  20.507  0.00  0.00    +0.000 C 
ATOM     16  C   UNL     1       1.330   2.773  21.604  0.00  0.00    +0.000 C 
ENDBRANCH  13  15
ENDBRANCH   2  13
ENDBRANCH   1   3
BRANCH   1  17
ATOM     17  C   UNL     1       1.429   8.177  18.316  0.00  0.00    +0.000 C 
BRANCH  17  18
ATOM     18  C   UNL     1       1.895   9.670  18.212  0.00  0.00    +0.000 C 
ATOM     19  O   UNL     1       2.767  10.033  17.418  0.00  0.00    +0.000 OA
ATOM     20  N   UNL     1       1.192  10.625  18.990  0.00  0.00    +0.000 N 
ATOM     21  C   UNL     1       1.431  12.088  18.846  0.00  0.00    +0.000 C 
ATOM     22  C   UNL     1       0.106  12.906  18.844  0.00  0.00    +0.000 C 
ATOM     23  N   UNL     1      -0.785  12.515  19.951  0.00  0.00    +0.000 N 
ATOM     24  C   UNL     1      -1.593  13.483  20.576  0.00  0.00    +0.000 C 
ATOM     25  O   UNL     1      -1.602  14.643  20.153  0.00  0.00    +0.000 OA
ATOM     26  C   UNL     1      -1.010  11.067  20.027  0.00  0.00    +0.000 C 
ATOM     27  C   UNL     1       0.322  10.315  20.132  0.00  0.00    +0.000 C 
BRANCH  24  28
ATOM     28  C   UNL     1      -2.406  13.103  21.716  0.00  0.00    +0.000 A 
ATOM     29  C   UNL     1      -2.048  12.596  22.961  0.00  0.00    +0.000 A 
ATOM     30  C   UNL     1      -3.248  12.368  23.688  0.00  0.00    +0.000 A 
ATOM     31  C   UNL     1      -4.269  12.700  22.832  0.00  0.00    +0.000 A 
ATOM     32  O   UNL     1      -3.777  13.109  21.635  0.00  0.00    +0.000 OA
ENDBRANCH  24  28
ENDBRANCH  17  18
ENDBRANCH   1  17
TORSDOF 6
ENDMDL
MODEL 2
REMARK VINA RESULT:      -8.0      0.829      1.141
REMARK  Name = 
REMARK  8 active torsions:
REMARK  status: ('A' for Active; 'I' for Inactive)
REMARK    1  A    between atoms: C_1  and  C_2
REMARK    2  A    between atoms: C_2  and  C_3
REMARK    3  A    between atoms: C_2  and  C_4
REMARK    4  A    between atoms: C_4  and  N_5
REMARK    5  A    between atoms: C_6  and  S_7
REMARK    6  A    between atoms: S_7  and  C_8
REMARK    7  A    between atoms: C_8  and  C_9
REMARK    8  A    between atoms: C_15  and  C_17
REMARK                            x       y       z     vdW  Elec       q    Type
REMARK                         _______ _______ _______ _____ _____    ______ ____
ROOT
ATOM      1  S   UNL     1       2.119   7.487  19.487  0.00  0.00    +0.000 S 
ENDROOT
BRANCH   1   3
ATOM      2  N   UNL     1       2.523   5.013  18.310  0.00  0.00    +0.000 N 
ATOM      3  C   UNL     1       2.986   6.333  18.434  0.00  0.00    +0.000 A 
ATOM      4  N   UNL     1       4.031   6.768  17.797  0.00  0.00    +0.000 NA
ATOM      5  C   UNL     1       4.764   5.864  17.006  0.00  0.00    +0.000 A 
ATOM      6  C   UNL     1       6.017   6.232  16.512  0.00  0.00    +0.000 A 
ATOM      7  C   UNL     1       6.795   5.330  15.770  0.00  0.00    +0.000 A 
ATOM      8  C   UNL     1       6.324   4.047  15.498  0.00  0.00    +0.000 A 
ATOM      9  C   UNL     1       5.072   3.669  15.969  0.00  0.00    +0.000 A 
ATOM     10  C   UNL     1       4.312   4.582  16.719  0.00  0.00    +0.000 A 
ATOM     11  C   UNL     1       3.054   4.162  17.333  0.00  0.00    +0.000 A 
ATOM     12  O   UNL     1       2.575   3.078  17.016  0.00  0.00    +0.000 OA
BRANCH   2  13
ATOM     13  C   UNL     1       1.577   4.327  19.203  0.00  0.00    +0.000 C 
BRANCH  13  15
ATOM     14  C   UNL     1       1.243   2.911  21.284  0.00  0.00    +0.000 C 
ATOM     15  C   UNL     1       2.235   3.785  20.505  0.00  0.00    +0.000 C 
ATOM     16  C   UNL     1       3.533   2.981  20.326  0.00  0.00    +0.000 C 
ENDBRANCH  13  15
ENDBRANCH   2  13
ENDBRANCH   1   3
BRANCH   1  17
ATOM     17  C   UNL     1       1.299   8.621  18.267  0.00  0.00    +0.000 C 
BRANCH  17  18
ATOM     18  C   UNL     1       1.776  10.114  18.276  0.00  0.00    +0.000 C 
ATOM     19  O   UNL     1       2.696  10.515  17.558  0.00  0.00    +0.000 OA
ATOM     20  N   UNL     1       1.033  11.028  19.065  0.00  0.00    +0.000 N 
ATOM     21  C   UNL     1       1.285  12.496  19.020  0.00  0.00    +0.000 C 
ATOM     22  C   UNL     1      -0.034  13.322  18.987  0.00  0.00    +0.000 C 
ATOM     23  N   UNL     1      -0.990  12.875  20.016  0.00  0.00    +0.000 N 
ATOM     24  C   UNL     1      -1.830  13.812  20.646  0.00  0.00    +0.000 C 
ATOM     25  O   UNL     1      -1.810  14.994  20.291  0.00  0.00    +0.000 OA
ATOM     26  C   UNL     1      -1.226  11.427  19.995  0.00  0.00    +0.000 C 
ATOM     27  C   UNL     1       0.095  10.660  20.135  0.00  0.00    +0.000 C 
BRANCH  24  28
ATOM     28  C   UNL     1      -2.712  13.373  21.713  0.00  0.00    +0.000 A 
ATOM     29  C   UNL     1      -4.088  13.179  21.734  0.00  0.00    +0.000 A 
ATOM     30  C   UNL     1      -4.440  12.773  23.050  0.00  0.00    +0.000 A 
ATOM     31  C   UNL     1      -3.271  12.790  23.768  0.00  0.00    +0.000 A 
ATOM     32  O   UNL     1      -2.233  13.181  22.986  0.00  0.00    +0.000 OA
ENDBRANCH  24  28
ENDBRANCH  17  18
ENDBRANCH   1  17
TORSDOF 6
ENDMDL
MODEL 3
REMARK VINA RESULT:      -8.0      2.370      2.875
REMARK  Name = 
REMARK  8 active torsions:
REMARK  status: ('A' for Active; 'I' for Inactive)
REMARK    1  A    between atoms: C_1  and  C_2
REMARK    2  A    between atoms: C_2  and  C_3
REMARK    3  A    between atoms: C_2  and  C_4
REMARK    4  A    between atoms: C_4  and  N_5
REMARK    5  A    between atoms: C_6  and  S_7
REMARK    6  A    between atoms: S_7  and  C_8
REMARK    7  A    between atoms: C_8  and  C_9
REMARK    8  A    between atoms: C_15  and  C_17
REMARK                            x       y       z     vdW  Elec       q    Type
REMARK                         _______ _______ _______ _____ _____    ______ ____
ROOT
ATOM      1  S   UNL     1       1.495   6.372  20.536  0.00  0.00    +0.000 S 
ENDROOT
BRANCH   1   3
ATOM      2  N   UNL     1       2.139   4.417  18.684  0.00  0.00    +0.000 N 
ATOM      3  C   UNL     1       2.481   5.667  19.223  0.00  0.00    +0.000 A 
ATOM      4  N   UNL     1       3.496   6.356  18.796  0.00  0.00    +0.000 NA
ATOM      5  C   UNL     1       4.320   5.797  17.803  0.00  0.00    +0.000 A 
ATOM      6  C   UNL     1       5.546   6.396  17.501  0.00  0.00    +0.000 A 
ATOM      7  C   UNL     1       6.415   5.828  16.556  0.00  0.00    +0.000 A 
ATOM      8  C   UNL     1       6.064   4.657  15.887  0.00  0.00    +0.000 A 
ATOM      9  C   UNL     1       4.842   4.056  16.164  0.00  0.00    +0.000 A 
ATOM     10  C   UNL     1       3.989   4.633  17.120  0.00  0.00    +0.000 A 
ATOM     11  C   UNL     1       2.762   3.949  17.519  0.00  0.00    +0.000 A 
ATOM     12  O   UNL     1       2.387   2.980  16.867  0.00  0.00    +0.000 OA
BRANCH   2  13
ATOM     13  C   UNL     1       1.239   3.419  19.282  0.00  0.00    +0.000 C 
BRANCH  13  15
ATOM     14  C   UNL     1       3.456   2.663  20.267  0.00  0.00    +0.000 C 
ATOM     15  C   UNL     1       1.929   2.528  20.357  0.00  0.00    +0.000 C 
ATOM     16  C   UNL     1       1.518   2.784  21.816  0.00  0.00    +0.000 C 
ENDBRANCH  13  15
ENDBRANCH   2  13
ENDBRANCH   1   3
BRANCH   1  17
ATOM     17  C   UNL     1       1.916   8.178  20.441  0.00  0.00    +0.000 C 
BRANCH  17  18
ATOM     18  C   UNL     1       1.321   9.090  21.569  0.00  0.00    +0.000 C 
ATOM     19  O   UNL     1       1.915   9.295  22.631  0.00  0.00    +0.000 OA
ATOM     20  N   UNL     1       0.113   9.773  21.281  0.00  0.00    +0.000 N 
ATOM     21  C   UNL     1      -0.455  10.795  22.205  0.00  0.00    +0.000 C 
ATOM     22  C   UNL     1      -0.980  12.050  21.448  0.00  0.00    +0.000 C 
ATOM     23  N   UNL     1      -1.834  11.686  20.304  0.00  0.00    +0.000 N 
ATOM     24  C   UNL     1      -2.926  12.504  19.957  0.00  0.00    +0.000 C 
ATOM     25  O   UNL     1      -3.128  13.556  20.571  0.00  0.00    +0.000 OA
ATOM     26  C   UNL     1      -1.215  10.702  19.410  0.00  0.00    +0.000 C 
ATOM     27  C   UNL     1      -0.810   9.443  20.186  0.00  0.00    +0.000 C 
BRANCH  24  28
ATOM     28  C   UNL     1      -3.808  12.094  18.878  0.00  0.00    +0.000 A 
ATOM     29  C   UNL     1      -5.159  11.766  18.882  0.00  0.00    +0.000 A 
ATOM     30  C   UNL     1      -5.512  11.405  17.554  0.00  0.00    +0.000 A 
ATOM     31  C   UNL     1      -4.351  11.485  16.826  0.00  0.00    +0.000 A 
ATOM     32  O   UNL     1      -3.315  11.864  17.617  0.00  0.00    +0.000 OA
ENDBRANCH  24  28
ENDBRANCH  17  18
ENDBRANCH   1  17
TORSDOF 6
ENDMDL
MODEL 4
REMARK VINA RESULT:      -7.9      2.289     10.416
REMARK  Name = 
REMARK  8 active torsions:
REMARK  status: ('A' for Active; 'I' for Inactive)
REMARK    1  A    between atoms: C_1  and  C_2
REMARK    2  A    between atoms: C_2  and  C_3
REMARK    3  A    between atoms: C_2  and  C_4
REMARK    4  A    between atoms: C_4  and  N_5
REMARK    5  A    between atoms: C_6  and  S_7
REMARK    6  A    between atoms: S_7  and  C_8
REMARK    7  A    between atoms: C_8  and  C_9
REMARK    8  A    between atoms: C_15  and  C_17
REMARK                            x       y       z     vdW  Elec       q    Type
REMARK                         _______ _______ _______ _____ _____    ______ ____
ROOT
ATOM      1  S   UNL     1       0.299   9.909  18.559  0.00  0.00    +0.000 S 
ENDROOT
BRANCH   1   3
ATOM      2  N   UNL     1      -1.941  11.514  18.831  0.00  0.00    +0.000 N 
ATOM      3  C   UNL     1      -0.822  10.958  19.471  0.00  0.00    +0.000 A 
ATOM      4  N   UNL     1      -0.563  11.167  20.727  0.00  0.00    +0.000 NA
ATOM      5  C   UNL     1      -1.399  12.035  21.454  0.00  0.00    +0.000 A 
ATOM      6  C   UNL     1      -1.012  12.470  22.723  0.00  0.00    +0.000 A 
ATOM      7  C   UNL     1      -1.798  13.381  23.446  0.00  0.00    +0.000 A 
ATOM      8  C   UNL     1      -2.993  13.861  22.914  0.00  0.00    +0.000 A 
ATOM      9  C   UNL     1      -3.401  13.427  21.658  0.00  0.00    +0.000 A 
ATOM     10  C   UNL     1      -2.596  12.523  20.945  0.00  0.00    +0.000 A 
ATOM     11  C   UNL     1      -2.940  12.156  19.573  0.00  0.00    +0.000 A 
ATOM     12  O   UNL     1      -4.037  12.482  19.132  0.00  0.00    +0.000 OA
BRANCH   2  13
ATOM     13  C   UNL     1      -2.159  11.619  17.381  0.00  0.00    +0.000 C 
BRANCH  13  15
ATOM     14  C   UNL     1      -3.465   9.443  17.483  0.00  0.00    +0.000 C 
ATOM     15  C   UNL     1      -2.424  10.249  16.692  0.00  0.00    +0.000 C 
ATOM     16  C   UNL     1      -2.885  10.302  15.226  0.00  0.00    +0.000 C 
ENDBRANCH  13  15
ENDBRANCH   2  13
ENDBRANCH   1   3
BRANCH   1  17
ATOM     17  C   UNL     1       1.545   9.419  19.846  0.00  0.00    +0.000 C 
BRANCH  17  18
ATOM     18  C   UNL     1       1.394   7.980  20.447  0.00  0.00    +0.000 C 
ATOM     19  O   UNL     1       0.553   7.711  21.309  0.00  0.00    +0.000 OA
ATOM     20  N   UNL     1       2.191   6.953  19.879  0.00  0.00    +0.000 N 
ATOM     21  C   UNL     1       2.012   5.520  20.250  0.00  0.00    +0.000 C 
ATOM     22  C   UNL     1       2.063   4.579  19.010  0.00  0.00    +0.000 C 
ATOM     23  N   UNL     1       3.219   4.870  18.144  0.00  0.00    +0.000 N 
ATOM     24  C   UNL     1       3.867   3.822  17.465  0.00  0.00    +0.000 C 
ATOM     25  O   UNL     1       3.427   2.671  17.545  0.00  0.00    +0.000 OA
ATOM     26  C   UNL     1       3.329   6.288  17.785  0.00  0.00    +0.000 C 
ATOM     27  C   UNL     1       3.380   7.165  19.043  0.00  0.00    +0.000 C 
BRANCH  24  28
ATOM     28  C   UNL     1       5.053   4.109  16.678  0.00  0.00    +0.000 A 
ATOM     29  C   UNL     1       5.250   4.121  15.301  0.00  0.00    +0.000 A 
ATOM     30  C   UNL     1       6.616   4.437  15.070  0.00  0.00    +0.000 A 
ATOM     31  C   UNL     1       7.186   4.552  16.314  0.00  0.00    +0.000 A 
ATOM     32  O   UNL     1       6.265   4.323  17.285  0.00  0.00    +0.000 OA
ENDBRANCH  24  28
ENDBRANCH  17  18
ENDBRANCH   1  17
TORSDOF 6
ENDMDL
MODEL 5
REMARK VINA RESULT:      -7.9      2.456      3.897
REMARK  Name = 
REMARK  8 active torsions:
REMARK  status: ('A' for Active; 'I' for Inactive)
REMARK    1  A    between atoms: C_1  and  C_2
REMARK    2  A    between atoms: C_2  and  C_3
REMARK    3  A    between atoms: C_2  and  C_4
REMARK    4  A    between atoms: C_4  and  N_5
REMARK    5  A    between atoms: C_6  and  S_7
REMARK    6  A    between atoms: S_7  and  C_8
REMARK    7  A    between atoms: C_8  and  C_9
REMARK    8  A    between atoms: C_15  and  C_17
REMARK                            x       y       z     vdW  Elec       q    Type
REMARK                         _______ _______ _______ _____ _____    ______ ____
ROOT
ATOM      1  S   UNL     1       1.873   7.154  20.383  0.00  0.00    +0.000 S 
ENDROOT
BRANCH   1   3
ATOM      2  N   UNL     1       2.289   4.928  18.789  0.00  0.00    +0.000 N 
ATOM      3  C   UNL     1       2.698   6.236  19.092  0.00  0.00    +0.000 A 
ATOM      4  N   UNL     1       3.663   6.830  18.455  0.00  0.00    +0.000 NA
ATOM      5  C   UNL     1       4.366   6.109  17.471  0.00  0.00    +0.000 A 
ATOM      6  C   UNL     1       5.553   6.626  16.948  0.00  0.00    +0.000 A 
ATOM      7  C   UNL     1       6.305   5.903  16.009  0.00  0.00    +0.000 A 
ATOM      8  C   UNL     1       5.872   4.653  15.568  0.00  0.00    +0.000 A 
ATOM      9  C   UNL     1       4.686   4.130  16.068  0.00  0.00    +0.000 A 
ATOM     10  C   UNL     1       3.951   4.864  17.014  0.00  0.00    +0.000 A 
ATOM     11  C   UNL     1       2.773   4.277  17.647  0.00  0.00    +0.000 A 
ATOM     12  O   UNL     1       2.320   3.230  17.196  0.00  0.00    +0.000 OA
BRANCH   2  13
ATOM     13  C   UNL     1       1.457   4.053  19.628  0.00  0.00    +0.000 C 
BRANCH  13  15
ATOM     14  C   UNL     1       1.265   2.635  21.727  0.00  0.00    +0.000 C 
ATOM     15  C   UNL     1       2.217   3.464  20.853  0.00  0.00    +0.000 C 
ATOM     16  C   UNL     1       3.445   2.595  20.537  0.00  0.00    +0.000 C 
ENDBRANCH  13  15
ENDBRANCH   2  13
ENDBRANCH   1   3
BRANCH   1  17
ATOM     17  C   UNL     1       1.490   8.772  19.558  0.00  0.00    +0.000 C 
BRANCH  17  18
ATOM     18  C   UNL     1       0.384   9.653  20.235  0.00  0.00    +0.000 C 
ATOM     19  O   UNL     1      -0.491   9.169  20.957  0.00  0.00    +0.000 OA
ATOM     20  N   UNL     1       0.488  11.058  20.079  0.00  0.00    +0.000 N 
ATOM     21  C   UNL     1      -0.402  12.001  20.814  0.00  0.00    +0.000 C 
ATOM     22  C   UNL     1       0.375  13.223  21.386  0.00  0.00    +0.000 C 
ATOM     23  N   UNL     1       1.254  13.839  20.376  0.00  0.00    +0.000 N 
ATOM     24  C   UNL     1       1.457  15.231  20.379  0.00  0.00    +0.000 C 
ATOM     25  O   UNL     1       0.950  15.926  21.266  0.00  0.00    +0.000 OA
ATOM     26  C   UNL     1       2.130  12.871  19.706  0.00  0.00    +0.000 C 
ATOM     27  C   UNL     1       1.308  11.743  19.071  0.00  0.00    +0.000 C 
BRANCH  24  28
ATOM     28  C   UNL     1       2.261  15.836  19.332  0.00  0.00    +0.000 A 
ATOM     29  C   UNL     1       1.899  16.373  18.102  0.00  0.00    +0.000 A 
ATOM     30  C   UNL     1       3.091  16.800  17.457  0.00  0.00    +0.000 A 
ATOM     31  C   UNL     1       4.115  16.456  18.304  0.00  0.00    +0.000 A 
ATOM     32  O   UNL     1       3.632  15.846  19.416  0.00  0.00    +0.000 OA
ENDBRANCH  24  28
ENDBRANCH  17  18
ENDBRANCH   1  17
TORSDOF 6
ENDMDL
MODEL 6
REMARK VINA RESULT:      -7.9      2.426     10.222
REMARK  Name = 
REMARK  8 active torsions:
REMARK  status: ('A' for Active; 'I' for Inactive)
REMARK    1  A    between atoms: C_1  and  C_2
REMARK    2  A    between atoms: C_2  and  C_3
REMARK    3  A    between atoms: C_2  and  C_4
REMARK    4  A    between atoms: C_4  and  N_5
REMARK    5  A    between atoms: C_6  and  S_7
REMARK    6  A    between atoms: S_7  and  C_8
REMARK    7  A    between atoms: C_8  and  C_9
REMARK    8  A    between atoms: C_15  and  C_17
REMARK                            x       y       z     vdW  Elec       q    Type
REMARK                         _______ _______ _______ _____ _____    ______ ____
ROOT
ATOM      1  S   UNL     1       0.721  10.496  20.839  0.00  0.00    +0.000 S 
ENDROOT
BRANCH   1   3
ATOM      2  N   UNL     1      -1.720  11.756  20.483  0.00  0.00    +0.000 N 
ATOM      3  C   UNL     1      -0.751  10.913  19.916  0.00  0.00    +0.000 A 
ATOM      4  N   UNL     1      -0.871  10.420  18.720  0.00  0.00    +0.000 NA
ATOM      5  C   UNL     1      -2.047  10.689  17.995  0.00  0.00    +0.000 A 
ATOM      6  C   UNL     1      -2.314   9.981  16.820  0.00  0.00    +0.000 A 
ATOM      7  C   UNL     1      -3.506  10.185  16.108  0.00  0.00    +0.000 A 
ATOM      8  C   UNL     1      -4.445  11.114  16.553  0.00  0.00    +0.000 A 
ATOM      9  C   UNL     1      -4.189  11.838  17.712  0.00  0.00    +0.000 A 
ATOM     10  C   UNL     1      -2.995  11.612  18.417  0.00  0.00    +0.000 A 
ATOM     11  C   UNL     1      -2.766  12.266  19.703  0.00  0.00    +0.000 A 
ATOM     12  O   UNL     1      -3.527  13.161  20.055  0.00  0.00    +0.000 OA
BRANCH   2  13
ATOM     13  C   UNL     1      -1.855  12.104  21.906  0.00  0.00    +0.000 C 
BRANCH  13  15
ATOM     14  C   UNL     1      -1.585  13.850  23.731  0.00  0.00    +0.000 C 
ATOM     15  C   UNL     1      -1.425  13.564  22.231  0.00  0.00    +0.000 C 
ATOM     16  C   UNL     1       0.006  13.957  21.826  0.00  0.00    +0.000 C 
ENDBRANCH  13  15
ENDBRANCH   2  13
ENDBRANCH   1   3
BRANCH   1  17
ATOM     17  C   UNL     1       1.472   9.137  19.822  0.00  0.00    +0.000 C 
BRANCH  17  18
ATOM     18  C   UNL     1       1.479   7.709  20.468  0.00  0.00    +0.000 C 
ATOM     19  O   UNL     1       0.722   7.401  21.392  0.00  0.00    +0.000 OA
ATOM     20  N   UNL     1       2.317   6.731  19.873  0.00  0.00    +0.000 N 
ATOM     21  C   UNL     1       2.281   5.301  20.290  0.00  0.00    +0.000 C 
ATOM     22  C   UNL     1       2.325   4.330  19.074  0.00  0.00    +0.000 C 
ATOM     23  N   UNL     1       3.393   4.685  18.123  0.00  0.00    +0.000 N 
ATOM     24  C   UNL     1       4.078   3.671  17.428  0.00  0.00    +0.000 C 
ATOM     25  O   UNL     1       3.739   2.492  17.567  0.00  0.00    +0.000 OA
ATOM     26  C   UNL     1       3.364   6.096  17.722  0.00  0.00    +0.000 C 
ATOM     27  C   UNL     1       3.427   7.011  18.951  0.00  0.00    +0.000 C 
BRANCH  24  28
ATOM     28  C   UNL     1       5.181   4.027  16.554  0.00  0.00    +0.000 A 
ATOM     29  C   UNL     1       5.290   3.998  15.168  0.00  0.00    +0.000 A 
ATOM     30  C   UNL     1       6.605   4.422  14.835  0.00  0.00    +0.000 A 
ATOM     31  C   UNL     1       7.238   4.640  16.034  0.00  0.00    +0.000 A 
ATOM     32  O   UNL     1       6.405   4.373  17.071  0.00  0.00    +0.000 OA
ENDBRANCH  24  28
ENDBRANCH  17  18
ENDBRANCH   1  17
TORSDOF 6
ENDMDL
MODEL 7
REMARK VINA RESULT:      -7.9      1.436      1.714
REMARK  Name = 
REMARK  8 active torsions:
REMARK  status: ('A' for Active; 'I' for Inactive)
REMARK    1  A    between atoms: C_1  and  C_2
REMARK    2  A    between atoms: C_2  and  C_3
REMARK    3  A    between atoms: C_2  and  C_4
REMARK    4  A    between atoms: C_4  and  N_5
REMARK    5  A    between atoms: C_6  and  S_7
REMARK    6  A    between atoms: S_7  and  C_8
REMARK    7  A    between atoms: C_8  and  C_9
REMARK    8  A    between atoms: C_15  and  C_17
REMARK                            x       y       z     vdW  Elec       q    Type
REMARK                         _______ _______ _______ _____ _____    ______ ____
ROOT
ATOM      1  S   UNL     1       1.554   6.362  20.426  0.00  0.00    +0.000 S 
ENDROOT
BRANCH   1   3
ATOM      2  N   UNL     1       2.206   4.424  18.559  0.00  0.00    +0.000 N 
ATOM      3  C   UNL     1       2.567   5.651  19.137  0.00  0.00    +0.000 A 
ATOM      4  N   UNL     1       3.619   6.315  18.762  0.00  0.00    +0.000 NA
ATOM      5  C   UNL     1       4.463   5.749  17.789  0.00  0.00    +0.000 A 
ATOM      6  C   UNL     1       5.717   6.314  17.546  0.00  0.00    +0.000 A 
ATOM      7  C   UNL     1       6.603   5.737  16.623  0.00  0.00    +0.000 A 
ATOM      8  C   UNL     1       6.241   4.591  15.917  0.00  0.00    +0.000 A 
ATOM      9  C   UNL     1       4.991   4.025  16.135  0.00  0.00    +0.000 A 
ATOM     10  C   UNL     1       4.121   4.611  17.071  0.00  0.00    +0.000 A 
ATOM     11  C   UNL     1       2.858   3.959  17.409  0.00  0.00    +0.000 A 
ATOM     12  O   UNL     1       2.478   3.015  16.724  0.00  0.00    +0.000 OA
BRANCH   2  13
ATOM     13  C   UNL     1       1.254   3.444  19.102  0.00  0.00    +0.000 C 
BRANCH  13  15
ATOM     14  C   UNL     1       3.405   2.623  20.174  0.00  0.00    +0.000 C 
ATOM     15  C   UNL     1       1.874   2.508  20.181  0.00  0.00    +0.000 C 
ATOM     16  C   UNL     1       1.392   2.722  21.625  0.00  0.00    +0.000 C 
ENDBRANCH  13  15
ENDBRANCH   2  13
ENDBRANCH   1   3
BRANCH   1  17
ATOM     17  C   UNL     1       1.996   8.164  20.349  0.00  0.00    +0.000 C 
BRANCH  17  18
ATOM     18  C   UNL     1       1.306   9.002  19.218  0.00  0.00    +0.000 C 
ATOM     19  O   UNL     1       1.297   8.636  18.040  0.00  0.00    +0.000 OA
ATOM     20  N   UNL     1       0.582  10.155  19.615  0.00  0.00    +0.000 N 
ATOM     21  C   UNL     1      -0.254  10.930  18.656  0.00  0.00    +0.000 C 
ATOM     22  C   UNL     1      -1.626  11.342  19.266  0.00  0.00    +0.000 C 
ATOM     23  N   UNL     1      -1.477  11.941  20.604  0.00  0.00    +0.000 N 
ATOM     24  C   UNL     1      -2.343  12.973  21.010  0.00  0.00    +0.000 C 
ATOM     25  O   UNL     1      -3.266  13.329  20.271  0.00  0.00    +0.000 OA
ATOM     26  C   UNL     1      -0.672  11.122  21.517  0.00  0.00    +0.000 C 
ATOM     27  C   UNL     1       0.708  10.832  20.913  0.00  0.00    +0.000 C 
BRANCH  24  28
ATOM     28  C   UNL     1      -2.137  13.610  22.299  0.00  0.00    +0.000 A 
ATOM     29  C   UNL     1      -1.061  14.341  22.790  0.00  0.00    +0.000 A 
ATOM     30  C   UNL     1      -1.371  14.705  24.129  0.00  0.00    +0.000 A 
ATOM     31  C   UNL     1      -2.592  14.136  24.395  0.00  0.00    +0.000 A 
ATOM     32  O   UNL     1      -3.045  13.448  23.316  0.00  0.00    +0.000 OA
ENDBRANCH  24  28
ENDBRANCH  17  18
ENDBRANCH   1  17
TORSDOF 6
ENDMDL
MODEL 8
REMARK VINA RESULT:      -7.8      2.340      9.992
REMARK  Name = 
REMARK  8 active torsions:
REMARK  status: ('A' for Active; 'I' for Inactive)
REMARK    1  A    between atoms: C_1  and  C_2
REMARK    2  A    between atoms: C_2  and  C_3
REMARK    3  A    between atoms: C_2  and  C_4
REMARK    4  A    between atoms: C_4  and  N_5
REMARK    5  A    between atoms: C_6  and  S_7
REMARK    6  A    between atoms: S_7  and  C_8
REMARK    7  A    between atoms: C_8  and  C_9
REMARK    8  A    between atoms: C_15  and  C_17
REMARK                            x       y       z     vdW  Elec       q    Type
REMARK                         _______ _______ _______ _____ _____    ______ ____
ROOT
ATOM      1  S   UNL     1       1.069   9.668  18.592  0.00  0.00    +0.000 S 
ENDROOT
BRANCH   1   3
ATOM      2  N   UNL     1      -0.472  11.923  19.051  0.00  0.00    +0.000 N 
ATOM      3  C   UNL     1       0.804  11.429  18.738  0.00  0.00    +0.000 A 
ATOM      4  N   UNL     1       1.828  12.208  18.557  0.00  0.00    +0.000 NA
ATOM      5  C   UNL     1       1.634  13.601  18.612  0.00  0.00    +0.000 A 
ATOM      6  C   UNL     1       2.648  14.460  18.183  0.00  0.00    +0.000 A 
ATOM      7  C   UNL     1       2.461  15.851  18.171  0.00  0.00    +0.000 A 
ATOM      8  C   UNL     1       1.258  16.406  18.603  0.00  0.00    +0.000 A 
ATOM      9  C   UNL     1       0.243  15.566  19.047  0.00  0.00    +0.000 A 
ATOM     10  C   UNL     1       0.445  14.176  19.042  0.00  0.00    +0.000 A 
ATOM     11  C   UNL     1      -0.652  13.273  19.381  0.00  0.00    +0.000 A 
ATOM     12  O   UNL     1      -1.677  13.743  19.864  0.00  0.00    +0.000 OA
BRANCH   2  13
ATOM     13  C   UNL     1      -1.743  11.190  18.959  0.00  0.00    +0.000 C 
BRANCH  13  15
ATOM     14  C   UNL     1      -2.169   9.960  16.777  0.00  0.00    +0.000 C 
ATOM     15  C   UNL     1      -2.402  11.266  17.550  0.00  0.00    +0.000 C 
ATOM     16  C   UNL     1      -3.909  11.570  17.520  0.00  0.00    +0.000 C 
ENDBRANCH  13  15
ENDBRANCH   2  13
ENDBRANCH   1   3
BRANCH   1  17
ATOM     17  C   UNL     1       1.564   9.182  20.314  0.00  0.00    +0.000 C 
BRANCH  17  18
ATOM     18  C   UNL     1       1.297   7.692  20.719  0.00  0.00    +0.000 C 
ATOM     19  O   UNL     1       0.386   7.373  21.488  0.00  0.00    +0.000 OA
ATOM     20  N   UNL     1       2.074   6.695  20.077  0.00  0.00    +0.000 N 
ATOM     21  C   UNL     1       1.795   5.242  20.253  0.00  0.00    +0.000 C 
ATOM     22  C   UNL     1       1.879   4.457  18.911  0.00  0.00    +0.000 C 
ATOM     23  N   UNL     1       3.105   4.780  18.160  0.00  0.00    +0.000 N 
ATOM     24  C   UNL     1       3.740   3.784  17.395  0.00  0.00    +0.000 C 
ATOM     25  O   UNL     1       3.235   2.661  17.304  0.00  0.00    +0.000 OA
ATOM     26  C   UNL     1       3.314   6.222  17.988  0.00  0.00    +0.000 C 
ATOM     27  C   UNL     1       3.326   6.934  19.347  0.00  0.00    +0.000 C 
BRANCH  24  28
ATOM     28  C   UNL     1       4.990   4.092  16.723  0.00  0.00    +0.000 A 
ATOM     29  C   UNL     1       5.304   4.154  15.370  0.00  0.00    +0.000 A 
ATOM     30  C   UNL     1       6.686   4.469  15.268  0.00  0.00    +0.000 A 
ATOM     31  C   UNL     1       7.148   4.532  16.560  0.00  0.00    +0.000 A 
ATOM     32  O   UNL     1       6.148   4.274  17.439  0.00  0.00    +0.000 OA
ENDBRANCH  24  28
ENDBRANCH  17  18
ENDBRANCH   1  17
TORSDOF 6
ENDMDL
MODEL 9
REMARK VINA RESULT:      -7.7      2.285      3.458
REMARK  Name = 
REMARK  8 active torsions:
REMARK  status: ('A' for Active; 'I' for Inactive)
REMARK    1  A    between atoms: C_1  and  C_2
REMARK    2  A    between atoms: C_2  and  C_3
REMARK    3  A    between atoms: C_2  and  C_4
REMARK    4  A    between atoms: C_4  and  N_5
REMARK    5  A    between atoms: C_6  and  S_7
REMARK    6  A    between atoms: S_7  and  C_8
REMARK    7  A    between atoms: C_8  and  C_9
REMARK    8  A    between atoms: C_15  and  C_17
REMARK                            x       y       z     vdW  Elec       q    Type
REMARK                         _______ _______ _______ _____ _____    ______ ____
ROOT
ATOM      1  S   UNL     1       1.767   6.440  20.793  0.00  0.00    +0.000 S 
ENDROOT
BRANCH   1   3
ATOM      2  N   UNL     1       2.177   4.578  18.784  0.00  0.00    +0.000 N 
ATOM      3  C   UNL     1       2.632   5.764  19.383  0.00  0.00    +0.000 A 
ATOM      4  N   UNL     1       3.667   6.414  18.944  0.00  0.00    +0.000 NA
ATOM      5  C   UNL     1       4.398   5.872  17.871  0.00  0.00    +0.000 A 
ATOM      6  C   UNL     1       5.644   6.410  17.539  0.00  0.00    +0.000 A 
ATOM      7  C   UNL     1       6.421   5.853  16.511  0.00  0.00    +0.000 A 
ATOM      8  C   UNL     1       5.956   4.755  15.788  0.00  0.00    +0.000 A 
ATOM      9  C   UNL     1       4.712   4.217  16.096  0.00  0.00    +0.000 A 
ATOM     10  C   UNL     1       3.953   4.782  17.134  0.00  0.00    +0.000 A 
ATOM     11  C   UNL     1       2.705   4.152  17.558  0.00  0.00    +0.000 A 
ATOM     12  O   UNL     1       2.231   3.256  16.868  0.00  0.00    +0.000 OA
BRANCH   2  13
ATOM     13  C   UNL     1       1.245   3.602  19.367  0.00  0.00    +0.000 C 
BRANCH  13  15
ATOM     14  C   UNL     1       3.455   2.671  20.204  0.00  0.00    +0.000 C 
ATOM     15  C   UNL     1       1.928   2.598  20.342  0.00  0.00    +0.000 C 
ATOM     16  C   UNL     1       1.581   2.755  21.832  0.00  0.00    +0.000 C 
ENDBRANCH  13  15
ENDBRANCH   2  13
ENDBRANCH   1   3
BRANCH   1  17
ATOM     17  C   UNL     1       1.516   8.215  20.309  0.00  0.00    +0.000 C 
BRANCH  17  18
ATOM     18  C   UNL     1       0.254   8.926  20.907  0.00  0.00    +0.000 C 
ATOM     19  O   UNL     1      -0.604   8.315  21.549  0.00  0.00    +0.000 OA
ATOM     20  N   UNL     1       0.185  10.337  20.782  0.00  0.00    +0.000 N 
ATOM     21  C   UNL     1      -0.876  11.137  21.457  0.00  0.00    +0.000 C 
ATOM     22  C   UNL     1      -0.314  12.435  22.108  0.00  0.00    +0.000 C 
ATOM     23  N   UNL     1       0.554  13.185  21.183  0.00  0.00    +0.000 N 
ATOM     24  C   UNL     1       0.571  14.592  21.224  0.00  0.00    +0.000 C 
ATOM     25  O   UNL     1      -0.091  15.191  22.077  0.00  0.00    +0.000 OA
ATOM     26  C   UNL     1       1.599  12.357  20.572  0.00  0.00    +0.000 C 
ATOM     27  C   UNL     1       0.985  11.148  19.854  0.00  0.00    +0.000 C 
BRANCH  24  28
ATOM     28  C   UNL     1       1.368  15.322  20.255  0.00  0.00    +0.000 A 
ATOM     29  C   UNL     1       2.605  15.945  20.380  0.00  0.00    +0.000 A 
ATOM     30  C   UNL     1       2.910  16.540  19.125  0.00  0.00    +0.000 A 
ATOM     31  C   UNL     1       1.823  16.291  18.323  0.00  0.00    +0.000 A 
ATOM     32  O   UNL     1       0.878  15.592  19.001  0.00  0.00    +0.000 OA
ENDBRANCH  24  28
ENDBRANCH  17  18
ENDBRANCH   1  17
TORSDOF 6
ENDMDL
