MODEL 1
REMARK VINA RESULT:      -6.9      0.000      0.000
REMARK  Name = 
REMARK  8 active torsions:
REMARK  status: ('A' for Active; 'I' for Inactive)
REMARK    1  A    between atoms: C_1  and  C_2
REMARK    2  A    between atoms: N_4  and  C_5
REMARK    3  A    between atoms: C_6  and  C_7
REMARK    4  A    between atoms: C_8  and  C_9
REMARK    5  A    between atoms: C_9  and  O_10
REMARK    6  A    between atoms: C_9  and  C_11
REMARK    7  A    between atoms: C_11  and  N_12
REMARK    8  A    between atoms: N_15  and  C_16
REMARK                            x       y       z     vdW  Elec       q    Type
REMARK                         _______ _______ _______ _____ _____    ______ ____
ROOT
ATOM      1  C   UNL     1       7.482   6.885  17.866  0.00  0.00    +0.000 C 
ENDROOT
BRANCH   1   2
ATOM      2  N   UNL     1       8.400   7.661  18.700  0.00  0.00    +0.000 N 
ATOM      3  C   UNL     1       8.502   9.014  18.481  0.00  0.00    +0.000 C 
ATOM      4  O   UNL     1       7.817   9.617  17.666  0.00  0.00    +0.000 OA
ATOM      5  N   UNL     1       9.363   9.624  19.356  0.00  0.00    +0.000 N 
ATOM      6  H   UNL     1       9.244   7.194  19.000  0.00  0.00    +0.000 HD
ATOM      7  H   UNL     1      10.165   9.081  19.635  0.00  0.00    +0.000 HD
BRANCH   5   8
ATOM      8  C   UNL     1       9.497  11.086  19.378  0.00  0.00    +0.000 C 
ATOM      9  C   UNL     1      10.574  11.531  18.377  0.00  0.00    +0.000 C 
ATOM     10  C   UNL     1      10.903  13.016  18.514  0.00  0.00    +0.000 C 
ATOM     11  C   UNL     1      11.211  13.366  19.959  0.00  0.00    +0.000 C 
ATOM     12  O   UNL     1      10.100  13.031  20.783  0.00  0.00    +0.000 OA
ATOM     13  C   UNL     1       9.837  11.625  20.787  0.00  0.00    +0.000 C 
ENDBRANCH   5   8
ENDBRANCH   1   2
BRANCH   1  14
ATOM     14  C   UNL     1       6.967   5.595  18.536  0.00  0.00    +0.000 C 
BRANCH  14  22
ATOM     15  C   UNL     1       6.796   4.245  15.520  0.00  0.00    +0.000 C 
ATOM     16  C   UNL     1       5.717   4.422  16.524  0.00  0.00    +0.000 A 
ATOM     17  N   UNL     1       4.480   4.010  16.233  0.00  0.00    +0.000 NA
ATOM     18  N   UNL     1       3.779   4.227  17.355  0.00  0.00    +0.000 N 
ATOM     19  C   UNL     1       2.393   3.822  17.402  0.00  0.00    +0.000 C 
ATOM     20  C   UNL     1       4.509   4.824  18.347  0.00  0.00    +0.000 A 
ATOM     21  C   UNL     1       3.969   5.162  19.691  0.00  0.00    +0.000 C 
ATOM     22  C   UNL     1       5.789   4.988  17.829  0.00  0.00    +0.000 A 
ENDBRANCH  14  22
BRANCH  14  23
ATOM     23  O   UNL     1       8.039   4.662  18.692  0.00  0.00    +0.000 OA
ATOM     24  H   UNL     1       8.738   5.135  19.175  0.00  0.00    +0.000 HD
ENDBRANCH  14  23
ENDBRANCH   1  14
TORSDOF 5
ENDMDL
MODEL 2
REMARK VINA RESULT:      -6.8      3.913      5.996
REMARK  Name = 
REMARK  8 active torsions:
REMARK  status: ('A' for Active; 'I' for Inactive)
REMARK    1  A    between atoms: C_1  and  C_2
REMARK    2  A    between atoms: N_4  and  C_5
REMARK    3  A    between atoms: C_6  and  C_7
REMARK    4  A    between atoms: C_8  and  C_9
REMARK    5  A    between atoms: C_9  and  O_10
REMARK    6  A    between atoms: C_9  and  C_11
REMARK    7  A    between atoms: C_11  and  N_12
REMARK    8  A    between atoms: N_15  and  C_16
REMARK                            x       y       z     vdW  Elec       q    Type
REMARK                         _______ _______ _______ _____ _____    ______ ____
ROOT
ATOM      1  C   UNL     1       3.512   1.907  18.496  0.00  0.00    +0.000 C 
ENDROOT
BRANCH   1   2
ATOM      2  N   UNL     1       4.599   2.730  19.027  0.00  0.00    +0.000 N 
ATOM      3  C   UNL     1       5.284   3.550  18.164  0.00  0.00    +0.000 C 
ATOM      4  O   UNL     1       4.991   3.678  16.983  0.00  0.00    +0.000 OA
ATOM      5  N   UNL     1       6.245   4.294  18.797  0.00  0.00    +0.000 N 
ATOM      6  H   UNL     1       5.136   2.335  19.787  0.00  0.00    +0.000 HD
ATOM      7  H   UNL     1       6.715   3.843  19.568  0.00  0.00    +0.000 HD
BRANCH   5   8
ATOM      8  C   UNL     1       6.986   5.335  18.074  0.00  0.00    +0.000 C 
ATOM      9  C   UNL     1       7.788   6.195  19.062  0.00  0.00    +0.000 C 
ATOM     10  C   UNL     1       8.403   7.418  18.387  0.00  0.00    +0.000 C 
ATOM     11  C   UNL     1       7.351   8.185  17.604  0.00  0.00    +0.000 C 
ATOM     12  O   UNL     1       6.760   7.331  16.630  0.00  0.00    +0.000 OA
ATOM     13  C   UNL     1       6.058   6.237  17.227  0.00  0.00    +0.000 C 
ENDBRANCH   5   8
ENDBRANCH   1   2
BRANCH   1  14
ATOM     14  C   UNL     1       2.175   2.660  18.344  0.00  0.00    +0.000 C 
BRANCH  14  22
ATOM     15  C   UNL     1       1.676   2.565  21.613  0.00  0.00    +0.000 C 
ATOM     16  C   UNL     1       1.789   3.746  20.722  0.00  0.00    +0.000 A 
ATOM     17  N   UNL     1       1.674   4.971  21.243  0.00  0.00    +0.000 NA
ATOM     18  N   UNL     1       1.906   5.799  20.215  0.00  0.00    +0.000 N 
ATOM     19  C   UNL     1       1.924   7.224  20.455  0.00  0.00    +0.000 C 
ATOM     20  C   UNL     1       2.109   5.150  19.027  0.00  0.00    +0.000 A 
ATOM     21  C   UNL     1       2.396   5.837  17.740  0.00  0.00    +0.000 C 
ATOM     22  C   UNL     1       2.018   3.793  19.317  0.00  0.00    +0.000 A 
ENDBRANCH  14  22
BRANCH  14  23
ATOM     23  O   UNL     1       2.002   3.086  16.990  0.00  0.00    +0.000 OA
ATOM     24  H   UNL     1       1.062   3.316  16.899  0.00  0.00    +0.000 HD
ENDBRANCH  14  23
ENDBRANCH   1  14
TORSDOF 5
ENDMDL
MODEL 3
REMARK VINA RESULT:      -6.5      2.541      8.695
REMARK  Name = 
REMARK  8 active torsions:
REMARK  status: ('A' for Active; 'I' for Inactive)
REMARK    1  A    between atoms: C_1  and  C_2
REMARK    2  A    between atoms: N_4  and  C_5
REMARK    3  A    between atoms: C_6  and  C_7
REMARK    4  A    between atoms: C_8  and  C_9
REMARK    5  A    between atoms: C_9  and  O_10
REMARK    6  A    between atoms: C_9  and  C_11
REMARK    7  A    between atoms: C_11  and  N_12
REMARK    8  A    between atoms: N_15  and  C_16
REMARK                            x       y       z     vdW  Elec       q    Type
REMARK                         _______ _______ _______ _____ _____    ______ ____
ROOT
ATOM      1  C   UNL     1       8.858  10.058  18.531  0.00  0.00    +0.000 C 
ENDROOT
BRANCH   1   2
ATOM      2  N   UNL     1       7.952   9.310  17.659  0.00  0.00    +0.000 N 
ATOM      3  C   UNL     1       7.852   7.950  17.826  0.00  0.00    +0.000 C 
ATOM      4  O   UNL     1       8.435   7.337  18.711  0.00  0.00    +0.000 OA
ATOM      5  N   UNL     1       6.941   7.381  16.976  0.00  0.00    +0.000 N 
ATOM      6  H   UNL     1       7.850   9.650  16.713  0.00  0.00    +0.000 HD
ATOM      7  H   UNL     1       6.874   7.798  16.060  0.00  0.00    +0.000 HD
BRANCH   5   8
ATOM      8  C   UNL     1       6.586   5.962  17.098  0.00  0.00    +0.000 C 
ATOM      9  C   UNL     1       6.305   5.367  15.709  0.00  0.00    +0.000 C 
ATOM     10  C   UNL     1       5.726   3.958  15.797  0.00  0.00    +0.000 C 
ATOM     11  C   UNL     1       4.537   3.924  16.742  0.00  0.00    +0.000 C 
ATOM     12  O   UNL     1       4.935   4.373  18.033  0.00  0.00    +0.000 OA
ATOM     13  C   UNL     1       5.365   5.738  18.020  0.00  0.00    +0.000 C 
ENDBRANCH   5   8
ENDBRANCH   1   2
BRANCH   1  14
ATOM     14  C   UNL     1       9.356  11.386  17.925  0.00  0.00    +0.000 C 
BRANCH  14  22
ATOM     15  C   UNL     1      11.038  12.071  20.690  0.00  0.00    +0.000 C 
ATOM     16  C   UNL     1       9.934  12.836  20.057  0.00  0.00    +0.000 A 
ATOM     17  N   UNL     1       9.504  13.962  20.635  0.00  0.00    +0.000 NA
ATOM     18  N   UNL     1       8.585  14.446  19.788  0.00  0.00    +0.000 N 
ATOM     19  C   UNL     1       7.959  15.714  20.086  0.00  0.00    +0.000 C 
ATOM     20  C   UNL     1       8.360  13.637  18.707  0.00  0.00    +0.000 A 
ATOM     21  C   UNL     1       7.397  13.951  17.618  0.00  0.00    +0.000 C 
ATOM     22  C   UNL     1       9.217  12.553  18.859  0.00  0.00    +0.000 A 
ENDBRANCH  14  22
BRANCH  14  23
ATOM     23  O   UNL     1      10.694  11.235  17.447  0.00  0.00    +0.000 OA
ATOM     24  H   UNL     1      10.832  11.954  16.805  0.00  0.00    +0.000 HD
ENDBRANCH  14  23
ENDBRANCH   1  14
TORSDOF 5
ENDMDL
MODEL 4
REMARK VINA RESULT:      -6.5      1.999      2.726
REMARK  Name = 
REMARK  8 active torsions:
REMARK  status: ('A' for Active; 'I' for Inactive)
REMARK    1  A    between atoms: C_1  and  C_2
REMARK    2  A    between atoms: N_4  and  C_5
REMARK    3  A    between atoms: C_6  and  C_7
REMARK    4  A    between atoms: C_8  and  C_9
REMARK    5  A    between atoms: C_9  and  O_10
REMARK    6  A    between atoms: C_9  and  C_11
REMARK    7  A    between atoms: C_11  and  N_12
REMARK    8  A    between atoms: N_15  and  C_16
REMARK                            x       y       z     vdW  Elec       q    Type
REMARK                         _______ _______ _______ _____ _____    ______ ____
ROOT
ATOM      1  C   UNL     1       6.616   6.482  17.431  0.00  0.00    +0.000 C 
ENDROOT
BRANCH   1   2
ATOM      2  N   UNL     1       6.994   7.891  17.318  0.00  0.00    +0.000 N 
ATOM      3  C   UNL     1       8.025   8.359  18.097  0.00  0.00    +0.000 C 
ATOM      4  O   UNL     1       8.687   7.644  18.837  0.00  0.00    +0.000 OA
ATOM      5  N   UNL     1       8.302   9.681  17.863  0.00  0.00    +0.000 N 
ATOM      6  H   UNL     1       6.249   8.546  17.125  0.00  0.00    +0.000 HD
ATOM      7  H   UNL     1       7.510  10.265  17.644  0.00  0.00    +0.000 HD
BRANCH   5   8
ATOM      8  C   UNL     1       9.462  10.326  18.491  0.00  0.00    +0.000 C 
ATOM      9  C   UNL     1       9.141  10.684  19.950  0.00  0.00    +0.000 C 
ATOM     10  C   UNL     1      10.231  11.545  20.581  0.00  0.00    +0.000 C 
ATOM     11  C   UNL     1      10.548  12.742  19.700  0.00  0.00    +0.000 C 
ATOM     12  O   UNL     1      10.957  12.296  18.412  0.00  0.00    +0.000 OA
ATOM     13  C   UNL     1       9.915  11.592  17.729  0.00  0.00    +0.000 C 
ENDBRANCH   5   8
ENDBRANCH   1   2
BRANCH   1  14
ATOM     14  C   UNL     1       5.454   6.070  16.504  0.00  0.00    +0.000 C 
BRANCH  14  22
ATOM     15  C   UNL     1       3.165   8.123  17.726  0.00  0.00    +0.000 C 
ATOM     16  C   UNL     1       3.213   6.640  17.783  0.00  0.00    +0.000 A 
ATOM     17  N   UNL     1       2.234   5.978  18.406  0.00  0.00    +0.000 NA
ATOM     18  N   UNL     1       2.521   4.684  18.207  0.00  0.00    +0.000 N 
ATOM     19  C   UNL     1       1.606   3.681  18.703  0.00  0.00    +0.000 C 
ATOM     20  C   UNL     1       3.690   4.484  17.525  0.00  0.00    +0.000 A 
ATOM     21  C   UNL     1       4.227   3.144  17.168  0.00  0.00    +0.000 C 
ATOM     22  C   UNL     1       4.188   5.752  17.246  0.00  0.00    +0.000 A 
ENDBRANCH  14  22
BRANCH  14  23
ATOM     23  O   UNL     1       5.253   7.066  15.498  0.00  0.00    +0.000 OA
ATOM     24  H   UNL     1       5.976   7.707  15.607  0.00  0.00    +0.000 HD
ENDBRANCH  14  23
ENDBRANCH   1  14
TORSDOF 5
ENDMDL
MODEL 5
REMARK VINA RESULT:      -6.5      1.364      1.709
REMARK  Name = 
REMARK  8 active torsions:
REMARK  status: ('A' for Active; 'I' for Inactive)
REMARK    1  A    between atoms: C_1  and  C_2
REMARK    2  A    between atoms: N_4  and  C_5
REMARK    3  A    between atoms: C_6  and  C_7
REMARK    4  A    between atoms: C_8  and  C_9
REMARK    5  A    between atoms: C_9  and  O_10
REMARK    6  A    between atoms: C_9  and  C_11
REMARK    7  A    between atoms: C_11  and  N_12
REMARK    8  A    between atoms: N_15  and  C_16
REMARK                            x       y       z     vdW  Elec       q    Type
REMARK                         _______ _______ _______ _____ _____    ______ ____
ROOT
ATOM      1  C   UNL     1       6.753   6.493  17.187  0.00  0.00    +0.000 C 
ENDROOT
BRANCH   1   2
ATOM      2  N   UNL     1       7.105   7.912  17.233  0.00  0.00    +0.000 N 
ATOM      3  C   UNL     1       8.097   8.316  18.093  0.00  0.00    +0.000 C 
ATOM      4  O   UNL     1       8.748   7.540  18.780  0.00  0.00    +0.000 OA
ATOM      5  N   UNL     1       8.354   9.659  18.006  0.00  0.00    +0.000 N 
ATOM      6  H   UNL     1       6.353   8.570  17.080  0.00  0.00    +0.000 HD
ATOM      7  H   UNL     1       7.558  10.249  17.818  0.00  0.00    +0.000 HD
BRANCH   5   8
ATOM      8  C   UNL     1       9.477  10.257  18.739  0.00  0.00    +0.000 C 
ATOM      9  C   UNL     1       8.983  10.851  20.066  0.00  0.00    +0.000 C 
ATOM     10  C   UNL     1      10.066  11.669  20.765  0.00  0.00    +0.000 C 
ATOM     11  C   UNL     1      10.669  12.687  19.812  0.00  0.00    +0.000 C 
ATOM     12  O   UNL     1      11.211  12.020  18.677  0.00  0.00    +0.000 OA
ATOM     13  C   UNL     1      10.205  11.345  17.916  0.00  0.00    +0.000 C 
ENDBRANCH   5   8
ENDBRANCH   1   2
BRANCH   1  14
ATOM     14  C   UNL     1       5.898   6.022  18.381  0.00  0.00    +0.000 C 
BRANCH  14  22
ATOM     15  C   UNL     1       5.685   3.724  16.010  0.00  0.00    +0.000 C 
ATOM     16  C   UNL     1       4.633   4.201  16.942  0.00  0.00    +0.000 A 
ATOM     17  N   UNL     1       3.405   3.681  16.862  0.00  0.00    +0.000 NA
ATOM     18  N   UNL     1       2.733   4.246  17.875  0.00  0.00    +0.000 N 
ATOM     19  C   UNL     1       1.366   3.843  18.117  0.00  0.00    +0.000 C 
ATOM     20  C   UNL     1       3.469   5.165  18.573  0.00  0.00    +0.000 A 
ATOM     21  C   UNL     1       2.958   5.924  19.746  0.00  0.00    +0.000 C 
ATOM     22  C   UNL     1       4.724   5.179  17.974  0.00  0.00    +0.000 A 
ENDBRANCH  14  22
BRANCH  14  23
ATOM     23  O   UNL     1       6.722   5.365  19.346  0.00  0.00    +0.000 OA
ATOM     24  H   UNL     1       6.357   4.469  19.445  0.00  0.00    +0.000 HD
ENDBRANCH  14  23
ENDBRANCH   1  14
TORSDOF 5
ENDMDL
MODEL 6
REMARK VINA RESULT:      -6.3      6.228      9.667
REMARK  Name = 
REMARK  8 active torsions:
REMARK  status: ('A' for Active; 'I' for Inactive)
REMARK    1  A    between atoms: C_1  and  C_2
REMARK    2  A    between atoms: N_4  and  C_5
REMARK    3  A    between atoms: C_6  and  C_7
REMARK    4  A    between atoms: C_8  and  C_9
REMARK    5  A    between atoms: C_9  and  O_10
REMARK    6  A    between atoms: C_9  and  C_11
REMARK    7  A    between atoms: C_11  and  N_12
REMARK    8  A    between atoms: N_15  and  C_16
REMARK                            x       y       z     vdW  Elec       q    Type
REMARK                         _______ _______ _______ _____ _____    ______ ____
ROOT
ATOM      1  C   UNL     1       1.705   8.882  19.154  0.00  0.00    +0.000 C 
ENDROOT
BRANCH   1   2
ATOM      2  N   UNL     1       2.361   7.714  18.567  0.00  0.00    +0.000 N 
ATOM      3  C   UNL     1       2.370   6.539  19.279  0.00  0.00    +0.000 C 
ATOM      4  O   UNL     1       1.802   6.399  20.354  0.00  0.00    +0.000 OA
ATOM      5  N   UNL     1       2.978   5.516  18.598  0.00  0.00    +0.000 N 
ATOM      6  H   UNL     1       3.172   7.891  17.991  0.00  0.00    +0.000 HD
ATOM      7  H   UNL     1       3.760   5.777  18.017  0.00  0.00    +0.000 HD
BRANCH   5   8
ATOM      8  C   UNL     1       2.961   4.148  19.129  0.00  0.00    +0.000 C 
ATOM      9  C   UNL     1       4.398   3.639  19.323  0.00  0.00    +0.000 C 
ATOM     10  C   UNL     1       4.437   2.153  19.668  0.00  0.00    +0.000 C 
ATOM     11  C   UNL     1       3.619   1.348  18.672  0.00  0.00    +0.000 C 
ATOM     12  O   UNL     1       2.274   1.816  18.665  0.00  0.00    +0.000 OA
ATOM     13  C   UNL     1       2.178   3.173  18.220  0.00  0.00    +0.000 C 
ENDBRANCH   5   8
ENDBRANCH   1   2
BRANCH   1  14
ATOM     14  C   UNL     1       1.046   9.816  18.118  0.00  0.00    +0.000 C 
BRANCH  14  22
ATOM     15  C   UNL     1       1.050  12.016  20.589  0.00  0.00    +0.000 C 
ATOM     16  C   UNL     1      -0.088  11.553  19.756  0.00  0.00    +0.000 A 
ATOM     17  N   UNL     1      -1.309  12.043  19.986  0.00  0.00    +0.000 NA
ATOM     18  N   UNL     1      -2.076  11.503  19.029  0.00  0.00    +0.000 N 
ATOM     19  C   UNL     1      -3.468  11.887  18.950  0.00  0.00    +0.000 C 
ATOM     20  C   UNL     1      -1.403  10.628  18.220  0.00  0.00    +0.000 A 
ATOM     21  C   UNL     1      -2.024   9.904  17.079  0.00  0.00    +0.000 C 
ATOM     22  C   UNL     1      -0.092  10.617  18.681  0.00  0.00    +0.000 A 
ENDBRANCH  14  22
BRANCH  14  23
ATOM     23  O   UNL     1       2.036  10.645  17.505  0.00  0.00    +0.000 OA
ATOM     24  H   UNL     1       2.890  10.360  17.873  0.00  0.00    +0.000 HD
ENDBRANCH  14  23
ENDBRANCH   1  14
TORSDOF 5
ENDMDL
MODEL 7
REMARK VINA RESULT:      -6.3      4.166      6.476
REMARK  Name = 
REMARK  8 active torsions:
REMARK  status: ('A' for Active; 'I' for Inactive)
REMARK    1  A    between atoms: C_1  and  C_2
REMARK    2  A    between atoms: N_4  and  C_5
REMARK    3  A    between atoms: C_6  and  C_7
REMARK    4  A    between atoms: C_8  and  C_9
REMARK    5  A    between atoms: C_9  and  O_10
REMARK    6  A    between atoms: C_9  and  C_11
REMARK    7  A    between atoms: C_11  and  N_12
REMARK    8  A    between atoms: N_15  and  C_16
REMARK                            x       y       z     vdW  Elec       q    Type
REMARK                         _______ _______ _______ _____ _____    ______ ____
ROOT
ATOM      1  C   UNL     1       3.351   1.562  18.752  0.00  0.00    +0.000 C 
ENDROOT
BRANCH   1   2
ATOM      2  N   UNL     1       4.095   2.246  17.694  0.00  0.00    +0.000 N 
ATOM      3  C   UNL     1       5.016   3.200  18.050  0.00  0.00    +0.000 C 
ATOM      4  O   UNL     1       5.295   3.466  19.212  0.00  0.00    +0.000 OA
ATOM      5  N   UNL     1       5.669   3.731  16.968  0.00  0.00    +0.000 N 
ATOM      6  H   UNL     1       3.604   2.403  16.825  0.00  0.00    +0.000 HD
ATOM      7  H   UNL     1       5.121   3.826  16.126  0.00  0.00    +0.000 HD
BRANCH   5   8
ATOM      8  C   UNL     1       6.790   4.660  17.150  0.00  0.00    +0.000 C 
ATOM      9  C   UNL     1       6.762   5.249  18.568  0.00  0.00    +0.000 C 
ATOM     10  C   UNL     1       7.776   6.377  18.740  0.00  0.00    +0.000 C 
ATOM     11  C   UNL     1       7.625   7.407  17.633  0.00  0.00    +0.000 C 
ATOM     12  O   UNL     1       7.795   6.781  16.366  0.00  0.00    +0.000 OA
ATOM     13  C   UNL     1       6.784   5.802  16.108  0.00  0.00    +0.000 C 
ENDBRANCH   5   8
ENDBRANCH   1   2
BRANCH   1  14
ATOM     14  C   UNL     1       1.939   2.134  18.994  0.00  0.00    +0.000 C 
BRANCH  14  22
ATOM     15  C   UNL     1       2.078   2.818  22.228  0.00  0.00    +0.000 C 
ATOM     16  C   UNL     1       1.995   3.755  21.081  0.00  0.00    +0.000 A 
ATOM     17  N   UNL     1       1.958   5.070  21.313  0.00  0.00    +0.000 NA
ATOM     18  N   UNL     1       1.973   5.629  20.094  0.00  0.00    +0.000 N 
ATOM     19  C   UNL     1       2.009   7.070  19.987  0.00  0.00    +0.000 C 
ATOM     20  C   UNL     1       1.957   4.715  19.076  0.00  0.00    +0.000 A 
ATOM     21  C   UNL     1       1.979   5.076  17.633  0.00  0.00    +0.000 C 
ATOM     22  C   UNL     1       1.950   3.466  19.687  0.00  0.00    +0.000 A 
ENDBRANCH  14  22
BRANCH  14  23
ATOM     23  O   UNL     1       1.208   2.171  17.767  0.00  0.00    +0.000 OA
ATOM     24  H   UNL     1       0.623   2.946  17.827  0.00  0.00    +0.000 HD
ENDBRANCH  14  23
ENDBRANCH   1  14
TORSDOF 5
ENDMDL
MODEL 8
REMARK VINA RESULT:      -6.3      4.127      6.652
REMARK  Name = 
REMARK  8 active torsions:
REMARK  status: ('A' for Active; 'I' for Inactive)
REMARK    1  A    between atoms: C_1  and  C_2
REMARK    2  A    between atoms: N_4  and  C_5
REMARK    3  A    between atoms: C_6  and  C_7
REMARK    4  A    between atoms: C_8  and  C_9
REMARK    5  A    between atoms: C_9  and  O_10
REMARK    6  A    between atoms: C_9  and  C_11
REMARK    7  A    between atoms: C_11  and  N_12
REMARK    8  A    between atoms: N_15  and  C_16
REMARK                            x       y       z     vdW  Elec       q    Type
REMARK                         _______ _______ _______ _____ _____    ______ ____
ROOT
ATOM      1  C   UNL     1       4.318   4.562  18.954  0.00  0.00    +0.000 C 
ENDROOT
BRANCH   1   2
ATOM      2  N   UNL     1       3.841   5.666  19.787  0.00  0.00    +0.000 N 
ATOM      3  C   UNL     1       2.780   6.415  19.340  0.00  0.00    +0.000 C 
ATOM      4  O   UNL     1       2.169   6.168  18.309  0.00  0.00    +0.000 OA
ATOM      5  N   UNL     1       2.410   7.388  20.233  0.00  0.00    +0.000 N 
ATOM      6  H   UNL     1       4.539   6.160  20.327  0.00  0.00    +0.000 HD
ATOM      7  H   UNL     1       3.159   7.811  20.759  0.00  0.00    +0.000 HD
BRANCH   5   8
ATOM      8  C   UNL     1       1.207   8.197  20.003  0.00  0.00    +0.000 C 
ATOM      9  C   UNL     1       1.480   9.253  18.921  0.00  0.00    +0.000 C 
ATOM     10  C   UNL     1       0.336  10.255  18.797  0.00  0.00    +0.000 C 
ATOM     11  C   UNL     1      -0.022  10.833  20.156  0.00  0.00    +0.000 C 
ATOM     12  O   UNL     1      -0.382   9.782  21.046  0.00  0.00    +0.000 OA
ATOM     13  C   UNL     1       0.707   8.888  21.293  0.00  0.00    +0.000 C 
ENDBRANCH   5   8
ENDBRANCH   1   2
BRANCH   1  14
ATOM     14  C   UNL     1       5.854   4.466  18.861  0.00  0.00    +0.000 C 
BRANCH  14  22
ATOM     15  C   UNL     1       7.865   7.011  18.207  0.00  0.00    +0.000 C 
ATOM     16  C   UNL     1       7.252   6.041  17.265  0.00  0.00    +0.000 A 
ATOM     17  N   UNL     1       7.497   6.158  15.957  0.00  0.00    +0.000 NA
ATOM     18  N   UNL     1       6.885   5.102  15.403  0.00  0.00    +0.000 N 
ATOM     19  C   UNL     1       7.011   4.888  13.979  0.00  0.00    +0.000 C 
ATOM     20  C   UNL     1       6.198   4.335  16.305  0.00  0.00    +0.000 A 
ATOM     21  C   UNL     1       5.443   3.105  15.948  0.00  0.00    +0.000 C 
ATOM     22  C   UNL     1       6.399   4.935  17.543  0.00  0.00    +0.000 A 
ENDBRANCH  14  22
BRANCH  14  23
ATOM     23  O   UNL     1       6.456   5.147  19.965  0.00  0.00    +0.000 OA
ATOM     24  H   UNL     1       7.360   4.796  20.035  0.00  0.00    +0.000 HD
ENDBRANCH  14  23
ENDBRANCH   1  14
TORSDOF 5
ENDMDL
MODEL 9
REMARK VINA RESULT:      -6.2      6.095      9.608
REMARK  Name = 
REMARK  8 active torsions:
REMARK  status: ('A' for Active; 'I' for Inactive)
REMARK    1  A    between atoms: C_1  and  C_2
REMARK    2  A    between atoms: N_4  and  C_5
REMARK    3  A    between atoms: C_6  and  C_7
REMARK    4  A    between atoms: C_8  and  C_9
REMARK    5  A    between atoms: C_9  and  O_10
REMARK    6  A    between atoms: C_9  and  C_11
REMARK    7  A    between atoms: C_11  and  N_12
REMARK    8  A    between atoms: N_15  and  C_16
REMARK                            x       y       z     vdW  Elec       q    Type
REMARK                         _______ _______ _______ _____ _____    ______ ____
ROOT
ATOM      1  C   UNL     1       2.116   9.412  18.220  0.00  0.00    +0.000 C 
ENDROOT
BRANCH   1   2
ATOM      2  N   UNL     1       2.321   8.066  17.685  0.00  0.00    +0.000 N 
ATOM      3  C   UNL     1       2.499   7.028  18.568  0.00  0.00    +0.000 C 
ATOM      4  O   UNL     1       2.433   7.160  19.782  0.00  0.00    +0.000 OA
ATOM      5  N   UNL     1       2.638   5.819  17.937  0.00  0.00    +0.000 N 
ATOM      6  H   UNL     1       2.823   7.998  16.811  0.00  0.00    +0.000 HD
ATOM      7  H   UNL     1       3.122   5.838  17.052  0.00  0.00    +0.000 HD
BRANCH   5   8
ATOM      8  C   UNL     1       2.694   4.573  18.709  0.00  0.00    +0.000 C 
ATOM      9  C   UNL     1       4.155   4.144  18.914  0.00  0.00    +0.000 C 
ATOM     10  C   UNL     1       4.262   2.749  19.523  0.00  0.00    +0.000 C 
ATOM     11  C   UNL     1       3.424   1.754  18.737  0.00  0.00    +0.000 C 
ATOM     12  O   UNL     1       2.066   2.179  18.717  0.00  0.00    +0.000 OA
ATOM     13  C   UNL     1       1.902   3.428  18.037  0.00  0.00    +0.000 C 
ENDBRANCH   5   8
ENDBRANCH   1   2
BRANCH   1  14
ATOM     14  C   UNL     1       0.666   9.695  18.664  0.00  0.00    +0.000 C 
BRANCH  14  22
ATOM     15  C   UNL     1       0.029   9.074  21.850  0.00  0.00    +0.000 C 
ATOM     16  C   UNL     1       0.286  10.377  21.189  0.00  0.00    +0.000 A 
ATOM     17  N   UNL     1       0.263  11.497  21.919  0.00  0.00    +0.000 NA
ATOM     18  N   UNL     1       0.613  12.466  21.061  0.00  0.00    +0.000 N 
ATOM     19  C   UNL     1       0.753  13.818  21.554  0.00  0.00    +0.000 C 
ATOM     20  C   UNL     1       0.803  12.020  19.781  0.00  0.00    +0.000 A 
ATOM     21  C   UNL     1       1.205  12.892  18.646  0.00  0.00    +0.000 C 
ATOM     22  C   UNL     1       0.576  10.648  19.820  0.00  0.00    +0.000 A 
ENDBRANCH  14  22
BRANCH  14  23
ATOM     23  O   UNL     1      -0.113  10.129  17.547  0.00  0.00    +0.000 OA
ATOM     24  H   UNL     1       0.273   9.696  16.766  0.00  0.00    +0.000 HD
ENDBRANCH  14  23
ENDBRANCH   1  14
TORSDOF 5
ENDMDL
