MODEL 1
REMARK VINA RESULT:      -8.4      0.000      0.000
REMARK  Name = 
REMARK  7 active torsions:
REMARK  status: ('A' for Active; 'I' for Inactive)
REMARK    1  A    between atoms: C_1  and  N_2
REMARK    2  A    between atoms: N_2  and  C_3
REMARK    3  A    between atoms: C_4  and  C_6
REMARK    4  A    between atoms: C_6  and  C_7
REMARK    5  A    between atoms: C_7  and  C_8
REMARK    6  A    between atoms: C_12  and  N_13
REMARK    7  A    between atoms: N_22  and  C_23
REMARK                            x       y       z     vdW  Elec       q    Type
REMARK                         _______ _______ _______ _____ _____    ______ ____
ROOT
ATOM      1  N   UNL     1       1.712   7.048  20.294  0.00  0.00    +0.000 N 
ATOM      2  C   UNL     1       1.935   7.995  19.326  0.00  0.00    +0.000 C 
ATOM      3  O   UNL     1       2.471   7.765  18.246  0.00  0.00    +0.000 OA
ATOM      4  N   UNL     1       1.436   9.257  19.612  0.00  0.00    +0.000 N 
ATOM      5  C   UNL     1       1.494  10.267  18.555  0.00  0.00    +0.000 C 
ATOM      6  C   UNL     1       0.320  11.272  18.599  0.00  0.00    +0.000 C 
ATOM      7  N   UNL     1      -0.114  11.727  19.937  0.00  0.00    +0.000 NA
ATOM      8  C   UNL     1      -1.471  12.308  19.857  0.00  0.00    +0.000 C 
ATOM      9  C   UNL     1      -1.902  12.839  21.230  0.00  0.00    +0.000 C 
ATOM     10  N   UNL     1      -1.782  11.811  22.263  0.00  0.00    +0.000 N 
ATOM     11  C   UNL     1      -2.641  11.852  23.423  0.00  0.00    +0.000 C 
ATOM     12  C   UNL     1      -0.626  11.025  22.299  0.00  0.00    +0.000 C 
ATOM     13  O   UNL     1      -0.172  10.546  23.337  0.00  0.00    +0.000 OA
ATOM     14  C   UNL     1      -0.156  10.585  20.900  0.00  0.00    +0.000 C 
ATOM     15  C   UNL     1       1.167   9.814  20.948  0.00  0.00    +0.000 C 
ATOM     16  H   UNL     1       0.989   7.260  20.964  0.00  0.00    +0.000 HD
ENDROOT
BRANCH   1  21
ATOM     17  C   UNL     1       3.913   4.130  19.597  0.00  0.00    +0.000 A 
ATOM     18  C   UNL     1       3.171   3.082  20.158  0.00  0.00    +0.000 A 
ATOM     19  C   UNL     1       1.936   3.337  20.757  0.00  0.00    +0.000 A 
ATOM     20  C   UNL     1       1.425   4.634  20.814  0.00  0.00    +0.000 A 
ATOM     21  C   UNL     1       2.151   5.701  20.276  0.00  0.00    +0.000 A 
ATOM     22  C   UNL     1       3.384   5.436  19.668  0.00  0.00    +0.000 A 
BRANCH  17  23
ATOM     23  C   UNL     1       5.239   3.800  18.931  0.00  0.00    +0.000 C 
BRANCH  23  24
ATOM     24  C   UNL     1       6.026   5.026  18.476  0.00  0.00    +0.000 C 
BRANCH  24  28
ATOM     25  C   UNL     1       7.167   5.000  14.858  0.00  0.00    +0.000 C 
ATOM     26  N   UNL     1       6.388   5.230  16.059  0.00  0.00    +0.000 N 
ATOM     27  C   UNL     1       5.078   5.855  15.927  0.00  0.00    +0.000 C 
ATOM     28  C   UNL     1       6.920   4.796  17.276  0.00  0.00    +0.000 C 
ATOM     29  O   UNL     1       8.023   4.262  17.368  0.00  0.00    +0.000 OA
ENDBRANCH  24  28
ENDBRANCH  23  24
ENDBRANCH  17  23
ENDBRANCH   1  21
TORSDOF 4
ENDMDL
MODEL 2
REMARK VINA RESULT:      -8.0      1.307      1.561
REMARK  Name = 
REMARK  7 active torsions:
REMARK  status: ('A' for Active; 'I' for Inactive)
REMARK    1  A    between atoms: C_1  and  N_2
REMARK    2  A    between atoms: N_2  and  C_3
REMARK    3  A    between atoms: C_4  and  C_6
REMARK    4  A    between atoms: C_6  and  C_7
REMARK    5  A    between atoms: C_7  and  C_8
REMARK    6  A    between atoms: C_12  and  N_13
REMARK    7  A    between atoms: N_22  and  C_23
REMARK                            x       y       z     vdW  Elec       q    Type
REMARK                         _______ _______ _______ _____ _____    ______ ____
ROOT
ATOM      1  N   UNL     1       1.733   7.580  19.941  0.00  0.00    +0.000 N 
ATOM      2  C   UNL     1       1.877   8.613  19.049  0.00  0.00    +0.000 C 
ATOM      3  O   UNL     1       2.398   8.504  17.944  0.00  0.00    +0.000 OA
ATOM      4  N   UNL     1       1.313   9.816  19.448  0.00  0.00    +0.000 N 
ATOM      5  C   UNL     1       1.287  10.910  18.477  0.00  0.00    +0.000 C 
ATOM      6  C   UNL     1       0.059  11.837  18.626  0.00  0.00    +0.000 C 
ATOM      7  N   UNL     1      -0.368  12.155  20.005  0.00  0.00    +0.000 NA
ATOM      8  C   UNL     1      -1.757  12.659  20.000  0.00  0.00    +0.000 C 
ATOM      9  C   UNL     1      -2.185  13.051  21.421  0.00  0.00    +0.000 C 
ATOM     10  N   UNL     1      -1.980  11.952  22.363  0.00  0.00    +0.000 N 
ATOM     11  C   UNL     1      -2.811  11.848  23.540  0.00  0.00    +0.000 C 
ATOM     12  C   UNL     1      -0.780  11.235  22.311  0.00  0.00    +0.000 C 
ATOM     13  O   UNL     1      -0.273  10.702  23.297  0.00  0.00    +0.000 OA
ATOM     14  C   UNL     1      -0.320  10.939  20.872  0.00  0.00    +0.000 C 
ATOM     15  C   UNL     1       1.046  10.247  20.830  0.00  0.00    +0.000 C 
ATOM     16  H   UNL     1       1.016   7.694  20.640  0.00  0.00    +0.000 HD
ENDROOT
BRANCH   1  21
ATOM     17  C   UNL     1       3.554   4.714  18.419  0.00  0.00    +0.000 A 
ATOM     18  C   UNL     1       3.347   3.713  19.376  0.00  0.00    +0.000 A 
ATOM     19  C   UNL     1       2.594   3.980  20.521  0.00  0.00    +0.000 A 
ATOM     20  C   UNL     1       2.044   5.244  20.734  0.00  0.00    +0.000 A 
ATOM     21  C   UNL     1       2.248   6.267  19.803  0.00  0.00    +0.000 A 
ATOM     22  C   UNL     1       2.996   5.989  18.653  0.00  0.00    +0.000 A 
BRANCH  17  23
ATOM     23  C   UNL     1       4.358   4.370  17.175  0.00  0.00    +0.000 C 
BRANCH  23  24
ATOM     24  C   UNL     1       5.863   4.565  17.334  0.00  0.00    +0.000 C 
BRANCH  24  28
ATOM     25  C   UNL     1       7.763   7.834  17.647  0.00  0.00    +0.000 C 
ATOM     26  N   UNL     1       7.276   6.490  17.892  0.00  0.00    +0.000 N 
ATOM     27  C   UNL     1       7.727   5.797  19.092  0.00  0.00    +0.000 C 
ATOM     28  C   UNL     1       6.362   5.951  16.984  0.00  0.00    +0.000 C 
ATOM     29  O   UNL     1       5.985   6.553  15.982  0.00  0.00    +0.000 OA
ENDBRANCH  24  28
ENDBRANCH  23  24
ENDBRANCH  17  23
ENDBRANCH   1  21
TORSDOF 4
ENDMDL
MODEL 3
REMARK VINA RESULT:      -7.8      2.576      3.528
REMARK  Name = 
REMARK  7 active torsions:
REMARK  status: ('A' for Active; 'I' for Inactive)
REMARK    1  A    between atoms: C_1  and  N_2
REMARK    2  A    between atoms: N_2  and  C_3
REMARK    3  A    between atoms: C_4  and  C_6
REMARK    4  A    between atoms: C_6  and  C_7
REMARK    5  A    between atoms: C_7  and  C_8
REMARK    6  A    between atoms: C_12  and  N_13
REMARK    7  A    between atoms: N_22  and  C_23
REMARK                            x       y       z     vdW  Elec       q    Type
REMARK                         _______ _______ _______ _____ _____    ______ ____
ROOT
ATOM      1  N   UNL     1       1.715   8.398  19.954  0.00  0.00    +0.000 N 
ATOM      2  C   UNL     1       0.651   8.907  20.657  0.00  0.00    +0.000 C 
ATOM      3  O   UNL     1      -0.086   8.238  21.374  0.00  0.00    +0.000 OA
ATOM      4  N   UNL     1       0.493  10.283  20.569  0.00  0.00    +0.000 N 
ATOM      5  C   UNL     1      -0.517  10.907  21.423  0.00  0.00    +0.000 C 
ATOM      6  C   UNL     1      -0.142  12.336  21.877  0.00  0.00    +0.000 C 
ATOM      7  N   UNL     1       0.513  13.201  20.873  0.00  0.00    +0.000 NA
ATOM      8  C   UNL     1       1.190  14.330  21.543  0.00  0.00    +0.000 C 
ATOM      9  C   UNL     1       1.819  15.265  20.503  0.00  0.00    +0.000 C 
ATOM     10  N   UNL     1       2.696  14.536  19.588  0.00  0.00    +0.000 N 
ATOM     11  C   UNL     1       3.806  15.214  18.960  0.00  0.00    +0.000 C 
ATOM     12  C   UNL     1       2.255  13.318  19.060  0.00  0.00    +0.000 C 
ATOM     13  O   UNL     1       2.602  12.900  17.957  0.00  0.00    +0.000 OA
ATOM     14  C   UNL     1       1.540  12.438  20.101  0.00  0.00    +0.000 C 
ATOM     15  C   UNL     1       0.971  11.156  19.484  0.00  0.00    +0.000 C 
ATOM     16  H   UNL     1       2.427   9.059  19.688  0.00  0.00    +0.000 HD
ENDROOT
BRANCH   1  21
ATOM     17  C   UNL     1       3.180   5.315  18.474  0.00  0.00    +0.000 A 
ATOM     18  C   UNL     1       2.870   4.362  19.453  0.00  0.00    +0.000 A 
ATOM     19  C   UNL     1       2.165   4.735  20.599  0.00  0.00    +0.000 A 
ATOM     20  C   UNL     1       1.765   6.058  20.791  0.00  0.00    +0.000 A 
ATOM     21  C   UNL     1       2.074   7.033  19.838  0.00  0.00    +0.000 A 
ATOM     22  C   UNL     1       2.773   6.649  18.687  0.00  0.00    +0.000 A 
BRANCH  17  23
ATOM     23  C   UNL     1       3.925   4.857  17.230  0.00  0.00    +0.000 C 
BRANCH  23  24
ATOM     24  C   UNL     1       5.444   4.892  17.370  0.00  0.00    +0.000 C 
BRANCH  24  28
ATOM     25  C   UNL     1       7.748   7.899  17.573  0.00  0.00    +0.000 C 
ATOM     26  N   UNL     1       7.118   6.621  17.841  0.00  0.00    +0.000 N 
ATOM     27  C   UNL     1       7.563   5.859  19.001  0.00  0.00    +0.000 C 
ATOM     28  C   UNL     1       6.085   6.212  16.995  0.00  0.00    +0.000 C 
ATOM     29  O   UNL     1       5.716   6.872  16.027  0.00  0.00    +0.000 OA
ENDBRANCH  24  28
ENDBRANCH  23  24
ENDBRANCH  17  23
ENDBRANCH   1  21
TORSDOF 4
ENDMDL
MODEL 4
REMARK VINA RESULT:      -7.8      2.716      4.314
REMARK  Name = 
REMARK  7 active torsions:
REMARK  status: ('A' for Active; 'I' for Inactive)
REMARK    1  A    between atoms: C_1  and  N_2
REMARK    2  A    between atoms: N_2  and  C_3
REMARK    3  A    between atoms: C_4  and  C_6
REMARK    4  A    between atoms: C_6  and  C_7
REMARK    5  A    between atoms: C_7  and  C_8
REMARK    6  A    between atoms: C_12  and  N_13
REMARK    7  A    between atoms: N_22  and  C_23
REMARK                            x       y       z     vdW  Elec       q    Type
REMARK                         _______ _______ _______ _____ _____    ______ ____
ROOT
ATOM      1  N   UNL     1       2.083   7.905  18.973  0.00  0.00    +0.000 N 
ATOM      2  C   UNL     1       1.476   7.782  20.198  0.00  0.00    +0.000 C 
ATOM      3  O   UNL     1       1.672   6.853  20.975  0.00  0.00    +0.000 OA
ATOM      4  N   UNL     1       0.655   8.841  20.557  0.00  0.00    +0.000 N 
ATOM      5  C   UNL     1       0.111   8.850  21.914  0.00  0.00    +0.000 C 
ATOM      6  C   UNL     1      -0.077  10.271  22.493  0.00  0.00    +0.000 C 
ATOM      7  N   UNL     1      -0.578  11.306  21.563  0.00  0.00    +0.000 NA
ATOM      8  C   UNL     1      -0.295  12.651  22.105  0.00  0.00    +0.000 C 
ATOM      9  C   UNL     1      -0.868  13.729  21.175  0.00  0.00    +0.000 C 
ATOM     10  N   UNL     1      -0.398  13.556  19.801  0.00  0.00    +0.000 N 
ATOM     11  C   UNL     1      -0.292  14.700  18.927  0.00  0.00    +0.000 C 
ATOM     12  C   UNL     1      -0.398  12.272  19.247  0.00  0.00    +0.000 C 
ATOM     13  O   UNL     1      -0.546  12.061  18.044  0.00  0.00    +0.000 OA
ATOM     14  C   UNL     1       0.089  11.193  20.231  0.00  0.00    +0.000 C 
ATOM     15  C   UNL     1      -0.016   9.782  19.644  0.00  0.00    +0.000 C 
ATOM     16  H   UNL     1       2.115   8.835  18.585  0.00  0.00    +0.000 HD
ENDROOT
BRANCH   1  21
ATOM     17  C   UNL     1       3.118   4.707  17.378  0.00  0.00    +0.000 A 
ATOM     18  C   UNL     1       4.469   4.959  17.101  0.00  0.00    +0.000 A 
ATOM     19  C   UNL     1       5.042   6.182  17.453  0.00  0.00    +0.000 A 
ATOM     20  C   UNL     1       4.282   7.173  18.076  0.00  0.00    +0.000 A 
ATOM     21  C   UNL     1       2.929   6.955  18.350  0.00  0.00    +0.000 A 
ATOM     22  C   UNL     1       2.364   5.722  18.003  0.00  0.00    +0.000 A 
BRANCH  17  23
ATOM     23  C   UNL     1       2.544   3.350  17.001  0.00  0.00    +0.000 C 
BRANCH  23  24
ATOM     24  C   UNL     1       2.694   2.290  18.089  0.00  0.00    +0.000 C 
BRANCH  24  28
ATOM     25  C   UNL     1       1.465   2.633  21.661  0.00  0.00    +0.000 C 
ATOM     26  N   UNL     1       2.329   2.544  20.500  0.00  0.00    +0.000 N 
ATOM     27  C   UNL     1       3.771   2.529  20.709  0.00  0.00    +0.000 C 
ATOM     28  C   UNL     1       1.726   2.429  19.245  0.00  0.00    +0.000 C 
ATOM     29  O   UNL     1       0.508   2.434  19.089  0.00  0.00    +0.000 OA
ENDBRANCH  24  28
ENDBRANCH  23  24
ENDBRANCH  17  23
ENDBRANCH   1  21
TORSDOF 4
ENDMDL
MODEL 5
REMARK VINA RESULT:      -7.7      1.150      1.383
REMARK  Name = 
REMARK  7 active torsions:
REMARK  status: ('A' for Active; 'I' for Inactive)
REMARK    1  A    between atoms: C_1  and  N_2
REMARK    2  A    between atoms: N_2  and  C_3
REMARK    3  A    between atoms: C_4  and  C_6
REMARK    4  A    between atoms: C_6  and  C_7
REMARK    5  A    between atoms: C_7  and  C_8
REMARK    6  A    between atoms: C_12  and  N_13
REMARK    7  A    between atoms: N_22  and  C_23
REMARK                            x       y       z     vdW  Elec       q    Type
REMARK                         _______ _______ _______ _____ _____    ______ ____
ROOT
ATOM      1  N   UNL     1       1.533   7.529  20.107  0.00  0.00    +0.000 N 
ATOM      2  C   UNL     1       1.765   8.550  19.218  0.00  0.00    +0.000 C 
ATOM      3  O   UNL     1       2.323   8.409  18.135  0.00  0.00    +0.000 OA
ATOM      4  N   UNL     1       1.249   9.782  19.591  0.00  0.00    +0.000 N 
ATOM      5  C   UNL     1       1.317  10.871  18.617  0.00  0.00    +0.000 C 
ATOM      6  C   UNL     1       0.133  11.860  18.715  0.00  0.00    +0.000 C 
ATOM      7  N   UNL     1      -0.331  12.207  20.075  0.00  0.00    +0.000 NA
ATOM      8  C   UNL     1      -1.691  12.782  20.013  0.00  0.00    +0.000 C 
ATOM      9  C   UNL     1      -2.154  13.201  21.414  0.00  0.00    +0.000 C 
ATOM     10  N   UNL     1      -2.043  12.098  22.367  0.00  0.00    +0.000 N 
ATOM     11  C   UNL     1      -2.925  12.042  23.510  0.00  0.00    +0.000 C 
ATOM     12  C   UNL     1      -0.881  11.321  22.365  0.00  0.00    +0.000 C 
ATOM     13  O   UNL     1      -0.442  10.767  23.372  0.00  0.00    +0.000 OA
ATOM     14  C   UNL     1      -0.381  10.994  20.946  0.00  0.00    +0.000 C 
ATOM     15  C   UNL     1       0.949  10.233  20.961  0.00  0.00    +0.000 C 
ATOM     16  H   UNL     1       0.795   7.684  20.776  0.00  0.00    +0.000 HD
ENDROOT
BRANCH   1  21
ATOM     17  C   UNL     1       3.091   4.517  18.577  0.00  0.00    +0.000 A 
ATOM     18  C   UNL     1       2.944   3.576  19.605  0.00  0.00    +0.000 A 
ATOM     19  C   UNL     1       2.319   3.933  20.801  0.00  0.00    +0.000 A 
ATOM     20  C   UNL     1       1.838   5.228  20.996  0.00  0.00    +0.000 A 
ATOM     21  C   UNL     1       1.984   6.192  19.993  0.00  0.00    +0.000 A 
ATOM     22  C   UNL     1       2.604   5.823  18.793  0.00  0.00    +0.000 A 
BRANCH  17  23
ATOM     23  C   UNL     1       3.753   4.075  17.282  0.00  0.00    +0.000 C 
BRANCH  23  24
ATOM     24  C   UNL     1       4.993   4.884  16.912  0.00  0.00    +0.000 C 
BRANCH  24  28
ATOM     25  C   UNL     1       7.893   6.142  19.010  0.00  0.00    +0.000 C 
ATOM     26  N   UNL     1       6.801   6.081  18.058  0.00  0.00    +0.000 N 
ATOM     27  C   UNL     1       6.543   7.247  17.223  0.00  0.00    +0.000 C 
ATOM     28  C   UNL     1       6.084   4.886  17.963  0.00  0.00    +0.000 C 
ATOM     29  O   UNL     1       6.322   3.909  18.669  0.00  0.00    +0.000 OA
ENDBRANCH  24  28
ENDBRANCH  23  24
ENDBRANCH  17  23
ENDBRANCH   1  21
TORSDOF 4
ENDMDL
MODEL 6
REMARK VINA RESULT:      -7.6      1.038      1.188
REMARK  Name = 
REMARK  7 active torsions:
REMARK  status: ('A' for Active; 'I' for Inactive)
REMARK    1  A    between atoms: C_1  and  N_2
REMARK    2  A    between atoms: N_2  and  C_3
REMARK    3  A    between atoms: C_4  and  C_6
REMARK    4  A    between atoms: C_6  and  C_7
REMARK    5  A    between atoms: C_7  and  C_8
REMARK    6  A    between atoms: C_12  and  N_13
REMARK    7  A    between atoms: N_22  and  C_23
REMARK                            x       y       z     vdW  Elec       q    Type
REMARK                         _______ _______ _______ _____ _____    ______ ____
ROOT
ATOM      1  N   UNL     1       1.641   7.834  20.030  0.00  0.00    +0.000 N 
ATOM      2  C   UNL     1       1.648   8.813  19.068  0.00  0.00    +0.000 C 
ATOM      3  O   UNL     1       2.111   8.670  17.940  0.00  0.00    +0.000 OA
ATOM      4  N   UNL     1       1.013   9.993  19.425  0.00  0.00    +0.000 N 
ATOM      5  C   UNL     1       0.842  11.014  18.392  0.00  0.00    +0.000 C 
ATOM      6  C   UNL     1      -0.446  11.851  18.561  0.00  0.00    +0.000 C 
ATOM      7  N   UNL     1      -0.816  12.228  19.942  0.00  0.00    +0.000 NA
ATOM      8  C   UNL     1      -2.240  12.623  19.993  0.00  0.00    +0.000 C 
ATOM      9  C   UNL     1      -2.614  13.074  21.411  0.00  0.00    +0.000 C 
ATOM     10  N   UNL     1      -2.266  12.061  22.405  0.00  0.00    +0.000 N 
ATOM     11  C   UNL     1      -3.016  11.972  23.636  0.00  0.00    +0.000 C 
ATOM     12  C   UNL     1      -1.017  11.437  22.322  0.00  0.00    +0.000 C 
ATOM     13  O   UNL     1      -0.413  11.011  23.305  0.00  0.00    +0.000 OA
ATOM     14  C   UNL     1      -0.620  11.080  20.878  0.00  0.00    +0.000 C 
ATOM     15  C   UNL     1       0.793  10.494  20.793  0.00  0.00    +0.000 C 
ATOM     16  H   UNL     1       0.958   7.939  20.764  0.00  0.00    +0.000 HD
ENDROOT
BRANCH   1  21
ATOM     17  C   UNL     1       4.136   5.245  19.072  0.00  0.00    +0.000 A 
ATOM     18  C   UNL     1       3.595   4.102  19.674  0.00  0.00    +0.000 A 
ATOM     19  C   UNL     1       2.398   4.182  20.387  0.00  0.00    +0.000 A 
ATOM     20  C   UNL     1       1.726   5.398  20.518  0.00  0.00    +0.000 A 
ATOM     21  C   UNL     1       2.251   6.559  19.941  0.00  0.00    +0.000 A 
ATOM     22  C   UNL     1       3.447   6.468  19.220  0.00  0.00    +0.000 A 
BRANCH  17  23
ATOM     23  C   UNL     1       5.428   5.104  18.282  0.00  0.00    +0.000 C 
BRANCH  23  24
ATOM     24  C   UNL     1       5.224   4.994  16.774  0.00  0.00    +0.000 C 
BRANCH  24  28
ATOM     25  C   UNL     1       7.576   5.160  13.802  0.00  0.00    +0.000 C 
ATOM     26  N   UNL     1       6.431   4.869  14.643  0.00  0.00    +0.000 N 
ATOM     27  C   UNL     1       5.374   4.021  14.107  0.00  0.00    +0.000 C 
ATOM     28  C   UNL     1       6.428   5.383  15.942  0.00  0.00    +0.000 C 
ATOM     29  O   UNL     1       7.332   6.088  16.381  0.00  0.00    +0.000 OA
ENDBRANCH  24  28
ENDBRANCH  23  24
ENDBRANCH  17  23
ENDBRANCH   1  21
TORSDOF 4
ENDMDL
MODEL 7
REMARK VINA RESULT:      -7.6      2.466      4.070
REMARK  Name = 
REMARK  7 active torsions:
REMARK  status: ('A' for Active; 'I' for Inactive)
REMARK    1  A    between atoms: C_1  and  N_2
REMARK    2  A    between atoms: N_2  and  C_3
REMARK    3  A    between atoms: C_4  and  C_6
REMARK    4  A    between atoms: C_6  and  C_7
REMARK    5  A    between atoms: C_7  and  C_8
REMARK    6  A    between atoms: C_12  and  N_13
REMARK    7  A    between atoms: N_22  and  C_23
REMARK                            x       y       z     vdW  Elec       q    Type
REMARK                         _______ _______ _______ _____ _____    ______ ____
ROOT
ATOM      1  N   UNL     1       2.024   7.904  18.992  0.00  0.00    +0.000 N 
ATOM      2  C   UNL     1       1.434   7.754  20.222  0.00  0.00    +0.000 C 
ATOM      3  O   UNL     1       1.649   6.814  20.981  0.00  0.00    +0.000 OA
ATOM      4  N   UNL     1       0.607   8.799  20.609  0.00  0.00    +0.000 N 
ATOM      5  C   UNL     1       0.079   8.780  21.972  0.00  0.00    +0.000 C 
ATOM      6  C   UNL     1      -0.115  10.189  22.578  0.00  0.00    +0.000 C 
ATOM      7  N   UNL     1      -0.639  11.233  21.672  0.00  0.00    +0.000 NA
ATOM      8  C   UNL     1      -0.362  12.572  22.233  0.00  0.00    +0.000 C 
ATOM      9  C   UNL     1      -0.958  13.659  21.329  0.00  0.00    +0.000 C 
ATOM     10  N   UNL     1      -0.503  13.514  19.947  0.00  0.00    +0.000 N 
ATOM     11  C   UNL     1      -0.420  14.675  19.091  0.00  0.00    +0.000 C 
ATOM     12  C   UNL     1      -0.497  12.240  19.370  0.00  0.00    +0.000 C 
ATOM     13  O   UNL     1      -0.657  12.048  18.166  0.00  0.00    +0.000 OA
ATOM     14  C   UNL     1       0.013  11.150  20.330  0.00  0.00    +0.000 C 
ATOM     15  C   UNL     1      -0.085   9.748  19.720  0.00  0.00    +0.000 C 
ATOM     16  H   UNL     1       2.042   8.841  18.620  0.00  0.00    +0.000 HD
ENDROOT
BRANCH   1  21
ATOM     17  C   UNL     1       3.115   4.697  17.453  0.00  0.00    +0.000 A 
ATOM     18  C   UNL     1       4.422   5.009  17.058  0.00  0.00    +0.000 A 
ATOM     19  C   UNL     1       4.949   6.277  17.309  0.00  0.00    +0.000 A 
ATOM     20  C   UNL     1       4.185   7.252  17.950  0.00  0.00    +0.000 A 
ATOM     21  C   UNL     1       2.872   6.974  18.343  0.00  0.00    +0.000 A 
ATOM     22  C   UNL     1       2.354   5.697  18.095  0.00  0.00    +0.000 A 
BRANCH  17  23
ATOM     23  C   UNL     1       2.592   3.295  17.182  0.00  0.00    +0.000 C 
BRANCH  23  24
ATOM     24  C   UNL     1       3.235   2.215  18.048  0.00  0.00    +0.000 C 
BRANCH  24  28
ATOM     25  C   UNL     1       1.841   2.923  21.505  0.00  0.00    +0.000 C 
ATOM     26  N   UNL     1       1.939   2.604  20.093  0.00  0.00    +0.000 N 
ATOM     27  C   UNL     1       0.708   2.456  19.328  0.00  0.00    +0.000 C 
ATOM     28  C   UNL     1       3.216   2.501  19.535  0.00  0.00    +0.000 C 
ATOM     29  O   UNL     1       4.244   2.639  20.194  0.00  0.00    +0.000 OA
ENDBRANCH  24  28
ENDBRANCH  23  24
ENDBRANCH  17  23
ENDBRANCH   1  21
TORSDOF 4
ENDMDL
MODEL 8
REMARK VINA RESULT:      -7.6      3.041     10.036
REMARK  Name = 
REMARK  7 active torsions:
REMARK  status: ('A' for Active; 'I' for Inactive)
REMARK    1  A    between atoms: C_1  and  N_2
REMARK    2  A    between atoms: N_2  and  C_3
REMARK    3  A    between atoms: C_4  and  C_6
REMARK    4  A    between atoms: C_6  and  C_7
REMARK    5  A    between atoms: C_7  and  C_8
REMARK    6  A    between atoms: C_12  and  N_13
REMARK    7  A    between atoms: N_22  and  C_23
REMARK                            x       y       z     vdW  Elec       q    Type
REMARK                         _______ _______ _______ _____ _____    ______ ____
ROOT
ATOM      1  N   UNL     1       1.805   8.926  18.362  0.00  0.00    +0.000 N 
ATOM      2  C   UNL     1       1.969   7.994  19.355  0.00  0.00    +0.000 C 
ATOM      3  O   UNL     1       1.333   7.983  20.405  0.00  0.00    +0.000 OA
ATOM      4  N   UNL     1       2.874   6.982  19.069  0.00  0.00    +0.000 N 
ATOM      5  C   UNL     1       2.974   5.870  20.013  0.00  0.00    +0.000 C 
ATOM      6  C   UNL     1       3.315   4.520  19.342  0.00  0.00    +0.000 C 
ATOM      7  N   UNL     1       4.304   4.556  18.244  0.00  0.00    +0.000 NA
ATOM      8  C   UNL     1       4.204   3.325  17.433  0.00  0.00    +0.000 C 
ATOM      9  C   UNL     1       5.270   3.329  16.330  0.00  0.00    +0.000 C 
ATOM     10  N   UNL     1       5.205   4.548  15.526  0.00  0.00    +0.000 N 
ATOM     11  C   UNL     1       5.644   4.528  14.150  0.00  0.00    +0.000 C 
ATOM     12  C   UNL     1       5.063   5.777  16.178  0.00  0.00    +0.000 C 
ATOM     13  O   UNL     1       5.508   6.831  15.727  0.00  0.00    +0.000 OA
ATOM     14  C   UNL     1       4.059   5.724  17.345  0.00  0.00    +0.000 C 
ATOM     15  C   UNL     1       3.993   7.048  18.113  0.00  0.00    +0.000 C 
ATOM     16  H   UNL     1       2.114   8.653  17.442  0.00  0.00    +0.000 HD
ENDROOT
BRANCH   1  21
ATOM     17  C   UNL     1      -1.257  11.013  18.028  0.00  0.00    +0.000 A 
ATOM     18  C   UNL     1      -0.791  12.262  18.457  0.00  0.00    +0.000 A 
ATOM     19  C   UNL     1       0.540  12.419  18.847  0.00  0.00    +0.000 A 
ATOM     20  C   UNL     1       1.423  11.339  18.822  0.00  0.00    +0.000 A 
ATOM     21  C   UNL     1       0.981  10.077  18.412  0.00  0.00    +0.000 A 
ATOM     22  C   UNL     1      -0.353   9.930  18.014  0.00  0.00    +0.000 A 
BRANCH  17  23
ATOM     23  C   UNL     1      -2.708  10.895  17.587  0.00  0.00    +0.000 C 
BRANCH  23  24
ATOM     24  C   UNL     1      -3.699  11.569  18.532  0.00  0.00    +0.000 C 
BRANCH  24  28
ATOM     25  C   UNL     1      -7.361  12.533  18.295  0.00  0.00    +0.000 C 
ATOM     26  N   UNL     1      -6.042  12.234  18.819  0.00  0.00    +0.000 N 
ATOM     27  C   UNL     1      -5.854  12.234  20.264  0.00  0.00    +0.000 C 
ATOM     28  C   UNL     1      -5.034  11.917  17.906  0.00  0.00    +0.000 C 
ATOM     29  O   UNL     1      -5.213  11.913  16.690  0.00  0.00    +0.000 OA
ENDBRANCH  24  28
ENDBRANCH  23  24
ENDBRANCH  17  23
ENDBRANCH   1  21
TORSDOF 4
ENDMDL
MODEL 9
REMARK VINA RESULT:      -7.5      2.443      9.135
REMARK  Name = 
REMARK  7 active torsions:
REMARK  status: ('A' for Active; 'I' for Inactive)
REMARK    1  A    between atoms: C_1  and  N_2
REMARK    2  A    between atoms: N_2  and  C_3
REMARK    3  A    between atoms: C_4  and  C_6
REMARK    4  A    between atoms: C_6  and  C_7
REMARK    5  A    between atoms: C_7  and  C_8
REMARK    6  A    between atoms: C_12  and  N_13
REMARK    7  A    between atoms: N_22  and  C_23
REMARK                            x       y       z     vdW  Elec       q    Type
REMARK                         _______ _______ _______ _____ _____    ______ ____
ROOT
ATOM      1  N   UNL     1       2.146   7.497  20.126  0.00  0.00    +0.000 N 
ATOM      2  C   UNL     1       1.972   6.151  20.327  0.00  0.00    +0.000 C 
ATOM      3  O   UNL     1       1.043   5.661  20.962  0.00  0.00    +0.000 OA
ATOM      4  N   UNL     1       2.897   5.337  19.689  0.00  0.00    +0.000 N 
ATOM      5  C   UNL     1       2.673   3.892  19.728  0.00  0.00    +0.000 C 
ATOM      6  C   UNL     1       3.172   3.157  18.463  0.00  0.00    +0.000 C 
ATOM      7  N   UNL     1       4.453   3.621  17.888  0.00  0.00    +0.000 NA
ATOM      8  C   UNL     1       4.579   3.154  16.492  0.00  0.00    +0.000 C 
ATOM      9  C   UNL     1       5.933   3.578  15.910  0.00  0.00    +0.000 C 
ATOM     10  N   UNL     1       6.149   5.017  16.052  0.00  0.00    +0.000 N 
ATOM     11  C   UNL     1       6.991   5.716  15.109  0.00  0.00    +0.000 C 
ATOM     12  C   UNL     1       5.842   5.627  17.273  0.00  0.00    +0.000 C 
ATOM     13  O   UNL     1       6.430   6.623  17.692  0.00  0.00    +0.000 OA
ATOM     14  C   UNL     1       4.526   5.113  17.885  0.00  0.00    +0.000 C 
ATOM     15  C   UNL     1       4.257   5.713  19.269  0.00  0.00    +0.000 C 
ATOM     16  H   UNL     1       2.718   7.757  19.338  0.00  0.00    +0.000 HD
ENDROOT
BRANCH   1  21
ATOM     17  C   UNL     1       0.031  10.555  20.273  0.00  0.00    +0.000 A 
ATOM     18  C   UNL     1      -0.188  10.675  21.651  0.00  0.00    +0.000 A 
ATOM     19  C   UNL     1       0.373   9.752  22.535  0.00  0.00    +0.000 A 
ATOM     20  C   UNL     1       1.152   8.695  22.064  0.00  0.00    +0.000 A 
ATOM     21  C   UNL     1       1.375   8.542  20.692  0.00  0.00    +0.000 A 
ATOM     22  C   UNL     1       0.817   9.477  19.812  0.00  0.00    +0.000 A 
BRANCH  17  23
ATOM     23  C   UNL     1      -0.577  11.599  19.350  0.00  0.00    +0.000 C 
BRANCH  23  24
ATOM     24  C   UNL     1      -1.406  11.013  18.211  0.00  0.00    +0.000 C 
BRANCH  24  28
ATOM     25  C   UNL     1      -4.868  11.755  16.846  0.00  0.00    +0.000 C 
ATOM     26  N   UNL     1      -3.492  11.310  16.955  0.00  0.00    +0.000 N 
ATOM     27  C   UNL     1      -2.837  10.783  15.765  0.00  0.00    +0.000 C 
ATOM     28  C   UNL     1      -2.855  11.454  18.190  0.00  0.00    +0.000 C 
ATOM     29  O   UNL     1      -3.420  11.909  19.182  0.00  0.00    +0.000 OA
ENDBRANCH  24  28
ENDBRANCH  23  24
ENDBRANCH  17  23
ENDBRANCH   1  21
TORSDOF 4
ENDMDL
