MODEL 1
REMARK VINA RESULT:      -7.9      0.000      0.000
REMARK  Name = 
REMARK  8 active torsions:
REMARK  status: ('A' for Active; 'I' for Inactive)
REMARK    1  A    between atoms: C_1  and  C_2
REMARK    2  A    between atoms: C_2  and  C_3
REMARK    3  A    between atoms: C_3  and  C_4
REMARK    4  A    between atoms: C_4  and  C_5
REMARK    5  A    between atoms: C_13  and  C_14
REMARK    6  A    between atoms: N_16  and  C_17
REMARK    7  A    between atoms: C_17  and  C_18
REMARK    8  A    between atoms: C_18  and  C_19
REMARK                            x       y       z     vdW  Elec       q    Type
REMARK                         _______ _______ _______ _____ _____    ______ ____
ROOT
ATOM      1  C   UNL     1       4.247   3.080  19.242  0.00  0.00    +0.000 C 
ATOM      2  O   UNL     1       4.831   3.039  20.326  0.00  0.00    +0.000 OA
ATOM      3  N   UNL     1       4.356   4.167  18.389  0.00  0.00    +0.000 N 
ATOM      4  C   UNL     1       3.602   4.338  17.127  0.00  0.00    +0.000 C 
ATOM      5  C   UNL     1       4.547   4.365  15.906  0.00  0.00    +0.000 C 
ATOM      6  C   UNL     1       5.700   5.238  16.238  0.00  0.00    +0.000 A 
ATOM      7  N   UNL     1       6.613   5.765  15.386  0.00  0.00    +0.000 N 
ATOM      8  N   UNL     1       7.547   6.507  16.009  0.00  0.00    +0.000 NA
ATOM      9  C   UNL     1       7.224   6.430  17.322  0.00  0.00    +0.000 A 
ATOM     10  C   UNL     1       6.061   5.632  17.509  0.00  0.00    +0.000 A 
ATOM     11  C   UNL     1       5.308   5.247  18.743  0.00  0.00    +0.000 C 
ATOM     12  H   UNL     1       6.669   5.663  14.377  0.00  0.00    +0.000 HD
ENDROOT
BRANCH   9  13
ATOM     13  C   UNL     1       8.025   7.113  18.355  0.00  0.00    +0.000 C 
ATOM     14  O   UNL     1       8.475   6.532  19.339  0.00  0.00    +0.000 OA
ATOM     15  N   UNL     1       8.210   8.460  18.115  0.00  0.00    +0.000 N 
ATOM     16  H   UNL     1       7.772   8.820  17.270  0.00  0.00    +0.000 HD
BRANCH  15  17
ATOM     17  C   UNL     1       8.974   9.297  19.013  0.00  0.00    +0.000 C 
BRANCH  17  18
ATOM     18  C   UNL     1       8.663  10.790  18.874  0.00  0.00    +0.000 C 
BRANCH  18  19
ATOM     19  C   UNL     1       9.923  11.578  18.599  0.00  0.00    +0.000 A 
ATOM     20  C   UNL     1      10.022  12.385  17.458  0.00  0.00    +0.000 A 
ATOM     21  C   UNL     1      11.222  13.028  17.146  0.00  0.00    +0.000 A 
ATOM     22  C   UNL     1      12.333  12.872  17.973  0.00  0.00    +0.000 A 
ATOM     23  C   UNL     1      12.239  12.091  19.123  0.00  0.00    +0.000 A 
ATOM     24  C   UNL     1      11.039  11.449  19.436  0.00  0.00    +0.000 A 
ENDBRANCH  18  19
ENDBRANCH  17  18
ENDBRANCH  15  17
ENDBRANCH   9  13
BRANCH   1  25
ATOM     25  C   UNL     1       3.373   1.923  18.777  0.00  0.00    +0.000 C 
BRANCH  25  26
ATOM     26  C   UNL     1       2.102   1.785  19.617  0.00  0.00    +0.000 C 
BRANCH  26  28
ATOM     27  C   UNL     1       0.853   3.867  20.272  0.00  0.00    +0.000 C 
ATOM     28  C   UNL     1       1.039   2.802  19.203  0.00  0.00    +0.000 C 
ENDBRANCH  26  28
ENDBRANCH  25  26
ENDBRANCH   1  25
TORSDOF 7
ENDMDL
MODEL 2
REMARK VINA RESULT:      -7.9      0.877      1.087
REMARK  Name = 
REMARK  8 active torsions:
REMARK  status: ('A' for Active; 'I' for Inactive)
REMARK    1  A    between atoms: C_1  and  C_2
REMARK    2  A    between atoms: C_2  and  C_3
REMARK    3  A    between atoms: C_3  and  C_4
REMARK    4  A    between atoms: C_4  and  C_5
REMARK    5  A    between atoms: C_13  and  C_14
REMARK    6  A    between atoms: N_16  and  C_17
REMARK    7  A    between atoms: C_17  and  C_18
REMARK    8  A    between atoms: C_18  and  C_19
REMARK                            x       y       z     vdW  Elec       q    Type
REMARK                         _______ _______ _______ _____ _____    ______ ____
ROOT
ATOM      1  C   UNL     1       4.316   2.950  19.272  0.00  0.00    +0.000 C 
ATOM      2  O   UNL     1       4.868   3.032  20.371  0.00  0.00    +0.000 OA
ATOM      3  N   UNL     1       4.396   3.964  18.331  0.00  0.00    +0.000 N 
ATOM      4  C   UNL     1       3.673   3.987  17.040  0.00  0.00    +0.000 C 
ATOM      5  C   UNL     1       4.653   3.958  15.846  0.00  0.00    +0.000 C 
ATOM      6  C   UNL     1       5.750   4.915  16.130  0.00  0.00    +0.000 A 
ATOM      7  N   UNL     1       6.661   5.414  15.259  0.00  0.00    +0.000 N 
ATOM      8  N   UNL     1       7.538   6.254  15.839  0.00  0.00    +0.000 NA
ATOM      9  C   UNL     1       7.179   6.273  17.146  0.00  0.00    +0.000 A 
ATOM     10  C   UNL     1       6.052   5.435  17.371  0.00  0.00    +0.000 A 
ATOM     11  C   UNL     1       5.283   5.118  18.614  0.00  0.00    +0.000 C 
ATOM     12  H   UNL     1       6.752   5.229  14.265  0.00  0.00    +0.000 HD
ENDROOT
BRANCH   9  13
ATOM     13  C   UNL     1       7.913   7.083  18.135  0.00  0.00    +0.000 C 
ATOM     14  O   UNL     1       8.418   6.601  19.145  0.00  0.00    +0.000 OA
ATOM     15  N   UNL     1       7.970   8.428  17.822  0.00  0.00    +0.000 N 
ATOM     16  H   UNL     1       7.498   8.698  16.962  0.00  0.00    +0.000 HD
BRANCH  15  17
ATOM     17  C   UNL     1       8.653   9.380  18.669  0.00  0.00    +0.000 C 
BRANCH  17  18
ATOM     18  C   UNL     1       9.381  10.480  17.892  0.00  0.00    +0.000 C 
BRANCH  18  19
ATOM     19  C   UNL     1       9.932  11.527  18.833  0.00  0.00    +0.000 A 
ATOM     20  C   UNL     1       9.103  12.540  19.334  0.00  0.00    +0.000 A 
ATOM     21  C   UNL     1       9.634  13.568  20.116  0.00  0.00    +0.000 A 
ATOM     22  C   UNL     1      10.996  13.593  20.406  0.00  0.00    +0.000 A 
ATOM     23  C   UNL     1      11.825  12.578  19.934  0.00  0.00    +0.000 A 
ATOM     24  C   UNL     1      11.296  11.548  19.153  0.00  0.00    +0.000 A 
ENDBRANCH  18  19
ENDBRANCH  17  18
ENDBRANCH  15  17
ENDBRANCH   9  13
BRANCH   1  25
ATOM     25  C   UNL     1       3.515   1.712  18.888  0.00  0.00    +0.000 C 
BRANCH  25  26
ATOM     26  C   UNL     1       2.007   1.942  19.003  0.00  0.00    +0.000 C 
BRANCH  26  28
ATOM     27  C   UNL     1       0.921   3.859  20.215  0.00  0.00    +0.000 C 
ATOM     28  C   UNL     1       1.626   2.520  20.364  0.00  0.00    +0.000 C 
ENDBRANCH  26  28
ENDBRANCH  25  26
ENDBRANCH   1  25
TORSDOF 7
ENDMDL
MODEL 3
REMARK VINA RESULT:      -7.8      1.541      2.056
REMARK  Name = 
REMARK  8 active torsions:
REMARK  status: ('A' for Active; 'I' for Inactive)
REMARK    1  A    between atoms: C_1  and  C_2
REMARK    2  A    between atoms: C_2  and  C_3
REMARK    3  A    between atoms: C_3  and  C_4
REMARK    4  A    between atoms: C_4  and  C_5
REMARK    5  A    between atoms: C_13  and  C_14
REMARK    6  A    between atoms: N_16  and  C_17
REMARK    7  A    between atoms: C_17  and  C_18
REMARK    8  A    between atoms: C_18  and  C_19
REMARK                            x       y       z     vdW  Elec       q    Type
REMARK                         _______ _______ _______ _____ _____    ______ ____
ROOT
ATOM      1  C   UNL     1       2.167   5.094  20.181  0.00  0.00    +0.000 C 
ATOM      2  O   UNL     1       2.596   5.612  21.214  0.00  0.00    +0.000 OA
ATOM      3  N   UNL     1       2.813   5.240  18.963  0.00  0.00    +0.000 N 
ATOM      4  C   UNL     1       2.305   4.743  17.665  0.00  0.00    +0.000 C 
ATOM      5  C   UNL     1       3.239   3.668  17.069  0.00  0.00    +0.000 C 
ATOM      6  C   UNL     1       4.637   4.143  17.217  0.00  0.00    +0.000 A 
ATOM      7  N   UNL     1       5.744   3.665  16.598  0.00  0.00    +0.000 N 
ATOM      8  N   UNL     1       6.869   4.309  16.962  0.00  0.00    +0.000 NA
ATOM      9  C   UNL     1       6.459   5.225  17.871  0.00  0.00    +0.000 A 
ATOM     10  C   UNL     1       5.051   5.150  18.062  0.00  0.00    +0.000 A 
ATOM     11  C   UNL     1       4.125   5.931  18.940  0.00  0.00    +0.000 C 
ATOM     12  H   UNL     1       5.816   2.908  15.925  0.00  0.00    +0.000 HD
ENDROOT
BRANCH   9  13
ATOM     13  C   UNL     1       7.410   6.141  18.527  0.00  0.00    +0.000 C 
ATOM     14  O   UNL     1       7.973   5.869  19.584  0.00  0.00    +0.000 OA
ATOM     15  N   UNL     1       7.600   7.328  17.847  0.00  0.00    +0.000 N 
ATOM     16  H   UNL     1       7.062   7.433  16.990  0.00  0.00    +0.000 HD
BRANCH  15  17
ATOM     17  C   UNL     1       8.501   8.349  18.331  0.00  0.00    +0.000 C 
BRANCH  17  18
ATOM     18  C   UNL     1       8.163   9.756  17.828  0.00  0.00    +0.000 C 
BRANCH  18  19
ATOM     19  C   UNL     1       9.019  10.793  18.517  0.00  0.00    +0.000 A 
ATOM     20  C   UNL     1       9.396  11.964  17.846  0.00  0.00    +0.000 A 
ATOM     21  C   UNL     1      10.274  12.871  18.443  0.00  0.00    +0.000 A 
ATOM     22  C   UNL     1      10.782  12.618  19.715  0.00  0.00    +0.000 A 
ATOM     23  C   UNL     1      10.396  11.469  20.401  0.00  0.00    +0.000 A 
ATOM     24  C   UNL     1       9.517  10.561  19.807  0.00  0.00    +0.000 A 
ENDBRANCH  18  19
ENDBRANCH  17  18
ENDBRANCH  15  17
ENDBRANCH   9  13
BRANCH   1  25
ATOM     25  C   UNL     1       0.898   4.253  20.193  0.00  0.00    +0.000 C 
BRANCH  25  26
ATOM     26  C   UNL     1       1.097   2.917  20.911  0.00  0.00    +0.000 C 
BRANCH  26  28
ATOM     27  C   UNL     1       3.500   2.215  20.664  0.00  0.00    +0.000 C 
ATOM     28  C   UNL     1       2.078   2.016  20.163  0.00  0.00    +0.000 C 
ENDBRANCH  26  28
ENDBRANCH  25  26
ENDBRANCH   1  25
TORSDOF 7
ENDMDL
MODEL 4
REMARK VINA RESULT:      -7.8      1.842      2.181
REMARK  Name = 
REMARK  8 active torsions:
REMARK  status: ('A' for Active; 'I' for Inactive)
REMARK    1  A    between atoms: C_1  and  C_2
REMARK    2  A    between atoms: C_2  and  C_3
REMARK    3  A    between atoms: C_3  and  C_4
REMARK    4  A    between atoms: C_4  and  C_5
REMARK    5  A    between atoms: C_13  and  C_14
REMARK    6  A    between atoms: N_16  and  C_17
REMARK    7  A    between atoms: C_17  and  C_18
REMARK    8  A    between atoms: C_18  and  C_19
REMARK                            x       y       z     vdW  Elec       q    Type
REMARK                         _______ _______ _______ _____ _____    ______ ____
ROOT
ATOM      1  C   UNL     1       2.264   5.569  18.497  0.00  0.00    +0.000 C 
ATOM      2  O   UNL     1       1.998   6.754  18.708  0.00  0.00    +0.000 OA
ATOM      3  N   UNL     1       3.406   5.183  17.814  0.00  0.00    +0.000 N 
ATOM      4  C   UNL     1       3.738   3.794  17.428  0.00  0.00    +0.000 C 
ATOM      5  C   UNL     1       5.021   3.304  18.133  0.00  0.00    +0.000 C 
ATOM      6  C   UNL     1       6.031   4.388  18.050  0.00  0.00    +0.000 A 
ATOM      7  N   UNL     1       7.364   4.298  18.281  0.00  0.00    +0.000 N 
ATOM      8  N   UNL     1       8.004   5.473  18.133  0.00  0.00    +0.000 NA
ATOM      9  C   UNL     1       7.026   6.356  17.813  0.00  0.00    +0.000 A 
ATOM     10  C   UNL     1       5.762   5.707  17.754  0.00  0.00    +0.000 A 
ATOM     11  C   UNL     1       4.393   6.226  17.446  0.00  0.00    +0.000 C 
ATOM     12  H   UNL     1       7.907   3.481  18.544  0.00  0.00    +0.000 HD
ENDROOT
BRANCH   9  13
ATOM     13  C   UNL     1       7.322   7.781  17.575  0.00  0.00    +0.000 C 
ATOM     14  O   UNL     1       6.733   8.449  16.731  0.00  0.00    +0.000 OA
ATOM     15  N   UNL     1       8.324   8.283  18.383  0.00  0.00    +0.000 N 
ATOM     16  H   UNL     1       8.740   7.619  19.031  0.00  0.00    +0.000 HD
BRANCH  15  17
ATOM     17  C   UNL     1       8.749   9.663  18.300  0.00  0.00    +0.000 C 
BRANCH  17  18
ATOM     18  C   UNL     1       9.455  10.164  19.564  0.00  0.00    +0.000 C 
BRANCH  18  19
ATOM     19  C   UNL     1      10.302  11.378  19.260  0.00  0.00    +0.000 A 
ATOM     20  C   UNL     1      10.757  11.619  17.956  0.00  0.00    +0.000 A 
ATOM     21  C   UNL     1      11.628  12.680  17.694  0.00  0.00    +0.000 A 
ATOM     22  C   UNL     1      12.049  13.510  18.731  0.00  0.00    +0.000 A 
ATOM     23  C   UNL     1      11.584  13.293  20.026  0.00  0.00    +0.000 A 
ATOM     24  C   UNL     1      10.713  12.235  20.290  0.00  0.00    +0.000 A 
ENDBRANCH  18  19
ENDBRANCH  17  18
ENDBRANCH  15  17
ENDBRANCH   9  13
BRANCH   1  25
ATOM     25  C   UNL     1       1.345   4.459  18.990  0.00  0.00    +0.000 C 
BRANCH  25  26
ATOM     26  C   UNL     1       1.176   4.482  20.510  0.00  0.00    +0.000 C 
BRANCH  26  28
ATOM     27  C   UNL     1       2.744   2.721  21.387  0.00  0.00    +0.000 C 
ATOM     28  C   UNL     1       1.293   3.082  21.112  0.00  0.00    +0.000 C 
ENDBRANCH  26  28
ENDBRANCH  25  26
ENDBRANCH   1  25
TORSDOF 7
ENDMDL
MODEL 5
REMARK VINA RESULT:      -7.7      1.942      2.357
REMARK  Name = 
REMARK  8 active torsions:
REMARK  status: ('A' for Active; 'I' for Inactive)
REMARK    1  A    between atoms: C_1  and  C_2
REMARK    2  A    between atoms: C_2  and  C_3
REMARK    3  A    between atoms: C_3  and  C_4
REMARK    4  A    between atoms: C_4  and  C_5
REMARK    5  A    between atoms: C_13  and  C_14
REMARK    6  A    between atoms: N_16  and  C_17
REMARK    7  A    between atoms: C_17  and  C_18
REMARK    8  A    between atoms: C_18  and  C_19
REMARK                            x       y       z     vdW  Elec       q    Type
REMARK                         _______ _______ _______ _____ _____    ______ ____
ROOT
ATOM      1  C   UNL     1       2.530   6.095  19.429  0.00  0.00    +0.000 C 
ATOM      2  O   UNL     1       2.436   7.284  19.738  0.00  0.00    +0.000 OA
ATOM      3  N   UNL     1       3.495   5.640  18.544  0.00  0.00    +0.000 N 
ATOM      4  C   UNL     1       3.602   4.252  18.041  0.00  0.00    +0.000 C 
ATOM      5  C   UNL     1       4.921   3.589  18.495  0.00  0.00    +0.000 C 
ATOM      6  C   UNL     1       6.018   4.567  18.294  0.00  0.00    +0.000 A 
ATOM      7  N   UNL     1       7.352   4.327  18.291  0.00  0.00    +0.000 N 
ATOM      8  N   UNL     1       8.086   5.438  18.094  0.00  0.00    +0.000 NA
ATOM      9  C   UNL     1       7.175   6.435  17.987  0.00  0.00    +0.000 A 
ATOM     10  C   UNL     1       5.853   5.924  18.111  0.00  0.00    +0.000 A 
ATOM     11  C   UNL     1       4.519   6.599  18.064  0.00  0.00    +0.000 C 
ATOM     12  H   UNL     1       7.836   3.444  18.420  0.00  0.00    +0.000 HD
ENDROOT
BRANCH   9  13
ATOM     13  C   UNL     1       7.584   7.835  17.771  0.00  0.00    +0.000 C 
ATOM     14  O   UNL     1       7.148   8.520  16.851  0.00  0.00    +0.000 OA
ATOM     15  N   UNL     1       8.506   8.293  18.692  0.00  0.00    +0.000 N 
ATOM     16  H   UNL     1       8.796   7.618  19.396  0.00  0.00    +0.000 HD
BRANCH  15  17
ATOM     17  C   UNL     1       9.022   9.643  18.648  0.00  0.00    +0.000 C 
BRANCH  17  18
ATOM     18  C   UNL     1       9.265  10.253  20.031  0.00  0.00    +0.000 C 
BRANCH  18  19
ATOM     19  C   UNL     1      10.124  11.492  19.929  0.00  0.00    +0.000 A 
ATOM     20  C   UNL     1       9.596  12.752  20.241  0.00  0.00    +0.000 A 
ATOM     21  C   UNL     1      10.355  13.907  20.043  0.00  0.00    +0.000 A 
ATOM     22  C   UNL     1      11.648  13.815  19.534  0.00  0.00    +0.000 A 
ATOM     23  C   UNL     1      12.192  12.566  19.242  0.00  0.00    +0.000 A 
ATOM     24  C   UNL     1      11.435  11.409  19.440  0.00  0.00    +0.000 A 
ENDBRANCH  18  19
ENDBRANCH  17  18
ENDBRANCH  15  17
ENDBRANCH   9  13
BRANCH   1  25
ATOM     25  C   UNL     1       1.586   5.054  20.016  0.00  0.00    +0.000 C 
BRANCH  25  26
ATOM     26  C   UNL     1       2.157   4.402  21.276  0.00  0.00    +0.000 C 
BRANCH  26  28
ATOM     27  C   UNL     1       1.282   2.367  20.085  0.00  0.00    +0.000 C 
ATOM     28  C   UNL     1       1.685   2.957  21.427  0.00  0.00    +0.000 C 
ENDBRANCH  26  28
ENDBRANCH  25  26
ENDBRANCH   1  25
TORSDOF 7
ENDMDL
MODEL 6
REMARK VINA RESULT:      -7.7      1.488      1.856
REMARK  Name = 
REMARK  8 active torsions:
REMARK  status: ('A' for Active; 'I' for Inactive)
REMARK    1  A    between atoms: C_1  and  C_2
REMARK    2  A    between atoms: C_2  and  C_3
REMARK    3  A    between atoms: C_3  and  C_4
REMARK    4  A    between atoms: C_4  and  C_5
REMARK    5  A    between atoms: C_13  and  C_14
REMARK    6  A    between atoms: N_16  and  C_17
REMARK    7  A    between atoms: C_17  and  C_18
REMARK    8  A    between atoms: C_18  and  C_19
REMARK                            x       y       z     vdW  Elec       q    Type
REMARK                         _______ _______ _______ _____ _____    ______ ____
ROOT
ATOM      1  C   UNL     1       2.471   5.545  19.255  0.00  0.00    +0.000 C 
ATOM      2  O   UNL     1       2.645   6.391  20.133  0.00  0.00    +0.000 OA
ATOM      3  N   UNL     1       3.291   5.463  18.141  0.00  0.00    +0.000 N 
ATOM      4  C   UNL     1       3.081   4.550  16.995  0.00  0.00    +0.000 C 
ATOM      5  C   UNL     1       4.236   3.532  16.867  0.00  0.00    +0.000 C 
ATOM      6  C   UNL     1       5.514   4.265  17.043  0.00  0.00    +0.000 A 
ATOM      7  N   UNL     1       6.763   3.836  16.739  0.00  0.00    +0.000 N 
ATOM      8  N   UNL     1       7.716   4.740  17.035  0.00  0.00    +0.000 NA
ATOM      9  C   UNL     1       7.040   5.784  17.572  0.00  0.00    +0.000 A 
ATOM     10  C   UNL     1       5.643   5.520  17.597  0.00  0.00    +0.000 A 
ATOM     11  C   UNL     1       4.487   6.338  18.080  0.00  0.00    +0.000 C 
ATOM     12  H   UNL     1       7.047   2.948  16.335  0.00  0.00    +0.000 HD
ENDROOT
BRANCH   9  13
ATOM     13  C   UNL     1       7.739   6.994  18.043  0.00  0.00    +0.000 C 
ATOM     14  O   UNL     1       8.461   7.001  19.036  0.00  0.00    +0.000 OA
ATOM     15  N   UNL     1       7.496   8.113  17.270  0.00  0.00    +0.000 N 
ATOM     16  H   UNL     1       6.867   7.974  16.483  0.00  0.00    +0.000 HD
BRANCH  15  17
ATOM     17  C   UNL     1       8.098   9.393  17.570  0.00  0.00    +0.000 C 
BRANCH  17  18
ATOM     18  C   UNL     1       8.753   9.454  18.952  0.00  0.00    +0.000 C 
BRANCH  18  19
ATOM     19  C   UNL     1       9.671  10.650  19.059  0.00  0.00    +0.000 A 
ATOM     20  C   UNL     1      10.253  11.205  17.911  0.00  0.00    +0.000 A 
ATOM     21  C   UNL     1      11.184  12.240  18.019  0.00  0.00    +0.000 A 
ATOM     22  C   UNL     1      11.540  12.732  19.272  0.00  0.00    +0.000 A 
ATOM     23  C   UNL     1      10.950  12.204  20.419  0.00  0.00    +0.000 A 
ATOM     24  C   UNL     1      10.018  11.170  20.313  0.00  0.00    +0.000 A 
ENDBRANCH  18  19
ENDBRANCH  17  18
ENDBRANCH  15  17
ENDBRANCH   9  13
BRANCH   1  25
ATOM     25  C   UNL     1       1.338   4.532  19.355  0.00  0.00    +0.000 C 
BRANCH  25  26
ATOM     26  C   UNL     1       1.236   3.916  20.751  0.00  0.00    +0.000 C 
BRANCH  26  28
ATOM     27  C   UNL     1       1.867   1.907  19.375  0.00  0.00    +0.000 C 
ATOM     28  C   UNL     1       1.778   2.487  20.778  0.00  0.00    +0.000 C 
ENDBRANCH  26  28
ENDBRANCH  25  26
ENDBRANCH   1  25
TORSDOF 7
ENDMDL
MODEL 7
REMARK VINA RESULT:      -7.6      5.079      8.238
REMARK  Name = 
REMARK  8 active torsions:
REMARK  status: ('A' for Active; 'I' for Inactive)
REMARK    1  A    between atoms: C_1  and  C_2
REMARK    2  A    between atoms: C_2  and  C_3
REMARK    3  A    between atoms: C_3  and  C_4
REMARK    4  A    between atoms: C_4  and  C_5
REMARK    5  A    between atoms: C_13  and  C_14
REMARK    6  A    between atoms: N_16  and  C_17
REMARK    7  A    between atoms: C_17  and  C_18
REMARK    8  A    between atoms: C_18  and  C_19
REMARK                            x       y       z     vdW  Elec       q    Type
REMARK                         _______ _______ _______ _____ _____    ______ ____
ROOT
ATOM      1  C   UNL     1       5.746   5.857  15.698  0.00  0.00    +0.000 C 
ATOM      2  O   UNL     1       5.333   6.913  15.215  0.00  0.00    +0.000 OA
ATOM      3  N   UNL     1       5.594   5.555  17.042  0.00  0.00    +0.000 N 
ATOM      4  C   UNL     1       6.157   4.364  17.716  0.00  0.00    +0.000 C 
ATOM      5  C   UNL     1       5.041   3.443  18.256  0.00  0.00    +0.000 C 
ATOM      6  C   UNL     1       4.025   4.295  18.922  0.00  0.00    +0.000 A 
ATOM      7  N   UNL     1       3.037   3.902  19.762  0.00  0.00    +0.000 N 
ATOM      8  N   UNL     1       2.271   4.925  20.186  0.00  0.00    +0.000 NA
ATOM      9  C   UNL     1       2.784   6.015  19.567  0.00  0.00    +0.000 A 
ATOM     10  C   UNL     1       3.895   5.657  18.755  0.00  0.00    +0.000 A 
ATOM     11  C   UNL     1       4.795   6.477  17.885  0.00  0.00    +0.000 C 
ATOM     12  H   UNL     1       2.820   2.966  20.090  0.00  0.00    +0.000 HD
ENDROOT
BRANCH   9  13
ATOM     13  C   UNL     1       2.207   7.357  19.766  0.00  0.00    +0.000 C 
ATOM     14  O   UNL     1       1.981   8.128  18.837  0.00  0.00    +0.000 OA
ATOM     15  N   UNL     1       1.956   7.665  21.089  0.00  0.00    +0.000 N 
ATOM     16  H   UNL     1       2.202   6.943  21.762  0.00  0.00    +0.000 HD
BRANCH  15  17
ATOM     17  C   UNL     1       1.384   8.934  21.482  0.00  0.00    +0.000 C 
BRANCH  17  18
ATOM     18  C   UNL     1      -0.142   8.905  21.613  0.00  0.00    +0.000 C 
BRANCH  18  19
ATOM     19  C   UNL     1      -0.693  10.304  21.765  0.00  0.00    +0.000 A 
ATOM     20  C   UNL     1      -1.128  10.764  23.016  0.00  0.00    +0.000 A 
ATOM     21  C   UNL     1      -1.737  12.015  23.138  0.00  0.00    +0.000 A 
ATOM     22  C   UNL     1      -1.915  12.818  22.013  0.00  0.00    +0.000 A 
ATOM     23  C   UNL     1      -1.466  12.380  20.769  0.00  0.00    +0.000 A 
ATOM     24  C   UNL     1      -0.856  11.130  20.645  0.00  0.00    +0.000 A 
ENDBRANCH  18  19
ENDBRANCH  17  18
ENDBRANCH  15  17
ENDBRANCH   9  13
BRANCH   1  25
ATOM     25  C   UNL     1       6.444   4.818  14.831  0.00  0.00    +0.000 C 
BRANCH  25  26
ATOM     26  C   UNL     1       5.452   3.879  14.144  0.00  0.00    +0.000 C 
BRANCH  26  28
ATOM     27  C   UNL     1       4.700   3.375  11.797  0.00  0.00    +0.000 C 
ATOM     28  C   UNL     1       5.896   3.530  12.724  0.00  0.00    +0.000 C 
ENDBRANCH  26  28
ENDBRANCH  25  26
ENDBRANCH   1  25
TORSDOF 7
ENDMDL
MODEL 8
REMARK VINA RESULT:      -7.5      0.819      1.205
REMARK  Name = 
REMARK  8 active torsions:
REMARK  status: ('A' for Active; 'I' for Inactive)
REMARK    1  A    between atoms: C_1  and  C_2
REMARK    2  A    between atoms: C_2  and  C_3
REMARK    3  A    between atoms: C_3  and  C_4
REMARK    4  A    between atoms: C_4  and  C_5
REMARK    5  A    between atoms: C_13  and  C_14
REMARK    6  A    between atoms: N_16  and  C_17
REMARK    7  A    between atoms: C_17  and  C_18
REMARK    8  A    between atoms: C_18  and  C_19
REMARK                            x       y       z     vdW  Elec       q    Type
REMARK                         _______ _______ _______ _____ _____    ______ ____
ROOT
ATOM      1  C   UNL     1       4.285   3.081  19.084  0.00  0.00    +0.000 C 
ATOM      2  O   UNL     1       4.768   3.202  20.211  0.00  0.00    +0.000 OA
ATOM      3  N   UNL     1       4.416   4.068  18.120  0.00  0.00    +0.000 N 
ATOM      4  C   UNL     1       3.774   4.045  16.786  0.00  0.00    +0.000 C 
ATOM      5  C   UNL     1       4.825   3.991  15.656  0.00  0.00    +0.000 C 
ATOM      6  C   UNL     1       5.895   4.967  15.979  0.00  0.00    +0.000 A 
ATOM      7  N   UNL     1       6.854   5.449  15.151  0.00  0.00    +0.000 N 
ATOM      8  N   UNL     1       7.686   6.315  15.758  0.00  0.00    +0.000 NA
ATOM      9  C   UNL     1       7.247   6.369  17.038  0.00  0.00    +0.000 A 
ATOM     10  C   UNL     1       6.116   5.527  17.219  0.00  0.00    +0.000 A 
ATOM     11  C   UNL     1       5.273   5.239  18.422  0.00  0.00    +0.000 C 
ATOM     12  H   UNL     1       7.008   5.236  14.170  0.00  0.00    +0.000 HD
ENDROOT
BRANCH   9  13
ATOM     13  C   UNL     1       7.912   7.215  18.047  0.00  0.00    +0.000 C 
ATOM     14  O   UNL     1       8.292   6.783  19.131  0.00  0.00    +0.000 OA
ATOM     15  N   UNL     1       8.057   8.533  17.659  0.00  0.00    +0.000 N 
ATOM     16  H   UNL     1       7.686   8.764  16.740  0.00  0.00    +0.000 HD
BRANCH  15  17
ATOM     17  C   UNL     1       8.691   9.514  18.511  0.00  0.00    +0.000 C 
BRANCH  17  18
ATOM     18  C   UNL     1       8.622  10.942  17.962  0.00  0.00    +0.000 C 
BRANCH  18  19
ATOM     19  C   UNL     1       9.706  11.803  18.567  0.00  0.00    +0.000 A 
ATOM     20  C   UNL     1      10.768  11.220  19.272  0.00  0.00    +0.000 A 
ATOM     21  C   UNL     1      11.710  12.018  19.923  0.00  0.00    +0.000 A 
ATOM     22  C   UNL     1      11.602  13.407  19.875  0.00  0.00    +0.000 A 
ATOM     23  C   UNL     1      10.564  13.998  19.157  0.00  0.00    +0.000 A 
ATOM     24  C   UNL     1       9.622  13.201  18.505  0.00  0.00    +0.000 A 
ENDBRANCH  18  19
ENDBRANCH  17  18
ENDBRANCH  15  17
ENDBRANCH   9  13
BRANCH   1  25
ATOM     25  C   UNL     1       3.520   1.825  18.688  0.00  0.00    +0.000 C 
BRANCH  25  26
ATOM     26  C   UNL     1       2.143   2.147  18.108  0.00  0.00    +0.000 C 
BRANCH  26  28
ATOM     27  C   UNL     1       1.005   3.288  20.038  0.00  0.00    +0.000 C 
ATOM     28  C   UNL     1       1.046   2.044  19.166  0.00  0.00    +0.000 C 
ENDBRANCH  26  28
ENDBRANCH  25  26
ENDBRANCH   1  25
TORSDOF 7
ENDMDL
MODEL 9
REMARK VINA RESULT:      -7.4      1.559      2.083
REMARK  Name = 
REMARK  8 active torsions:
REMARK  status: ('A' for Active; 'I' for Inactive)
REMARK    1  A    between atoms: C_1  and  C_2
REMARK    2  A    between atoms: C_2  and  C_3
REMARK    3  A    between atoms: C_3  and  C_4
REMARK    4  A    between atoms: C_4  and  C_5
REMARK    5  A    between atoms: C_13  and  C_14
REMARK    6  A    between atoms: N_16  and  C_17
REMARK    7  A    between atoms: C_17  and  C_18
REMARK    8  A    between atoms: C_18  and  C_19
REMARK                            x       y       z     vdW  Elec       q    Type
REMARK                         _______ _______ _______ _____ _____    ______ ____
ROOT
ATOM      1  C   UNL     1       2.425   5.735  19.409  0.00  0.00    +0.000 C 
ATOM      2  O   UNL     1       2.649   6.577  20.280  0.00  0.00    +0.000 OA
ATOM      3  N   UNL     1       3.213   5.623  18.274  0.00  0.00    +0.000 N 
ATOM      4  C   UNL     1       2.945   4.715  17.137  0.00  0.00    +0.000 C 
ATOM      5  C   UNL     1       4.062   3.661  16.983  0.00  0.00    +0.000 C 
ATOM      6  C   UNL     1       5.367   4.352  17.123  0.00  0.00    +0.000 A 
ATOM      7  N   UNL     1       6.594   3.882  16.789  0.00  0.00    +0.000 N 
ATOM      8  N   UNL     1       7.582   4.756  17.057  0.00  0.00    +0.000 NA
ATOM      9  C   UNL     1       6.955   5.822  17.608  0.00  0.00    +0.000 A 
ATOM     10  C   UNL     1       5.551   5.604  17.670  0.00  0.00    +0.000 A 
ATOM     11  C   UNL     1       4.434   6.459  18.180  0.00  0.00    +0.000 C 
ATOM     12  H   UNL     1       6.838   2.985  16.380  0.00  0.00    +0.000 HD
ENDROOT
BRANCH   9  13
ATOM     13  C   UNL     1       7.704   7.011  18.056  0.00  0.00    +0.000 C 
ATOM     14  O   UNL     1       8.495   6.983  18.995  0.00  0.00    +0.000 OA
ATOM     15  N   UNL     1       7.424   8.151  17.329  0.00  0.00    +0.000 N 
ATOM     16  H   UNL     1       6.739   8.041  16.585  0.00  0.00    +0.000 HD
BRANCH  15  17
ATOM     17  C   UNL     1       8.066   9.415  17.616  0.00  0.00    +0.000 C 
BRANCH  17  18
ATOM     18  C   UNL     1       8.866   9.415  18.921  0.00  0.00    +0.000 C 
BRANCH  18  19
ATOM     19  C   UNL     1       9.639  10.704  19.078  0.00  0.00    +0.000 A 
ATOM     20  C   UNL     1       9.723  11.336  20.326  0.00  0.00    +0.000 A 
ATOM     21  C   UNL     1      10.343  12.581  20.450  0.00  0.00    +0.000 A 
ATOM     22  C   UNL     1      10.888  13.204  19.330  0.00  0.00    +0.000 A 
ATOM     23  C   UNL     1      10.831  12.575  18.088  0.00  0.00    +0.000 A 
ATOM     24  C   UNL     1      10.212  11.330  17.962  0.00  0.00    +0.000 A 
ENDBRANCH  18  19
ENDBRANCH  17  18
ENDBRANCH  15  17
ENDBRANCH   9  13
BRANCH   1  25
ATOM     25  C   UNL     1       1.263   4.759  19.542  0.00  0.00    +0.000 C 
BRANCH  25  26
ATOM     26  C   UNL     1       1.421   3.835  20.750  0.00  0.00    +0.000 C 
BRANCH  26  28
ATOM     27  C   UNL     1       1.012   2.202  18.881  0.00  0.00    +0.000 C 
ATOM     28  C   UNL     1       1.405   2.363  20.341  0.00  0.00    +0.000 C 
ENDBRANCH  26  28
ENDBRANCH  25  26
ENDBRANCH   1  25
TORSDOF 7
ENDMDL
