MODEL 1
REMARK VINA RESULT:      -8.2      0.000      0.000
REMARK  Name = 
REMARK  6 active torsions:
REMARK  status: ('A' for Active; 'I' for Inactive)
REMARK    1  A    between atoms: C_2  and  C_11
REMARK    2  A    between atoms: N_3  and  C_4
REMARK    3  A    between atoms: C_4  and  C_5
REMARK    4  A    between atoms: C_13  and  S_14
REMARK    5  A    between atoms: S_14  and  N_17
REMARK    6  A    between atoms: N_17  and  C_18
REMARK                            x       y       z     vdW  Elec       q    Type
REMARK                         _______ _______ _______ _____ _____    ______ ____
ROOT
ATOM      1  C   UNL     1       6.357   5.349  16.593  0.00  0.00    +0.000 A 
ATOM      2  C   UNL     1       5.538   4.377  17.188  0.00  0.00    +0.000 A 
ATOM      3  C   UNL     1       5.526   4.218  18.582  0.00  0.00    +0.000 A 
ATOM      4  C   UNL     1       6.327   5.029  19.393  0.00  0.00    +0.000 A 
ATOM      5  C   UNL     1       7.146   5.994  18.803  0.00  0.00    +0.000 A 
ATOM      6  C   UNL     1       7.154   6.151  17.414  0.00  0.00    +0.000 A 
ATOM      7  F   UNL     1       7.948   7.102  16.897  0.00  0.00    +0.000 F 
ENDROOT
BRANCH   1   9
ATOM      8  O   UNL     1       5.431   6.151  14.586  0.00  0.00    +0.000 OA
ATOM      9  C   UNL     1       6.323   5.487  15.107  0.00  0.00    +0.000 C 
ATOM     10  N   UNL     1       7.311   4.862  14.386  0.00  0.00    +0.000 N 
ATOM     11  H   UNL     1       8.036   4.343  14.865  0.00  0.00    +0.000 HD
BRANCH  10  12
ATOM     12  C   UNL     1       7.425   4.992  12.950  0.00  0.00    +0.000 C 
BRANCH  12  13
ATOM     13  C   UNL     1       6.867   3.776  12.257  0.00  0.00    +0.000 A 
ATOM     14  C   UNL     1       5.483   3.553  12.202  0.00  0.00    +0.000 A 
ATOM     15  C   UNL     1       4.973   2.425  11.556  0.00  0.00    +0.000 A 
ATOM     16  C   UNL     1       5.839   1.506  10.965  0.00  0.00    +0.000 A 
ATOM     17  C   UNL     1       7.218   1.710  11.029  0.00  0.00    +0.000 A 
ATOM     18  C   UNL     1       7.729   2.836  11.677  0.00  0.00    +0.000 A 
ENDBRANCH  12  13
ENDBRANCH  10  12
ENDBRANCH   1   9
BRANCH   3  19
ATOM     19  S   UNL     1       4.427   3.034  19.330  0.00  0.00    +0.000 S 
ATOM     20  O   UNL     1       3.715   2.396  18.247  0.00  0.00    +0.000 OA
ATOM     21  O   UNL     1       5.156   2.266  20.317  0.00  0.00    +0.000 OA
BRANCH  19  22
ATOM     22  N   UNL     1       3.283   3.973  20.137  0.00  0.00    +0.000 NA
ATOM     23  H   UNL     1       3.760   4.730  20.635  0.00  0.00    +0.000 HD
BRANCH  22  24
ATOM     24  C   UNL     1       2.007   4.339  19.477  0.00  0.00    +0.000 C 
ATOM     25  C   UNL     1       1.034   5.020  20.439  0.00  0.00    +0.000 C 
ATOM     26  C   UNL     1       1.575   6.350  20.964  0.00  0.00    +0.000 C 
ATOM     27  C   UNL     1       1.978   7.297  19.839  0.00  0.00    +0.000 C 
ATOM     28  C   UNL     1       2.886   6.631  18.807  0.00  0.00    +0.000 C 
ATOM     29  C   UNL     1       2.305   5.305  18.314  0.00  0.00    +0.000 C 
ENDBRANCH  22  24
ENDBRANCH  19  22
ENDBRANCH   3  19
TORSDOF 6
ENDMDL
MODEL 2
REMARK VINA RESULT:      -8.1      6.345      9.268
REMARK  Name = 
REMARK  6 active torsions:
REMARK  status: ('A' for Active; 'I' for Inactive)
REMARK    1  A    between atoms: C_2  and  C_11
REMARK    2  A    between atoms: N_3  and  C_4
REMARK    3  A    between atoms: C_4  and  C_5
REMARK    4  A    between atoms: C_13  and  S_14
REMARK    5  A    between atoms: S_14  and  N_17
REMARK    6  A    between atoms: N_17  and  C_18
REMARK                            x       y       z     vdW  Elec       q    Type
REMARK                         _______ _______ _______ _____ _____    ______ ____
ROOT
ATOM      1  C   UNL     1       0.551   9.685  20.573  0.00  0.00    +0.000 A 
ATOM      2  C   UNL     1      -0.270  10.624  19.928  0.00  0.00    +0.000 A 
ATOM      3  C   UNL     1      -1.091  11.479  20.678  0.00  0.00    +0.000 A 
ATOM      4  C   UNL     1      -1.100  11.407  22.074  0.00  0.00    +0.000 A 
ATOM      5  C   UNL     1      -0.288  10.471  22.718  0.00  0.00    +0.000 A 
ATOM      6  C   UNL     1       0.532   9.622  21.968  0.00  0.00    +0.000 A 
ATOM      7  F   UNL     1       1.304   8.750  22.635  0.00  0.00    +0.000 F 
ENDROOT
BRANCH   1   9
ATOM      8  O   UNL     1       1.763   9.197  18.619  0.00  0.00    +0.000 OA
ATOM      9  C   UNL     1       1.417   8.808  19.731  0.00  0.00    +0.000 C 
ATOM     10  N   UNL     1       1.796   7.596  20.253  0.00  0.00    +0.000 N 
ATOM     11  H   UNL     1       1.500   7.331  21.184  0.00  0.00    +0.000 HD
BRANCH  10  12
ATOM     12  C   UNL     1       2.697   6.700  19.562  0.00  0.00    +0.000 C 
BRANCH  12  13
ATOM     13  C   UNL     1       2.097   5.323  19.446  0.00  0.00    +0.000 A 
ATOM     14  C   UNL     1       2.068   4.654  18.214  0.00  0.00    +0.000 A 
ATOM     15  C   UNL     1       1.512   3.377  18.116  0.00  0.00    +0.000 A 
ATOM     16  C   UNL     1       0.975   2.758  19.243  0.00  0.00    +0.000 A 
ATOM     17  C   UNL     1       0.984   3.422  20.471  0.00  0.00    +0.000 A 
ATOM     18  C   UNL     1       1.537   4.700  20.570  0.00  0.00    +0.000 A 
ENDBRANCH  12  13
ENDBRANCH  10  12
ENDBRANCH   1   9
BRANCH   3  19
ATOM     19  S   UNL     1      -2.070  12.717  19.852  0.00  0.00    +0.000 S 
ATOM     20  O   UNL     1      -3.352  12.735  20.519  0.00  0.00    +0.000 OA
ATOM     21  O   UNL     1      -1.280  13.918  19.692  0.00  0.00    +0.000 OA
BRANCH  19  22
ATOM     22  N   UNL     1      -2.361  12.072  18.322  0.00  0.00    +0.000 NA
ATOM     23  H   UNL     1      -1.472  11.779  17.906  0.00  0.00    +0.000 HD
BRANCH  22  24
ATOM     24  C   UNL     1      -3.510  11.163  18.093  0.00  0.00    +0.000 C 
ATOM     25  C   UNL     1      -4.302  11.540  16.842  0.00  0.00    +0.000 C 
ATOM     26  C   UNL     1      -3.468  11.412  15.567  0.00  0.00    +0.000 C 
ATOM     27  C   UNL     1      -2.845  10.028  15.420  0.00  0.00    +0.000 C 
ATOM     28  C   UNL     1      -2.112   9.575  16.680  0.00  0.00    +0.000 C 
ATOM     29  C   UNL     1      -2.984   9.725  17.927  0.00  0.00    +0.000 C 
ENDBRANCH  22  24
ENDBRANCH  19  22
ENDBRANCH   3  19
TORSDOF 6
ENDMDL
MODEL 3
REMARK VINA RESULT:      -8.0      5.963      8.677
REMARK  Name = 
REMARK  6 active torsions:
REMARK  status: ('A' for Active; 'I' for Inactive)
REMARK    1  A    between atoms: C_2  and  C_11
REMARK    2  A    between atoms: N_3  and  C_4
REMARK    3  A    between atoms: C_4  and  C_5
REMARK    4  A    between atoms: C_13  and  S_14
REMARK    5  A    between atoms: S_14  and  N_17
REMARK    6  A    between atoms: N_17  and  C_18
REMARK                            x       y       z     vdW  Elec       q    Type
REMARK                         _______ _______ _______ _____ _____    ______ ____
ROOT
ATOM      1  C   UNL     1       1.149   9.257  19.757  0.00  0.00    +0.000 A 
ATOM      2  C   UNL     1       0.666  10.391  19.086  0.00  0.00    +0.000 A 
ATOM      3  C   UNL     1      -0.103  11.345  19.770  0.00  0.00    +0.000 A 
ATOM      4  C   UNL     1      -0.392  11.178  21.128  0.00  0.00    +0.000 A 
ATOM      5  C   UNL     1       0.084  10.049  21.797  0.00  0.00    +0.000 A 
ATOM      6  C   UNL     1       0.851   9.101  21.113  0.00  0.00    +0.000 A 
ATOM      7  F   UNL     1       1.297   8.041  21.805  0.00  0.00    +0.000 F 
ENDROOT
BRANCH   1   9
ATOM      8  O   UNL     1       2.335   8.564  17.849  0.00  0.00    +0.000 OA
ATOM      9  C   UNL     1       1.974   8.279  18.988  0.00  0.00    +0.000 C 
ATOM     10  N   UNL     1       2.298   7.095  19.603  0.00  0.00    +0.000 N 
ATOM     11  H   UNL     1       1.992   6.918  20.552  0.00  0.00    +0.000 HD
BRANCH  10  12
ATOM     12  C   UNL     1       3.157   6.109  18.986  0.00  0.00    +0.000 C 
BRANCH  12  13
ATOM     13  C   UNL     1       2.471   4.769  18.922  0.00  0.00    +0.000 A 
ATOM     14  C   UNL     1       1.519   4.402  19.884  0.00  0.00    +0.000 A 
ATOM     15  C   UNL     1       0.887   3.159  19.817  0.00  0.00    +0.000 A 
ATOM     16  C   UNL     1       1.204   2.268  18.793  0.00  0.00    +0.000 A 
ATOM     17  C   UNL     1       2.162   2.615  17.840  0.00  0.00    +0.000 A 
ATOM     18  C   UNL     1       2.797   3.857  17.908  0.00  0.00    +0.000 A 
ENDBRANCH  12  13
ENDBRANCH  10  12
ENDBRANCH   1   9
BRANCH   3  19
ATOM     19  S   UNL     1      -0.646  12.816  18.926  0.00  0.00    +0.000 S 
ATOM     20  O   UNL     1      -1.353  13.611  19.905  0.00  0.00    +0.000 OA
ATOM     21  O   UNL     1       0.455  13.358  18.160  0.00  0.00    +0.000 OA
BRANCH  19  22
ATOM     22  N   UNL     1      -1.820  12.273  17.846  0.00  0.00    +0.000 NA
ATOM     23  H   UNL     1      -1.473  12.381  16.889  0.00  0.00    +0.000 HD
BRANCH  22  24
ATOM     24  C   UNL     1      -2.578  11.027  18.120  0.00  0.00    +0.000 C 
ATOM     25  C   UNL     1      -4.089  11.248  18.067  0.00  0.00    +0.000 C 
ATOM     26  C   UNL     1      -4.564  11.674  16.677  0.00  0.00    +0.000 C 
ATOM     27  C   UNL     1      -4.118  10.702  15.590  0.00  0.00    +0.000 C 
ATOM     28  C   UNL     1      -2.626  10.387  15.658  0.00  0.00    +0.000 C 
ATOM     29  C   UNL     1      -2.199   9.970  17.065  0.00  0.00    +0.000 C 
ENDBRANCH  22  24
ENDBRANCH  19  22
ENDBRANCH   3  19
TORSDOF 6
ENDMDL
MODEL 4
REMARK VINA RESULT:      -7.9      4.747     10.139
REMARK  Name = 
REMARK  6 active torsions:
REMARK  status: ('A' for Active; 'I' for Inactive)
REMARK    1  A    between atoms: C_2  and  C_11
REMARK    2  A    between atoms: N_3  and  C_4
REMARK    3  A    between atoms: C_4  and  C_5
REMARK    4  A    between atoms: C_13  and  S_14
REMARK    5  A    between atoms: S_14  and  N_17
REMARK    6  A    between atoms: N_17  and  C_18
REMARK                            x       y       z     vdW  Elec       q    Type
REMARK                         _______ _______ _______ _____ _____    ______ ____
ROOT
ATOM      1  C   UNL     1       1.432   8.708  20.441  0.00  0.00    +0.000 A 
ATOM      2  C   UNL     1       1.937   7.399  20.452  0.00  0.00    +0.000 A 
ATOM      3  C   UNL     1       2.385   6.802  19.265  0.00  0.00    +0.000 A 
ATOM      4  C   UNL     1       2.336   7.505  18.057  0.00  0.00    +0.000 A 
ATOM      5  C   UNL     1       1.829   8.806  18.041  0.00  0.00    +0.000 A 
ATOM      6  C   UNL     1       1.385   9.399  19.227  0.00  0.00    +0.000 A 
ATOM      7  F   UNL     1       0.921  10.657  19.161  0.00  0.00    +0.000 F 
ENDROOT
BRANCH   1   9
ATOM      8  O   UNL     1       1.788   9.430  22.649  0.00  0.00    +0.000 OA
ATOM      9  C   UNL     1       0.981   9.303  21.733  0.00  0.00    +0.000 C 
ATOM     10  N   UNL     1      -0.332   9.692  21.832  0.00  0.00    +0.000 N 
ATOM     11  H   UNL     1      -0.953   9.585  21.040  0.00  0.00    +0.000 HD
BRANCH  10  12
ATOM     12  C   UNL     1      -0.860  10.353  23.005  0.00  0.00    +0.000 C 
BRANCH  12  13
ATOM     13  C   UNL     1      -1.729  11.520  22.616  0.00  0.00    +0.000 A 
ATOM     14  C   UNL     1      -1.574  12.147  21.370  0.00  0.00    +0.000 A 
ATOM     15  C   UNL     1      -2.385  13.227  21.016  0.00  0.00    +0.000 A 
ATOM     16  C   UNL     1      -3.353  13.696  21.903  0.00  0.00    +0.000 A 
ATOM     17  C   UNL     1      -3.504  13.091  23.151  0.00  0.00    +0.000 A 
ATOM     18  C   UNL     1      -2.692  12.012  23.508  0.00  0.00    +0.000 A 
ENDBRANCH  12  13
ENDBRANCH  10  12
ENDBRANCH   1   9
BRANCH   3  19
ATOM     19  S   UNL     1       3.094   5.169  19.306  0.00  0.00    +0.000 S 
ATOM     20  O   UNL     1       2.900   4.673  20.649  0.00  0.00    +0.000 OA
ATOM     21  O   UNL     1       2.643   4.425  18.149  0.00  0.00    +0.000 OA
BRANCH  19  22
ATOM     22  N   UNL     1       4.753   5.427  19.150  0.00  0.00    +0.000 NA
ATOM     23  H   UNL     1       5.206   5.256  20.052  0.00  0.00    +0.000 HD
BRANCH  22  24
ATOM     24  C   UNL     1       5.483   4.934  17.957  0.00  0.00    +0.000 C 
ATOM     25  C   UNL     1       5.369   5.895  16.774  0.00  0.00    +0.000 C 
ATOM     26  C   UNL     1       6.008   7.253  17.067  0.00  0.00    +0.000 C 
ATOM     27  C   UNL     1       7.457   7.124  17.525  0.00  0.00    +0.000 C 
ATOM     28  C   UNL     1       7.630   6.110  18.653  0.00  0.00    +0.000 C 
ATOM     29  C   UNL     1       6.972   4.771  18.316  0.00  0.00    +0.000 C 
ENDBRANCH  22  24
ENDBRANCH  19  22
ENDBRANCH   3  19
TORSDOF 6
ENDMDL
MODEL 5
REMARK VINA RESULT:      -7.9      3.764      8.153
REMARK  Name = 
REMARK  6 active torsions:
REMARK  status: ('A' for Active; 'I' for Inactive)
REMARK    1  A    between atoms: C_2  and  C_11
REMARK    2  A    between atoms: N_3  and  C_4
REMARK    3  A    between atoms: C_4  and  C_5
REMARK    4  A    between atoms: C_13  and  S_14
REMARK    5  A    between atoms: S_14  and  N_17
REMARK    6  A    between atoms: N_17  and  C_18
REMARK                            x       y       z     vdW  Elec       q    Type
REMARK                         _______ _______ _______ _____ _____    ______ ____
ROOT
ATOM      1  C   UNL     1       2.098   7.156  19.177  0.00  0.00    +0.000 A 
ATOM      2  C   UNL     1       2.789   6.177  18.448  0.00  0.00    +0.000 A 
ATOM      3  C   UNL     1       3.008   4.906  18.998  0.00  0.00    +0.000 A 
ATOM      4  C   UNL     1       2.536   4.599  20.279  0.00  0.00    +0.000 A 
ATOM      5  C   UNL     1       1.852   5.573  21.009  0.00  0.00    +0.000 A 
ATOM      6  C   UNL     1       1.634   6.838  20.457  0.00  0.00    +0.000 A 
ATOM      7  F   UNL     1       0.958   7.734  21.194  0.00  0.00    +0.000 F 
ENDROOT
BRANCH   1   9
ATOM      8  O   UNL     1       2.491   8.771  17.515  0.00  0.00    +0.000 OA
ATOM      9  C   UNL     1       1.879   8.489  18.542  0.00  0.00    +0.000 C 
ATOM     10  N   UNL     1       0.986   9.343  19.141  0.00  0.00    +0.000 N 
ATOM     11  H   UNL     1       0.491   9.054  19.975  0.00  0.00    +0.000 HD
BRANCH  10  12
ATOM     12  C   UNL     1       0.636  10.625  18.571  0.00  0.00    +0.000 C 
BRANCH  12  13
ATOM     13  C   UNL     1      -0.847  10.708  18.315  0.00  0.00    +0.000 A 
ATOM     14  C   UNL     1      -1.464   9.860  17.384  0.00  0.00    +0.000 A 
ATOM     15  C   UNL     1      -2.838   9.942  17.153  0.00  0.00    +0.000 A 
ATOM     16  C   UNL     1      -3.608  10.876  17.844  0.00  0.00    +0.000 A 
ATOM     17  C   UNL     1      -3.002  11.737  18.760  0.00  0.00    +0.000 A 
ATOM     18  C   UNL     1      -1.628  11.657  18.989  0.00  0.00    +0.000 A 
ENDBRANCH  12  13
ENDBRANCH  10  12
ENDBRANCH   1   9
BRANCH   3  19
ATOM     19  S   UNL     1       3.819   3.648  18.033  0.00  0.00    +0.000 S 
ATOM     20  O   UNL     1       3.627   2.403  18.740  0.00  0.00    +0.000 OA
ATOM     21  O   UNL     1       3.442   3.799  16.644  0.00  0.00    +0.000 OA
BRANCH  19  22
ATOM     22  N   UNL     1       5.460   4.004  18.172  0.00  0.00    +0.000 NA
ATOM     23  H   UNL     1       5.892   3.351  18.831  0.00  0.00    +0.000 HD
BRANCH  22  24
ATOM     24  C   UNL     1       6.265   4.334  16.971  0.00  0.00    +0.000 C 
ATOM     25  C   UNL     1       5.771   5.601  16.275  0.00  0.00    +0.000 C 
ATOM     26  C   UNL     1       5.905   6.839  17.163  0.00  0.00    +0.000 C 
ATOM     27  C   UNL     1       7.325   7.025  17.686  0.00  0.00    +0.000 C 
ATOM     28  C   UNL     1       7.891   5.755  18.317  0.00  0.00    +0.000 C 
ATOM     29  C   UNL     1       7.731   4.546  17.395  0.00  0.00    +0.000 C 
ENDBRANCH  22  24
ENDBRANCH  19  22
ENDBRANCH   3  19
TORSDOF 6
ENDMDL
MODEL 6
REMARK VINA RESULT:      -7.8      5.571      7.986
REMARK  Name = 
REMARK  6 active torsions:
REMARK  status: ('A' for Active; 'I' for Inactive)
REMARK    1  A    between atoms: C_2  and  C_11
REMARK    2  A    between atoms: N_3  and  C_4
REMARK    3  A    between atoms: C_4  and  C_5
REMARK    4  A    between atoms: C_13  and  S_14
REMARK    5  A    between atoms: S_14  and  N_17
REMARK    6  A    between atoms: N_17  and  C_18
REMARK                            x       y       z     vdW  Elec       q    Type
REMARK                         _______ _______ _______ _____ _____    ______ ____
ROOT
ATOM      1  C   UNL     1       1.644   8.681  19.058  0.00  0.00    +0.000 A 
ATOM      2  C   UNL     1       1.078   9.894  18.635  0.00  0.00    +0.000 A 
ATOM      3  C   UNL     1       0.315  10.667  19.522  0.00  0.00    +0.000 A 
ATOM      4  C   UNL     1       0.113  10.240  20.839  0.00  0.00    +0.000 A 
ATOM      5  C   UNL     1       0.671   9.031  21.262  0.00  0.00    +0.000 A 
ATOM      6  C   UNL     1       1.432   8.264  20.375  0.00  0.00    +0.000 A 
ATOM      7  F   UNL     1       1.959   7.118  20.835  0.00  0.00    +0.000 F 
ENDROOT
BRANCH   1   9
ATOM      8  O   UNL     1       2.794   8.430  17.023  0.00  0.00    +0.000 OA
ATOM      9  C   UNL     1       2.459   7.902  18.080  0.00  0.00    +0.000 C 
ATOM     10  N   UNL     1       2.806   6.617  18.419  0.00  0.00    +0.000 N 
ATOM     11  H   UNL     1       2.523   6.235  19.313  0.00  0.00    +0.000 HD
BRANCH  10  12
ATOM     12  C   UNL     1       3.659   5.798  17.587  0.00  0.00    +0.000 C 
BRANCH  12  13
ATOM     13  C   UNL     1       5.109   5.999  17.945  0.00  0.00    +0.000 A 
ATOM     14  C   UNL     1       5.934   6.821  17.163  0.00  0.00    +0.000 A 
ATOM     15  C   UNL     1       7.276   7.004  17.502  0.00  0.00    +0.000 A 
ATOM     16  C   UNL     1       7.808   6.364  18.621  0.00  0.00    +0.000 A 
ATOM     17  C   UNL     1       7.000   5.532  19.396  0.00  0.00    +0.000 A 
ATOM     18  C   UNL     1       5.659   5.346  19.056  0.00  0.00    +0.000 A 
ENDBRANCH  12  13
ENDBRANCH  10  12
ENDBRANCH   1   9
BRANCH   3  19
ATOM     19  S   UNL     1      -0.333  12.240  18.996  0.00  0.00    +0.000 S 
ATOM     20  O   UNL     1      -1.058  12.781  20.122  0.00  0.00    +0.000 OA
ATOM     21  O   UNL     1       0.715  12.989  18.336  0.00  0.00    +0.000 OA
BRANCH  19  22
ATOM     22  N   UNL     1      -1.502  11.849  17.846  0.00  0.00    +0.000 NA
ATOM     23  H   UNL     1      -1.107  11.971  16.909  0.00  0.00    +0.000 HD
BRANCH  22  24
ATOM     24  C   UNL     1      -2.372  10.662  18.029  0.00  0.00    +0.000 C 
ATOM     25  C   UNL     1      -3.852  11.037  18.100  0.00  0.00    +0.000 C 
ATOM     26  C   UNL     1      -4.353  11.669  16.802  0.00  0.00    +0.000 C 
ATOM     27  C   UNL     1      -4.073  10.792  15.586  0.00  0.00    +0.000 C 
ATOM     28  C   UNL     1      -2.621  10.324  15.519  0.00  0.00    +0.000 C 
ATOM     29  C   UNL     1      -2.166   9.704  16.840  0.00  0.00    +0.000 C 
ENDBRANCH  22  24
ENDBRANCH  19  22
ENDBRANCH   3  19
TORSDOF 6
ENDMDL
MODEL 7
REMARK VINA RESULT:      -7.7      4.850     10.330
REMARK  Name = 
REMARK  6 active torsions:
REMARK  status: ('A' for Active; 'I' for Inactive)
REMARK    1  A    between atoms: C_2  and  C_11
REMARK    2  A    between atoms: N_3  and  C_4
REMARK    3  A    between atoms: C_4  and  C_5
REMARK    4  A    between atoms: C_13  and  S_14
REMARK    5  A    between atoms: S_14  and  N_17
REMARK    6  A    between atoms: N_17  and  C_18
REMARK                            x       y       z     vdW  Elec       q    Type
REMARK                         _______ _______ _______ _____ _____    ______ ____
ROOT
ATOM      1  C   UNL     1       1.347   8.908  20.427  0.00  0.00    +0.000 A 
ATOM      2  C   UNL     1       1.794   7.583  20.307  0.00  0.00    +0.000 A 
ATOM      3  C   UNL     1       2.223   7.090  19.066  0.00  0.00    +0.000 A 
ATOM      4  C   UNL     1       2.213   7.913  17.936  0.00  0.00    +0.000 A 
ATOM      5  C   UNL     1       1.764   9.231  18.051  0.00  0.00    +0.000 A 
ATOM      6  C   UNL     1       1.340   9.720  19.289  0.00  0.00    +0.000 A 
ATOM      7  F   UNL     1       0.931  10.997  19.350  0.00  0.00    +0.000 F 
ENDROOT
BRANCH   1   9
ATOM      8  O   UNL     1       1.742   9.471  22.675  0.00  0.00    +0.000 OA
ATOM      9  C   UNL     1       0.914   9.389  21.772  0.00  0.00    +0.000 C 
ATOM     10  N   UNL     1      -0.407   9.729  21.933  0.00  0.00    +0.000 N 
ATOM     11  H   UNL     1      -1.045   9.664  21.150  0.00  0.00    +0.000 HD
BRANCH  10  12
ATOM     12  C   UNL     1      -0.921  10.282  23.166  0.00  0.00    +0.000 C 
BRANCH  12  13
ATOM     13  C   UNL     1      -1.472  11.666  22.942  0.00  0.00    +0.000 A 
ATOM     14  C   UNL     1      -0.694  12.657  22.325  0.00  0.00    +0.000 A 
ATOM     15  C   UNL     1      -1.212  13.937  22.120  0.00  0.00    +0.000 A 
ATOM     16  C   UNL     1      -2.508  14.243  22.534  0.00  0.00    +0.000 A 
ATOM     17  C   UNL     1      -3.284  13.269  23.164  0.00  0.00    +0.000 A 
ATOM     18  C   UNL     1      -2.766  11.990  23.373  0.00  0.00    +0.000 A 
ENDBRANCH  12  13
ENDBRANCH  10  12
ENDBRANCH   1   9
BRANCH   3  19
ATOM     19  S   UNL     1       2.859   5.431  18.943  0.00  0.00    +0.000 S 
ATOM     20  O   UNL     1       3.121   4.992  20.295  0.00  0.00    +0.000 OA
ATOM     21  O   UNL     1       2.022   4.666  18.045  0.00  0.00    +0.000 OA
BRANCH  19  22
ATOM     22  N   UNL     1       4.372   5.613  18.222  0.00  0.00    +0.000 NA
ATOM     23  H   UNL     1       4.846   6.421  18.635  0.00  0.00    +0.000 HD
BRANCH  22  24
ATOM     24  C   UNL     1       5.227   4.431  17.955  0.00  0.00    +0.000 C 
ATOM     25  C   UNL     1       5.037   3.891  16.538  0.00  0.00    +0.000 C 
ATOM     26  C   UNL     1       5.456   4.902  15.471  0.00  0.00    +0.000 C 
ATOM     27  C   UNL     1       6.883   5.401  15.676  0.00  0.00    +0.000 C 
ATOM     28  C   UNL     1       7.142   5.874  17.104  0.00  0.00    +0.000 C 
ATOM     29  C   UNL     1       6.703   4.832  18.133  0.00  0.00    +0.000 C 
ENDBRANCH  22  24
ENDBRANCH  19  22
ENDBRANCH   3  19
TORSDOF 6
ENDMDL
MODEL 8
REMARK VINA RESULT:      -7.7      4.998      7.082
REMARK  Name = 
REMARK  6 active torsions:
REMARK  status: ('A' for Active; 'I' for Inactive)
REMARK    1  A    between atoms: C_2  and  C_11
REMARK    2  A    between atoms: N_3  and  C_4
REMARK    3  A    between atoms: C_4  and  C_5
REMARK    4  A    between atoms: C_13  and  S_14
REMARK    5  A    between atoms: S_14  and  N_17
REMARK    6  A    between atoms: N_17  and  C_18
REMARK                            x       y       z     vdW  Elec       q    Type
REMARK                         _______ _______ _______ _____ _____    ______ ____
ROOT
ATOM      1  C   UNL     1       2.175   7.381  19.340  0.00  0.00    +0.000 A 
ATOM      2  C   UNL     1       1.515   7.735  20.527  0.00  0.00    +0.000 A 
ATOM      3  C   UNL     1       0.944   9.008  20.668  0.00  0.00    +0.000 A 
ATOM      4  C   UNL     1       1.021   9.937  19.626  0.00  0.00    +0.000 A 
ATOM      5  C   UNL     1       1.682   9.590  18.445  0.00  0.00    +0.000 A 
ATOM      6  C   UNL     1       2.249   8.320  18.308  0.00  0.00    +0.000 A 
ATOM      7  F   UNL     1       2.860   8.031  17.147  0.00  0.00    +0.000 F 
ENDROOT
BRANCH   1   9
ATOM      8  O   UNL     1       2.022   5.070  18.941  0.00  0.00    +0.000 OA
ATOM      9  C   UNL     1       2.755   6.010  19.235  0.00  0.00    +0.000 C 
ATOM     10  N   UNL     1       4.101   5.867  19.468  0.00  0.00    +0.000 N 
ATOM     11  H   UNL     1       4.666   6.679  19.686  0.00  0.00    +0.000 HD
BRANCH  10  12
ATOM     12  C   UNL     1       4.785   4.602  19.317  0.00  0.00    +0.000 C 
BRANCH  12  13
ATOM     13  C   UNL     1       5.467   4.521  17.976  0.00  0.00    +0.000 A 
ATOM     14  C   UNL     1       6.846   4.751  17.856  0.00  0.00    +0.000 A 
ATOM     15  C   UNL     1       7.470   4.672  16.609  0.00  0.00    +0.000 A 
ATOM     16  C   UNL     1       6.725   4.369  15.471  0.00  0.00    +0.000 A 
ATOM     17  C   UNL     1       5.350   4.154  15.577  0.00  0.00    +0.000 A 
ATOM     18  C   UNL     1       4.724   4.236  16.822  0.00  0.00    +0.000 A 
ENDBRANCH  12  13
ENDBRANCH  10  12
ENDBRANCH   1   9
BRANCH   3  19
ATOM     19  S   UNL     1       0.043   9.417  22.149  0.00  0.00    +0.000 S 
ATOM     20  O   UNL     1      -0.865   8.319  22.392  0.00  0.00    +0.000 OA
ATOM     21  O   UNL     1       0.973   9.871  23.160  0.00  0.00    +0.000 OA
BRANCH  19  22
ATOM     22  N   UNL     1      -0.928  10.721  21.704  0.00  0.00    +0.000 NA
ATOM     23  H   UNL     1      -1.908  10.426  21.704  0.00  0.00    +0.000 HD
BRANCH  22  24
ATOM     24  C   UNL     1      -0.662  12.077  22.243  0.00  0.00    +0.000 C 
ATOM     25  C   UNL     1      -0.473  13.111  21.134  0.00  0.00    +0.000 C 
ATOM     26  C   UNL     1      -1.732  13.289  20.287  0.00  0.00    +0.000 C 
ATOM     27  C   UNL     1      -2.958  13.618  21.133  0.00  0.00    +0.000 C 
ATOM     28  C   UNL     1      -3.139  12.656  22.305  0.00  0.00    +0.000 C 
ATOM     29  C   UNL     1      -1.853  12.509  23.119  0.00  0.00    +0.000 C 
ENDBRANCH  22  24
ENDBRANCH  19  22
ENDBRANCH   3  19
TORSDOF 6
ENDMDL
MODEL 9
REMARK VINA RESULT:      -7.7      4.781     10.221
REMARK  Name = 
REMARK  6 active torsions:
REMARK  status: ('A' for Active; 'I' for Inactive)
REMARK    1  A    between atoms: C_2  and  C_11
REMARK    2  A    between atoms: N_3  and  C_4
REMARK    3  A    between atoms: C_4  and  C_5
REMARK    4  A    between atoms: C_13  and  S_14
REMARK    5  A    between atoms: S_14  and  N_17
REMARK    6  A    between atoms: N_17  and  C_18
REMARK                            x       y       z     vdW  Elec       q    Type
REMARK                         _______ _______ _______ _____ _____    ______ ____
ROOT
ATOM      1  C   UNL     1       1.351   8.759  20.454  0.00  0.00    +0.000 A 
ATOM      2  C   UNL     1       1.765   7.421  20.357  0.00  0.00    +0.000 A 
ATOM      3  C   UNL     1       2.185   6.897  19.126  0.00  0.00    +0.000 A 
ATOM      4  C   UNL     1       2.200   7.702  17.983  0.00  0.00    +0.000 A 
ATOM      5  C   UNL     1       1.784   9.033  18.075  0.00  0.00    +0.000 A 
ATOM      6  C   UNL     1       1.368   9.552  19.304  0.00  0.00    +0.000 A 
ATOM      7  F   UNL     1       0.992  10.840  19.343  0.00  0.00    +0.000 F 
ENDROOT
BRANCH   1   9
ATOM      8  O   UNL     1       1.760   9.380  22.684  0.00  0.00    +0.000 OA
ATOM      9  C   UNL     1       0.926   9.272  21.790  0.00  0.00    +0.000 C 
ATOM     10  N   UNL     1      -0.395   9.610  21.952  0.00  0.00    +0.000 N 
ATOM     11  H   UNL     1      -1.040   9.522  21.176  0.00  0.00    +0.000 HD
BRANCH  10  12
ATOM     12  C   UNL     1      -0.903  10.192  23.175  0.00  0.00    +0.000 C 
BRANCH  12  13
ATOM     13  C   UNL     1      -1.403  11.592  22.933  0.00  0.00    +0.000 A 
ATOM     14  C   UNL     1      -2.679  11.984  23.363  0.00  0.00    +0.000 A 
ATOM     15  C   UNL     1      -3.134  13.284  23.136  0.00  0.00    +0.000 A 
ATOM     16  C   UNL     1      -2.323  14.204  22.473  0.00  0.00    +0.000 A 
ATOM     17  C   UNL     1      -1.058  13.820  22.026  0.00  0.00    +0.000 A 
ATOM     18  C   UNL     1      -0.603  12.519  22.249  0.00  0.00    +0.000 A 
ENDBRANCH  12  13
ENDBRANCH  10  12
ENDBRANCH   1   9
BRANCH   3  19
ATOM     19  S   UNL     1       2.780   5.221  19.032  0.00  0.00    +0.000 S 
ATOM     20  O   UNL     1       3.694   5.049  20.138  0.00  0.00    +0.000 OA
ATOM     21  O   UNL     1       1.658   4.330  18.828  0.00  0.00    +0.000 OA
BRANCH  19  22
ATOM     22  N   UNL     1       3.734   5.191  17.643  0.00  0.00    +0.000 NA
ATOM     23  H   UNL     1       3.232   5.654  16.880  0.00  0.00    +0.000 HD
BRANCH  22  24
ATOM     24  C   UNL     1       5.188   5.469  17.721  0.00  0.00    +0.000 C 
ATOM     25  C   UNL     1       6.029   4.275  17.272  0.00  0.00    +0.000 C 
ATOM     26  C   UNL     1       5.797   3.923  15.802  0.00  0.00    +0.000 C 
ATOM     27  C   UNL     1       6.014   5.118  14.880  0.00  0.00    +0.000 C 
ATOM     28  C   UNL     1       5.256   6.361  15.339  0.00  0.00    +0.000 C 
ATOM     29  C   UNL     1       5.516   6.670  16.814  0.00  0.00    +0.000 C 
ENDBRANCH  22  24
ENDBRANCH  19  22
ENDBRANCH   3  19
TORSDOF 6
ENDMDL
