MODEL 1
REMARK VINA RESULT:      -7.4      0.000      0.000
REMARK  Name = 
REMARK  14 active torsions:
REMARK  status: ('A' for Active; 'I' for Inactive)
REMARK    1  A    between atoms: C_1  and  C_2
REMARK    2  A    between atoms: N_4  and  C_5
REMARK    3  A    between atoms: C_6  and  O_7
REMARK    4  A    between atoms: C_9  and  O_10
REMARK    5  A    between atoms: C_9  and  C_24
REMARK    6  A    between atoms: O_10  and  C_11
REMARK    7  A    between atoms: C_14  and  O_15
REMARK    8  A    between atoms: O_15  and  C_16
REMARK    9  A    between atoms: C_28  and  C_29
REMARK   10  A    between atoms: C_29  and  O_30
REMARK   11  A    between atoms: C_29  and  C_31
REMARK   12  A    between atoms: C_31  and  O_32
REMARK   13  A    between atoms: C_31  and  C_33
REMARK   14  A    between atoms: C_33  and  O_34
REMARK                            x       y       z     vdW  Elec       q    Type
REMARK                         _______ _______ _______ _____ _____    ______ ____
ROOT
ATOM      1  C   UNL     1       5.669   5.225  17.785  0.00  0.00    +0.000 C 
ATOM      2  C   UNL     1       4.580   5.974  17.011  0.00  0.00    +0.000 C 
ATOM      3  C   UNL     1       3.530   6.620  17.923  0.00  0.00    +0.000 C 
ATOM      4  C   UNL     1       3.211   5.965  19.291  0.00  0.00    +0.000 C 
ATOM      5  O   UNL     1       4.348   5.199  19.769  0.00  0.00    +0.000 OA
ATOM      6  C   UNL     1       5.013   4.332  18.843  0.00  0.00    +0.000 C 
ENDROOT
BRANCH   1  10
ATOM      7  C   UNL     1       8.270   7.925  18.513  0.00  0.00    +0.000 C 
ATOM      8  C   UNL     1       7.539   6.894  17.700  0.00  0.00    +0.000 C 
ATOM      9  O   UNL     1       7.750   6.716  16.511  0.00  0.00    +0.000 OA
ATOM     10  N   UNL     1       6.607   6.176  18.410  0.00  0.00    +0.000 N 
ATOM     11  H   UNL     1       6.345   6.539  19.319  0.00  0.00    +0.000 HD
ENDBRANCH   1  10
BRANCH   4  12
ATOM     12  C   UNL     1       1.901   5.085  19.585  0.00  0.00    +0.000 C 
ATOM     13  O   UNL     1       1.541   4.878  20.774  0.00  0.00    +0.000 OA
ATOM     14  O   UNL     1       1.256   4.658  18.557  0.00  0.00    +0.000 OA
ENDBRANCH   4  12
BRANCH   2  15
ATOM     15  O   UNL     1       3.944   5.106  16.067  0.00  0.00    +0.000 OA
ATOM     16  H   UNL     1       4.597   4.916  15.362  0.00  0.00    +0.000 HD
ENDBRANCH   2  15
BRANCH   4  17
ATOM     17  O   UNL     1       2.940   7.187  20.075  0.00  0.00    +0.000 OA
BRANCH  17  18
ATOM     18  C   UNL     1       2.106   8.140  19.598  0.00  0.00    +0.000 A 
ATOM     19  C   UNL     1       2.074   8.546  18.271  0.00  0.00    +0.000 A 
ATOM     20  C   UNL     1       1.217   9.544  17.855  0.00  0.00    +0.000 A 
ATOM     21  C   UNL     1       0.326  10.089  18.763  0.00  0.00    +0.000 A 
ATOM     22  C   UNL     1       0.297   9.653  20.089  0.00  0.00    +0.000 A 
ATOM     23  C   UNL     1       1.179   8.656  20.501  0.00  0.00    +0.000 A 
BRANCH  21  24
ATOM     24  O   UNL     1      -0.424  11.113  18.265  0.00  0.00    +0.000 OA
BRANCH  24  25
ATOM     25  C   UNL     1      -1.751  10.918  17.986  0.00  0.00    +0.000 A 
ATOM     26  C   UNL     1      -2.605  11.748  18.703  0.00  0.00    +0.000 A 
ATOM     27  C   UNL     1      -3.982  11.633  18.535  0.00  0.00    +0.000 A 
ATOM     28  C   UNL     1      -4.498  10.691  17.654  0.00  0.00    +0.000 A 
ATOM     29  C   UNL     1      -3.639   9.881  16.896  0.00  0.00    +0.000 A 
ATOM     30  C   UNL     1      -2.260  10.012  17.050  0.00  0.00    +0.000 A 
ENDBRANCH  24  25
ENDBRANCH  21  24
ENDBRANCH  17  18
ENDBRANCH   4  17
BRANCH   6  31
ATOM     31  C   UNL     1       4.141   3.113  18.404  0.00  0.00    +0.000 C 
BRANCH  31  32
ATOM     32  O   UNL     1       4.611   2.413  17.250  0.00  0.00    +0.000 OA
ATOM     33  H   UNL     1       4.766   1.472  17.495  0.00  0.00    +0.000 HD
ENDBRANCH  31  32
BRANCH  31  34
ATOM     34  C   UNL     1       3.868   2.082  19.517  0.00  0.00    +0.000 C 
BRANCH  34  35
ATOM     35  O   UNL     1       4.844   1.034  19.481  0.00  0.00    +0.000 OA
ATOM     36  H   UNL     1       5.063   0.807  20.403  0.00  0.00    +0.000 HD
ENDBRANCH  34  35
BRANCH  34  37
ATOM     37  C   UNL     1       2.470   1.456  19.361  0.00  0.00    +0.000 C 
BRANCH  37  38
ATOM     38  O   UNL     1       1.851   1.857  18.137  0.00  0.00    +0.000 OA
ATOM     39  H   UNL     1       1.055   2.358  18.390  0.00  0.00    +0.000 HD
ENDBRANCH  37  38
ENDBRANCH  34  37
ENDBRANCH  31  34
ENDBRANCH   6  31
TORSDOF 13
ENDMDL
MODEL 2
REMARK VINA RESULT:      -7.3      0.253      1.024
REMARK  Name = 
REMARK  14 active torsions:
REMARK  status: ('A' for Active; 'I' for Inactive)
REMARK    1  A    between atoms: C_1  and  C_2
REMARK    2  A    between atoms: N_4  and  C_5
REMARK    3  A    between atoms: C_6  and  O_7
REMARK    4  A    between atoms: C_9  and  O_10
REMARK    5  A    between atoms: C_9  and  C_24
REMARK    6  A    between atoms: O_10  and  C_11
REMARK    7  A    between atoms: C_14  and  O_15
REMARK    8  A    between atoms: O_15  and  C_16
REMARK    9  A    between atoms: C_28  and  C_29
REMARK   10  A    between atoms: C_29  and  O_30
REMARK   11  A    between atoms: C_29  and  C_31
REMARK   12  A    between atoms: C_31  and  O_32
REMARK   13  A    between atoms: C_31  and  C_33
REMARK   14  A    between atoms: C_33  and  O_34
REMARK                            x       y       z     vdW  Elec       q    Type
REMARK                         _______ _______ _______ _____ _____    ______ ____
ROOT
ATOM      1  C   UNL     1       5.718   5.388  17.770  0.00  0.00    +0.000 C 
ATOM      2  C   UNL     1       4.614   6.114  16.994  0.00  0.00    +0.000 C 
ATOM      3  C   UNL     1       3.542   6.727  17.904  0.00  0.00    +0.000 C 
ATOM      4  C   UNL     1       3.232   6.053  19.266  0.00  0.00    +0.000 C 
ATOM      5  O   UNL     1       4.385   5.313  19.746  0.00  0.00    +0.000 OA
ATOM      6  C   UNL     1       5.078   4.470  18.817  0.00  0.00    +0.000 C 
ENDROOT
BRANCH   1  10
ATOM      7  C   UNL     1       8.270   8.123  18.534  0.00  0.00    +0.000 C 
ATOM      8  C   UNL     1       7.574   7.073  17.716  0.00  0.00    +0.000 C 
ATOM      9  O   UNL     1       7.823   6.878  16.537  0.00  0.00    +0.000 OA
ATOM     10  N   UNL     1       6.627   6.357  18.409  0.00  0.00    +0.000 N 
ATOM     11  H   UNL     1       6.333   6.733  19.303  0.00  0.00    +0.000 HD
ENDBRANCH   1  10
BRANCH   4  12
ATOM     12  C   UNL     1       1.943   5.138  19.545  0.00  0.00    +0.000 C 
ATOM     13  O   UNL     1       1.334   4.604  18.581  0.00  0.00    +0.000 OA
ATOM     14  O   UNL     1       1.617   4.971  20.778  0.00  0.00    +0.000 OA
ENDBRANCH   4  12
BRANCH   2  15
ATOM     15  O   UNL     1       4.007   5.238  16.041  0.00  0.00    +0.000 OA
ATOM     16  H   UNL     1       4.557   4.428  15.999  0.00  0.00    +0.000 HD
ENDBRANCH   2  15
BRANCH   4  17
ATOM     17  O   UNL     1       2.925   7.261  20.057  0.00  0.00    +0.000 OA
BRANCH  17  18
ATOM     18  C   UNL     1       2.092   8.211  19.569  0.00  0.00    +0.000 A 
ATOM     19  C   UNL     1       2.072   8.613  18.241  0.00  0.00    +0.000 A 
ATOM     20  C   UNL     1       1.217   9.608  17.814  0.00  0.00    +0.000 A 
ATOM     21  C   UNL     1       0.315  10.152  18.711  0.00  0.00    +0.000 A 
ATOM     22  C   UNL     1       0.274   9.719  20.038  0.00  0.00    +0.000 A 
ATOM     23  C   UNL     1       1.155   8.726  20.462  0.00  0.00    +0.000 A 
BRANCH  21  24
ATOM     24  O   UNL     1      -0.433  11.172  18.203  0.00  0.00    +0.000 OA
BRANCH  24  25
ATOM     25  C   UNL     1      -1.799  11.069  18.167  0.00  0.00    +0.000 A 
ATOM     26  C   UNL     1      -2.264  10.032  17.368  0.00  0.00    +0.000 A 
ATOM     27  C   UNL     1      -3.634   9.833  17.222  0.00  0.00    +0.000 A 
ATOM     28  C   UNL     1      -4.530  10.672  17.873  0.00  0.00    +0.000 A 
ATOM     29  C   UNL     1      -4.065  11.693  18.715  0.00  0.00    +0.000 A 
ATOM     30  C   UNL     1      -2.693  11.877  18.877  0.00  0.00    +0.000 A 
ENDBRANCH  24  25
ENDBRANCH  21  24
ENDBRANCH  17  18
ENDBRANCH   4  17
BRANCH   6  31
ATOM     31  C   UNL     1       4.240   3.233  18.363  0.00  0.00    +0.000 C 
BRANCH  31  32
ATOM     32  O   UNL     1       4.740   2.549  17.212  0.00  0.00    +0.000 OA
ATOM     33  H   UNL     1       4.347   1.647  17.188  0.00  0.00    +0.000 HD
ENDBRANCH  31  32
BRANCH  31  34
ATOM     34  C   UNL     1       3.979   2.191  19.469  0.00  0.00    +0.000 C 
BRANCH  34  35
ATOM     35  O   UNL     1       5.209   1.588  19.891  0.00  0.00    +0.000 OA
ATOM     36  H   UNL     1       5.922   2.230  19.719  0.00  0.00    +0.000 HD
ENDBRANCH  34  35
BRANCH  34  37
ATOM     37  C   UNL     1       3.035   1.081  18.972  0.00  0.00    +0.000 C 
BRANCH  37  38
ATOM     38  O   UNL     1       1.879   1.626  18.334  0.00  0.00    +0.000 OA
ATOM     39  H   UNL     1       1.451   0.882  17.874  0.00  0.00    +0.000 HD
ENDBRANCH  37  38
ENDBRANCH  34  37
ENDBRANCH  31  34
ENDBRANCH   6  31
TORSDOF 13
ENDMDL
MODEL 3
REMARK VINA RESULT:      -7.1      1.208      1.880
REMARK  Name = 
REMARK  14 active torsions:
REMARK  status: ('A' for Active; 'I' for Inactive)
REMARK    1  A    between atoms: C_1  and  C_2
REMARK    2  A    between atoms: N_4  and  C_5
REMARK    3  A    between atoms: C_6  and  O_7
REMARK    4  A    between atoms: C_9  and  O_10
REMARK    5  A    between atoms: C_9  and  C_24
REMARK    6  A    between atoms: O_10  and  C_11
REMARK    7  A    between atoms: C_14  and  O_15
REMARK    8  A    between atoms: O_15  and  C_16
REMARK    9  A    between atoms: C_28  and  C_29
REMARK   10  A    between atoms: C_29  and  O_30
REMARK   11  A    between atoms: C_29  and  C_31
REMARK   12  A    between atoms: C_31  and  O_32
REMARK   13  A    between atoms: C_31  and  C_33
REMARK   14  A    between atoms: C_33  and  O_34
REMARK                            x       y       z     vdW  Elec       q    Type
REMARK                         _______ _______ _______ _____ _____    ______ ____
ROOT
ATOM      1  C   UNL     1       5.775   5.371  17.760  0.00  0.00    +0.000 C 
ATOM      2  C   UNL     1       4.705   6.083  16.928  0.00  0.00    +0.000 C 
ATOM      3  C   UNL     1       3.630   6.764  17.785  0.00  0.00    +0.000 C 
ATOM      4  C   UNL     1       3.278   6.164  19.170  0.00  0.00    +0.000 C 
ATOM      5  O   UNL     1       4.403   5.423  19.709  0.00  0.00    +0.000 OA
ATOM      6  C   UNL     1       5.093   4.520  18.837  0.00  0.00    +0.000 C 
ENDROOT
BRANCH   1  10
ATOM      7  C   UNL     1       8.303   8.150  18.445  0.00  0.00    +0.000 C 
ATOM      8  C   UNL     1       7.589   7.099  17.643  0.00  0.00    +0.000 C 
ATOM      9  O   UNL     1       7.781   6.931  16.450  0.00  0.00    +0.000 OA
ATOM     10  N   UNL     1       6.695   6.349  18.370  0.00  0.00    +0.000 N 
ATOM     11  H   UNL     1       6.439   6.702  19.285  0.00  0.00    +0.000 HD
ENDBRANCH   1  10
BRANCH   4  12
ATOM     12  C   UNL     1       1.962   5.294  19.467  0.00  0.00    +0.000 C 
ATOM     13  O   UNL     1       1.327   4.774  18.512  0.00  0.00    +0.000 OA
ATOM     14  O   UNL     1       1.642   5.145  20.704  0.00  0.00    +0.000 OA
ENDBRANCH   4  12
BRANCH   2  15
ATOM     15  O   UNL     1       4.096   5.176  16.005  0.00  0.00    +0.000 OA
ATOM     16  H   UNL     1       4.625   5.200  15.181  0.00  0.00    +0.000 HD
ENDBRANCH   2  15
BRANCH   4  17
ATOM     17  O   UNL     1       2.984   7.417  19.896  0.00  0.00    +0.000 OA
BRANCH  17  18
ATOM     18  C   UNL     1       2.014   8.254  19.459  0.00  0.00    +0.000 A 
ATOM     19  C   UNL     1       1.830   8.596  18.126  0.00  0.00    +0.000 A 
ATOM     20  C   UNL     1       0.838   9.479  17.752  0.00  0.00    +0.000 A 
ATOM     21  C   UNL     1      -0.031   9.965  18.712  0.00  0.00    +0.000 A 
ATOM     22  C   UNL     1       0.096   9.586  20.050  0.00  0.00    +0.000 A 
ATOM     23  C   UNL     1       1.113   8.707  20.420  0.00  0.00    +0.000 A 
BRANCH  21  24
ATOM     24  O   UNL     1      -0.927  10.880  18.245  0.00  0.00    +0.000 OA
BRANCH  24  25
ATOM     25  C   UNL     1      -1.060  12.091  18.872  0.00  0.00    +0.000 A 
ATOM     26  C   UNL     1      -0.146  13.048  18.447  0.00  0.00    +0.000 A 
ATOM     27  C   UNL     1      -0.154  14.314  19.025  0.00  0.00    +0.000 A 
ATOM     28  C   UNL     1      -1.072  14.617  20.022  0.00  0.00    +0.000 A 
ATOM     29  C   UNL     1      -2.025  13.668  20.423  0.00  0.00    +0.000 A 
ATOM     30  C   UNL     1      -2.029  12.407  19.829  0.00  0.00    +0.000 A 
ENDBRANCH  24  25
ENDBRANCH  21  24
ENDBRANCH  17  18
ENDBRANCH   4  17
BRANCH   6  31
ATOM     31  C   UNL     1       4.236   3.282  18.426  0.00  0.00    +0.000 C 
BRANCH  31  32
ATOM     32  O   UNL     1       4.725   2.550  17.301  0.00  0.00    +0.000 OA
ATOM     33  H   UNL     1       3.956   2.252  16.762  0.00  0.00    +0.000 HD
ENDBRANCH  31  32
BRANCH  31  34
ATOM     34  C   UNL     1       3.957   2.284  19.568  0.00  0.00    +0.000 C 
BRANCH  34  35
ATOM     35  O   UNL     1       5.041   1.356  19.699  0.00  0.00    +0.000 OA
ATOM     36  H   UNL     1       5.105   0.862  18.862  0.00  0.00    +0.000 HD
ENDBRANCH  34  35
BRANCH  34  37
ATOM     37  C   UNL     1       2.663   1.492  19.308  0.00  0.00    +0.000 C 
BRANCH  37  38
ATOM     38  O   UNL     1       2.028   1.911  18.099  0.00  0.00    +0.000 OA
ATOM     39  H   UNL     1       2.340   1.300  17.407  0.00  0.00    +0.000 HD
ENDBRANCH  37  38
ENDBRANCH  34  37
ENDBRANCH  31  34
ENDBRANCH   6  31
TORSDOF 13
ENDMDL
MODEL 4
REMARK VINA RESULT:      -7.0      2.444      4.614
REMARK  Name = 
REMARK  14 active torsions:
REMARK  status: ('A' for Active; 'I' for Inactive)
REMARK    1  A    between atoms: C_1  and  C_2
REMARK    2  A    between atoms: N_4  and  C_5
REMARK    3  A    between atoms: C_6  and  O_7
REMARK    4  A    between atoms: C_9  and  O_10
REMARK    5  A    between atoms: C_9  and  C_24
REMARK    6  A    between atoms: O_10  and  C_11
REMARK    7  A    between atoms: C_14  and  O_15
REMARK    8  A    between atoms: O_15  and  C_16
REMARK    9  A    between atoms: C_28  and  C_29
REMARK   10  A    between atoms: C_29  and  O_30
REMARK   11  A    between atoms: C_29  and  C_31
REMARK   12  A    between atoms: C_31  and  O_32
REMARK   13  A    between atoms: C_31  and  C_33
REMARK   14  A    between atoms: C_33  and  O_34
REMARK                            x       y       z     vdW  Elec       q    Type
REMARK                         _______ _______ _______ _____ _____    ______ ____
ROOT
ATOM      1  C   UNL     1       4.968   3.503  18.624  0.00  0.00    +0.000 C 
ATOM      2  C   UNL     1       4.951   4.728  19.543  0.00  0.00    +0.000 C 
ATOM      3  C   UNL     1       4.183   5.916  18.949  0.00  0.00    +0.000 C 
ATOM      4  C   UNL     1       4.131   6.088  17.409  0.00  0.00    +0.000 C 
ATOM      5  O   UNL     1       4.297   4.808  16.744  0.00  0.00    +0.000 OA
ATOM      6  C   UNL     1       5.342   3.942  17.204  0.00  0.00    +0.000 C 
ENDROOT
BRANCH   1  10
ATOM      7  C   UNL     1       1.631   1.911  19.578  0.00  0.00    +0.000 C 
ATOM      8  C   UNL     1       3.029   2.419  19.787  0.00  0.00    +0.000 C 
ATOM      9  O   UNL     1       3.558   2.470  20.886  0.00  0.00    +0.000 OA
ATOM     10  N   UNL     1       3.657   2.828  18.635  0.00  0.00    +0.000 N 
ATOM     11  H   UNL     1       3.073   2.960  17.818  0.00  0.00    +0.000 HD
ENDBRANCH   1  10
BRANCH   4  12
ATOM     12  C   UNL     1       5.009   7.154  16.592  0.00  0.00    +0.000 C 
ATOM     13  O   UNL     1       5.796   7.920  17.209  0.00  0.00    +0.000 OA
ATOM     14  O   UNL     1       4.880   7.141  15.312  0.00  0.00    +0.000 OA
ENDBRANCH   4  12
BRANCH   2  15
ATOM     15  O   UNL     1       6.284   5.125  19.880  0.00  0.00    +0.000 OA
ATOM     16  H   UNL     1       6.893   4.483  19.459  0.00  0.00    +0.000 HD
ENDBRANCH   2  15
BRANCH   4  17
ATOM     17  O   UNL     1       2.772   6.654  17.286  0.00  0.00    +0.000 OA
BRANCH  17  18
ATOM     18  C   UNL     1       2.303   7.525  18.210  0.00  0.00    +0.000 A 
ATOM     19  C   UNL     1       2.163   7.222  19.557  0.00  0.00    +0.000 A 
ATOM     20  C   UNL     1       1.651   8.148  20.443  0.00  0.00    +0.000 A 
ATOM     21  C   UNL     1       1.347   9.419  19.989  0.00  0.00    +0.000 A 
ATOM     22  C   UNL     1       1.538   9.766  18.650  0.00  0.00    +0.000 A 
ATOM     23  C   UNL     1       2.040   8.817  17.761  0.00  0.00    +0.000 A 
BRANCH  21  24
ATOM     24  O   UNL     1       0.785  10.230  20.930  0.00  0.00    +0.000 OA
BRANCH  24  25
ATOM     25  C   UNL     1       0.413  11.506  20.600  0.00  0.00    +0.000 A 
ATOM     26  C   UNL     1      -0.944  11.646  20.335  0.00  0.00    +0.000 A 
ATOM     27  C   UNL     1      -1.451  12.887  19.961  0.00  0.00    +0.000 A 
ATOM     28  C   UNL     1      -0.600  13.980  19.852  0.00  0.00    +0.000 A 
ATOM     29  C   UNL     1       0.763  13.853  20.160  0.00  0.00    +0.000 A 
ATOM     30  C   UNL     1       1.265  12.615  20.556  0.00  0.00    +0.000 A 
ENDBRANCH  24  25
ENDBRANCH  21  24
ENDBRANCH  17  18
ENDBRANCH   4  17
BRANCH   6  31
ATOM     31  C   UNL     1       6.773   4.492  16.909  0.00  0.00    +0.000 C 
BRANCH  31  32
ATOM     32  O   UNL     1       7.813   3.949  17.725  0.00  0.00    +0.000 OA
ATOM     33  H   UNL     1       7.403   3.400  18.433  0.00  0.00    +0.000 HD
ENDBRANCH  31  32
BRANCH  31  34
ATOM     34  C   UNL     1       7.212   4.387  15.435  0.00  0.00    +0.000 C 
BRANCH  34  35
ATOM     35  O   UNL     1       7.589   5.673  14.930  0.00  0.00    +0.000 OA
ATOM     36  H   UNL     1       8.490   5.592  14.568  0.00  0.00    +0.000 HD
ENDBRANCH  34  35
BRANCH  34  37
ATOM     37  C   UNL     1       6.077   3.829  14.557  0.00  0.00    +0.000 C 
BRANCH  37  38
ATOM     38  O   UNL     1       6.555   3.438  13.269  0.00  0.00    +0.000 OA
ATOM     39  H   UNL     1       5.809   2.994  12.829  0.00  0.00    +0.000 HD
ENDBRANCH  37  38
ENDBRANCH  34  37
ENDBRANCH  31  34
ENDBRANCH   6  31
TORSDOF 13
ENDMDL
MODEL 5
REMARK VINA RESULT:      -7.0      1.808      2.548
REMARK  Name = 
REMARK  14 active torsions:
REMARK  status: ('A' for Active; 'I' for Inactive)
REMARK    1  A    between atoms: C_1  and  C_2
REMARK    2  A    between atoms: N_4  and  C_5
REMARK    3  A    between atoms: C_6  and  O_7
REMARK    4  A    between atoms: C_9  and  O_10
REMARK    5  A    between atoms: C_9  and  C_24
REMARK    6  A    between atoms: O_10  and  C_11
REMARK    7  A    between atoms: C_14  and  O_15
REMARK    8  A    between atoms: O_15  and  C_16
REMARK    9  A    between atoms: C_28  and  C_29
REMARK   10  A    between atoms: C_29  and  O_30
REMARK   11  A    between atoms: C_29  and  C_31
REMARK   12  A    between atoms: C_31  and  O_32
REMARK   13  A    between atoms: C_31  and  C_33
REMARK   14  A    between atoms: C_33  and  O_34
REMARK                            x       y       z     vdW  Elec       q    Type
REMARK                         _______ _______ _______ _____ _____    ______ ____
ROOT
ATOM      1  C   UNL     1       5.991   4.456  18.469  0.00  0.00    +0.000 C 
ATOM      2  C   UNL     1       5.528   4.351  17.012  0.00  0.00    +0.000 C 
ATOM      3  C   UNL     1       4.290   5.205  16.711  0.00  0.00    +0.000 C 
ATOM      4  C   UNL     1       3.266   5.476  17.843  0.00  0.00    +0.000 C 
ATOM      5  O   UNL     1       3.906   5.396  19.144  0.00  0.00    +0.000 OA
ATOM      6  C   UNL     1       4.782   4.291  19.395  0.00  0.00    +0.000 C 
ENDROOT
BRANCH   1  10
ATOM      7  C   UNL     1       7.933   7.731  18.175  0.00  0.00    +0.000 C 
ATOM      8  C   UNL     1       7.497   6.344  17.795  0.00  0.00    +0.000 C 
ATOM      9  O   UNL     1       7.851   5.798  16.762  0.00  0.00    +0.000 OA
ATOM     10  N   UNL     1       6.661   5.747  18.708  0.00  0.00    +0.000 N 
ATOM     11  H   UNL     1       6.248   6.349  19.411  0.00  0.00    +0.000 HD
ENDBRANCH   1  10
BRANCH   4  12
ATOM     12  C   UNL     1       1.851   4.730  17.975  0.00  0.00    +0.000 C 
ATOM     13  O   UNL     1       1.403   4.060  17.007  0.00  0.00    +0.000 OA
ATOM     14  O   UNL     1       1.252   4.836  19.109  0.00  0.00    +0.000 OA
ENDBRANCH   4  12
BRANCH   2  15
ATOM     15  O   UNL     1       5.282   2.987  16.658  0.00  0.00    +0.000 OA
ATOM     16  H   UNL     1       5.955   2.442  17.117  0.00  0.00    +0.000 HD
ENDBRANCH   2  15
BRANCH   4  17
ATOM     17  O   UNL     1       2.855   6.842  17.461  0.00  0.00    +0.000 OA
BRANCH  17  18
ATOM     18  C   UNL     1       2.257   7.659  18.360  0.00  0.00    +0.000 A 
ATOM     19  C   UNL     1       2.269   7.440  19.731  0.00  0.00    +0.000 A 
ATOM     20  C   UNL     1       1.615   8.299  20.590  0.00  0.00    +0.000 A 
ATOM     21  C   UNL     1       1.007   9.432  20.080  0.00  0.00    +0.000 A 
ATOM     22  C   UNL     1       1.036   9.705  18.711  0.00  0.00    +0.000 A 
ATOM     23  C   UNL     1       1.685   8.822  17.850  0.00  0.00    +0.000 A 
BRANCH  21  24
ATOM     24  O   UNL     1       0.333  10.171  21.006  0.00  0.00    +0.000 OA
BRANCH  24  25
ATOM     25  C   UNL     1      -0.143  11.413  20.678  0.00  0.00    +0.000 A 
ATOM     26  C   UNL     1       0.800  12.427  20.797  0.00  0.00    +0.000 A 
ATOM     27  C   UNL     1       0.439  13.742  20.520  0.00  0.00    +0.000 A 
ATOM     28  C   UNL     1      -0.861  14.037  20.127  0.00  0.00    +0.000 A 
ATOM     29  C   UNL     1      -1.804  13.011  19.964  0.00  0.00    +0.000 A 
ATOM     30  C   UNL     1      -1.435  11.692  20.221  0.00  0.00    +0.000 A 
ENDBRANCH  24  25
ENDBRANCH  21  24
ENDBRANCH  17  18
ENDBRANCH   4  17
BRANCH   6  31
ATOM     31  C   UNL     1       4.038   2.920  19.471  0.00  0.00    +0.000 C 
BRANCH  31  32
ATOM     32  O   UNL     1       4.882   1.767  19.432  0.00  0.00    +0.000 OA
ATOM     33  H   UNL     1       5.155   1.610  18.499  0.00  0.00    +0.000 HD
ENDBRANCH  31  32
BRANCH  31  34
ATOM     34  C   UNL     1       3.077   2.774  20.668  0.00  0.00    +0.000 C 
BRANCH  34  35
ATOM     35  O   UNL     1       3.729   2.113  21.759  0.00  0.00    +0.000 OA
ATOM     36  H   UNL     1       3.778   1.165  21.539  0.00  0.00    +0.000 HD
ENDBRANCH  34  35
BRANCH  34  37
ATOM     37  C   UNL     1       1.828   1.961  20.279  0.00  0.00    +0.000 C 
BRANCH  37  38
ATOM     38  O   UNL     1       1.782   1.716  18.872  0.00  0.00    +0.000 OA
ATOM     39  H   UNL     1       2.422   2.330  18.471  0.00  0.00    +0.000 HD
ENDBRANCH  37  38
ENDBRANCH  34  37
ENDBRANCH  31  34
ENDBRANCH   6  31
TORSDOF 13
ENDMDL
MODEL 6
REMARK VINA RESULT:      -7.0      2.323      4.524
REMARK  Name = 
REMARK  14 active torsions:
REMARK  status: ('A' for Active; 'I' for Inactive)
REMARK    1  A    between atoms: C_1  and  C_2
REMARK    2  A    between atoms: N_4  and  C_5
REMARK    3  A    between atoms: C_6  and  O_7
REMARK    4  A    between atoms: C_9  and  O_10
REMARK    5  A    between atoms: C_9  and  C_24
REMARK    6  A    between atoms: O_10  and  C_11
REMARK    7  A    between atoms: C_14  and  O_15
REMARK    8  A    between atoms: O_15  and  C_16
REMARK    9  A    between atoms: C_28  and  C_29
REMARK   10  A    between atoms: C_29  and  O_30
REMARK   11  A    between atoms: C_29  and  C_31
REMARK   12  A    between atoms: C_31  and  O_32
REMARK   13  A    between atoms: C_31  and  C_33
REMARK   14  A    between atoms: C_33  and  O_34
REMARK                            x       y       z     vdW  Elec       q    Type
REMARK                         _______ _______ _______ _____ _____    ______ ____
ROOT
ATOM      1  C   UNL     1       5.011   3.509  18.660  0.00  0.00    +0.000 C 
ATOM      2  C   UNL     1       4.980   4.739  19.572  0.00  0.00    +0.000 C 
ATOM      3  C   UNL     1       4.211   5.919  18.965  0.00  0.00    +0.000 C 
ATOM      4  C   UNL     1       4.171   6.083  17.424  0.00  0.00    +0.000 C 
ATOM      5  O   UNL     1       4.350   4.801  16.768  0.00  0.00    +0.000 OA
ATOM      6  C   UNL     1       5.394   3.943  17.241  0.00  0.00    +0.000 C 
ENDROOT
BRANCH   1  10
ATOM      7  C   UNL     1       1.670   1.910  19.592  0.00  0.00    +0.000 C 
ATOM      8  C   UNL     1       3.064   2.428  19.812  0.00  0.00    +0.000 C 
ATOM      9  O   UNL     1       3.579   2.493  20.917  0.00  0.00    +0.000 OA
ATOM     10  N   UNL     1       3.703   2.827  18.663  0.00  0.00    +0.000 N 
ATOM     11  H   UNL     1       3.127   2.947  17.838  0.00  0.00    +0.000 HD
ENDBRANCH   1  10
BRANCH   4  12
ATOM     12  C   UNL     1       5.051   7.149  16.609  0.00  0.00    +0.000 C 
ATOM     13  O   UNL     1       4.940   7.226  15.357  0.00  0.00    +0.000 OA
ATOM     14  O   UNL     1       5.818   7.910  17.307  0.00  0.00    +0.000 OA
ENDBRANCH   4  12
BRANCH   2  15
ATOM     15  O   UNL     1       6.307   5.144  19.918  0.00  0.00    +0.000 OA
ATOM     16  H   UNL     1       6.786   4.343  20.219  0.00  0.00    +0.000 HD
ENDBRANCH   2  15
BRANCH   4  17
ATOM     17  O   UNL     1       2.811   6.642  17.286  0.00  0.00    +0.000 OA
BRANCH  17  18
ATOM     18  C   UNL     1       2.325   7.507  18.207  0.00  0.00    +0.000 A 
ATOM     19  C   UNL     1       2.149   7.191  19.547  0.00  0.00    +0.000 A 
ATOM     20  C   UNL     1       1.622   8.112  20.429  0.00  0.00    +0.000 A 
ATOM     21  C   UNL     1       1.340   9.390  19.982  0.00  0.00    +0.000 A 
ATOM     22  C   UNL     1       1.568   9.750  18.652  0.00  0.00    +0.000 A 
ATOM     23  C   UNL     1       2.084   8.806  17.765  0.00  0.00    +0.000 A 
BRANCH  21  24
ATOM     24  O   UNL     1       0.761  10.196  20.916  0.00  0.00    +0.000 OA
BRANCH  24  25
ATOM     25  C   UNL     1       0.103  11.332  20.528  0.00  0.00    +0.000 A 
ATOM     26  C   UNL     1       0.836  12.498  20.712  0.00  0.00    +0.000 A 
ATOM     27  C   UNL     1       0.273  13.728  20.383  0.00  0.00    +0.000 A 
ATOM     28  C   UNL     1      -1.019  13.786  19.876  0.00  0.00    +0.000 A 
ATOM     29  C   UNL     1      -1.747  12.609  19.649  0.00  0.00    +0.000 A 
ATOM     30  C   UNL     1      -1.174  11.377  19.958  0.00  0.00    +0.000 A 
ENDBRANCH  24  25
ENDBRANCH  21  24
ENDBRANCH  17  18
ENDBRANCH   4  17
BRANCH   6  31
ATOM     31  C   UNL     1       6.826   4.497  16.955  0.00  0.00    +0.000 C 
BRANCH  31  32
ATOM     32  O   UNL     1       7.860   3.968  17.786  0.00  0.00    +0.000 OA
ATOM     33  H   UNL     1       8.336   3.265  17.287  0.00  0.00    +0.000 HD
ENDBRANCH  31  32
BRANCH  31  34
ATOM     34  C   UNL     1       7.280   4.382  15.486  0.00  0.00    +0.000 C 
BRANCH  34  35
ATOM     35  O   UNL     1       7.549   5.679  14.941  0.00  0.00    +0.000 OA
ATOM     36  H   UNL     1       7.467   6.324  15.667  0.00  0.00    +0.000 HD
ENDBRANCH  34  35
BRANCH  34  37
ATOM     37  C   UNL     1       6.200   3.703  14.625  0.00  0.00    +0.000 C 
BRANCH  37  38
ATOM     38  O   UNL     1       5.372   4.665  13.969  0.00  0.00    +0.000 OA
ATOM     39  H   UNL     1       4.472   4.522  14.312  0.00  0.00    +0.000 HD
ENDBRANCH  37  38
ENDBRANCH  34  37
ENDBRANCH  31  34
ENDBRANCH   6  31
TORSDOF 13
ENDMDL
MODEL 7
REMARK VINA RESULT:      -7.0      4.158      9.720
REMARK  Name = 
REMARK  14 active torsions:
REMARK  status: ('A' for Active; 'I' for Inactive)
REMARK    1  A    between atoms: C_1  and  C_2
REMARK    2  A    between atoms: N_4  and  C_5
REMARK    3  A    between atoms: C_6  and  O_7
REMARK    4  A    between atoms: C_9  and  O_10
REMARK    5  A    between atoms: C_9  and  C_24
REMARK    6  A    between atoms: O_10  and  C_11
REMARK    7  A    between atoms: C_14  and  O_15
REMARK    8  A    between atoms: O_15  and  C_16
REMARK    9  A    between atoms: C_28  and  C_29
REMARK   10  A    between atoms: C_29  and  O_30
REMARK   11  A    between atoms: C_29  and  C_31
REMARK   12  A    between atoms: C_31  and  O_32
REMARK   13  A    between atoms: C_31  and  C_33
REMARK   14  A    between atoms: C_33  and  O_34
REMARK                            x       y       z     vdW  Elec       q    Type
REMARK                         _______ _______ _______ _____ _____    ______ ____
ROOT
ATOM      1  C   UNL     1       1.585  15.093  19.941  0.00  0.00    +0.000 C 
ATOM      2  C   UNL     1       2.159  13.867  20.658  0.00  0.00    +0.000 C 
ATOM      3  C   UNL     1       1.547  12.546  20.175  0.00  0.00    +0.000 C 
ATOM      4  C   UNL     1       0.090  12.536  19.647  0.00  0.00    +0.000 C 
ATOM      5  O   UNL     1      -0.278  13.843  19.132  0.00  0.00    +0.000 OA
ATOM      6  C   UNL     1       0.056  14.993  19.917  0.00  0.00    +0.000 C 
ENDROOT
BRANCH   1  10
ATOM      7  C   UNL     1       3.335  16.159  16.718  0.00  0.00    +0.000 C 
ATOM      8  C   UNL     1       2.703  16.334  18.070  0.00  0.00    +0.000 C 
ATOM      9  O   UNL     1       2.709  17.395  18.673  0.00  0.00    +0.000 OA
ATOM     10  N   UNL     1       2.125  15.192  18.572  0.00  0.00    +0.000 N 
ATOM     11  H   UNL     1       2.361  14.320  18.114  0.00  0.00    +0.000 HD
ENDBRANCH   1  10
BRANCH   4  12
ATOM     12  C   UNL     1      -1.168  11.997  20.486  0.00  0.00    +0.000 C 
ATOM     13  O   UNL     1      -1.045  11.764  21.717  0.00  0.00    +0.000 OA
ATOM     14  O   UNL     1      -2.271  11.862  19.839  0.00  0.00    +0.000 OA
ENDBRANCH   4  12
BRANCH   2  15
ATOM     15  O   UNL     1       2.002  13.991  22.074  0.00  0.00    +0.000 OA
ATOM     16  H   UNL     1       2.051  13.088  22.452  0.00  0.00    +0.000 HD
ENDBRANCH   2  15
BRANCH   4  17
ATOM     17  O   UNL     1       0.228  11.499  18.605  0.00  0.00    +0.000 OA
BRANCH  17  18
ATOM     18  C   UNL     1       0.843  10.324  18.880  0.00  0.00    +0.000 A 
ATOM     19  C   UNL     1       0.661   9.613  20.057  0.00  0.00    +0.000 A 
ATOM     20  C   UNL     1       1.342   8.435  20.286  0.00  0.00    +0.000 A 
ATOM     21  C   UNL     1       2.154   7.921  19.291  0.00  0.00    +0.000 A 
ATOM     22  C   UNL     1       2.303   8.587  18.073  0.00  0.00    +0.000 A 
ATOM     23  C   UNL     1       1.625   9.786  17.860  0.00  0.00    +0.000 A 
BRANCH  21  24
ATOM     24  O   UNL     1       2.830   6.792  19.647  0.00  0.00    +0.000 OA
BRANCH  24  25
ATOM     25  C   UNL     1       2.207   5.573  19.589  0.00  0.00    +0.000 A 
ATOM     26  C   UNL     1       2.118   5.047  18.306  0.00  0.00    +0.000 A 
ATOM     27  C   UNL     1       1.483   3.825  18.103  0.00  0.00    +0.000 A 
ATOM     28  C   UNL     1       0.939   3.138  19.182  0.00  0.00    +0.000 A 
ATOM     29  C   UNL     1       1.064   3.644  20.484  0.00  0.00    +0.000 A 
ATOM     30  C   UNL     1       1.720   4.858  20.688  0.00  0.00    +0.000 A 
ENDBRANCH  24  25
ENDBRANCH  21  24
ENDBRANCH  17  18
ENDBRANCH   4  17
BRANCH   6  31
ATOM     31  C   UNL     1      -0.753  15.087  21.250  0.00  0.00    +0.000 C 
BRANCH  31  32
ATOM     32  O   UNL     1      -0.150  15.882  22.272  0.00  0.00    +0.000 OA
ATOM     33  H   UNL     1      -0.183  15.381  23.120  0.00  0.00    +0.000 HD
ENDBRANCH  31  32
BRANCH  31  34
ATOM     34  C   UNL     1      -2.217  15.541  21.084  0.00  0.00    +0.000 C 
BRANCH  34  35
ATOM     35  O   UNL     1      -2.887  14.731  20.111  0.00  0.00    +0.000 OA
ATOM     36  H   UNL     1      -2.328  13.950  19.946  0.00  0.00    +0.000 HD
ENDBRANCH  34  35
BRANCH  34  37
ATOM     37  C   UNL     1      -2.293  17.011  20.635  0.00  0.00    +0.000 C 
BRANCH  37  38
ATOM     38  O   UNL     1      -2.992  17.144  19.397  0.00  0.00    +0.000 OA
ATOM     39  H   UNL     1      -3.147  18.098  19.277  0.00  0.00    +0.000 HD
ENDBRANCH  37  38
ENDBRANCH  34  37
ENDBRANCH  31  34
ENDBRANCH   6  31
TORSDOF 13
ENDMDL
MODEL 8
REMARK VINA RESULT:      -6.9      1.574      2.030
REMARK  Name = 
REMARK  14 active torsions:
REMARK  status: ('A' for Active; 'I' for Inactive)
REMARK    1  A    between atoms: C_1  and  C_2
REMARK    2  A    between atoms: N_4  and  C_5
REMARK    3  A    between atoms: C_6  and  O_7
REMARK    4  A    between atoms: C_9  and  O_10
REMARK    5  A    between atoms: C_9  and  C_24
REMARK    6  A    between atoms: O_10  and  C_11
REMARK    7  A    between atoms: C_14  and  O_15
REMARK    8  A    between atoms: O_15  and  C_16
REMARK    9  A    between atoms: C_28  and  C_29
REMARK   10  A    between atoms: C_29  and  O_30
REMARK   11  A    between atoms: C_29  and  C_31
REMARK   12  A    between atoms: C_31  and  O_32
REMARK   13  A    between atoms: C_31  and  C_33
REMARK   14  A    between atoms: C_33  and  O_34
REMARK                            x       y       z     vdW  Elec       q    Type
REMARK                         _______ _______ _______ _____ _____    ______ ____
ROOT
ATOM      1  C   UNL     1       4.301   3.527  17.511  0.00  0.00    +0.000 C 
ATOM      2  C   UNL     1       3.075   4.309  17.030  0.00  0.00    +0.000 C 
ATOM      3  C   UNL     1       2.717   5.489  17.942  0.00  0.00    +0.000 C 
ATOM      4  C   UNL     1       3.051   5.404  19.453  0.00  0.00    +0.000 C 
ATOM      5  O   UNL     1       4.167   4.504  19.682  0.00  0.00    +0.000 OA
ATOM      6  C   UNL     1       4.159   3.239  19.009  0.00  0.00    +0.000 C 
ENDROOT
BRANCH   1  10
ATOM      7  C   UNL     1       7.337   5.210  15.920  0.00  0.00    +0.000 C 
ATOM      8  C   UNL     1       6.201   4.233  16.035  0.00  0.00    +0.000 C 
ATOM      9  O   UNL     1       5.891   3.469  15.136  0.00  0.00    +0.000 OA
ATOM     10  N   UNL     1       5.538   4.282  17.238  0.00  0.00    +0.000 N 
ATOM     11  H   UNL     1       5.716   5.088  17.826  0.00  0.00    +0.000 HD
ENDBRANCH   1  10
BRANCH   4  12
ATOM     12  C   UNL     1       1.968   5.102  20.599  0.00  0.00    +0.000 C 
ATOM     13  O   UNL     1       0.787   4.803  20.280  0.00  0.00    +0.000 OA
ATOM     14  O   UNL     1       2.391   5.153  21.813  0.00  0.00    +0.000 OA
ENDBRANCH   4  12
BRANCH   2  15
ATOM     15  O   UNL     1       1.947   3.441  16.886  0.00  0.00    +0.000 OA
ATOM     16  H   UNL     1       1.375   3.575  17.670  0.00  0.00    +0.000 HD
ENDBRANCH   2  15
BRANCH   4  17
ATOM     17  O   UNL     1       3.368   6.825  19.701  0.00  0.00    +0.000 OA
BRANCH  17  18
ATOM     18  C   UNL     1       2.525   7.801  19.288  0.00  0.00    +0.000 A 
ATOM     19  C   UNL     1       2.496   8.301  17.993  0.00  0.00    +0.000 A 
ATOM     20  C   UNL     1       1.630   9.317  17.646  0.00  0.00    +0.000 A 
ATOM     21  C   UNL     1       0.727   9.784  18.583  0.00  0.00    +0.000 A 
ATOM     22  C   UNL     1       0.695   9.252  19.874  0.00  0.00    +0.000 A 
ATOM     23  C   UNL     1       1.587   8.238  20.220  0.00  0.00    +0.000 A 
BRANCH  21  24
ATOM     24  O   UNL     1      -0.033  10.832  18.155  0.00  0.00    +0.000 OA
BRANCH  24  25
ATOM     25  C   UNL     1      -1.378  10.667  17.954  0.00  0.00    +0.000 A 
ATOM     26  C   UNL     1      -2.170  11.517  18.716  0.00  0.00    +0.000 A 
ATOM     27  C   UNL     1      -3.557  11.433  18.627  0.00  0.00    +0.000 A 
ATOM     28  C   UNL     1      -4.143  10.502  17.779  0.00  0.00    +0.000 A 
ATOM     29  C   UNL     1      -3.347   9.672  16.976  0.00  0.00    +0.000 A 
ATOM     30  C   UNL     1      -1.959   9.771  17.050  0.00  0.00    +0.000 A 
ENDBRANCH  24  25
ENDBRANCH  21  24
ENDBRANCH  17  18
ENDBRANCH   4  17
BRANCH   6  31
ATOM     31  C   UNL     1       3.039   2.277  19.517  0.00  0.00    +0.000 C 
BRANCH  31  32
ATOM     32  O   UNL     1       2.674   1.236  18.608  0.00  0.00    +0.000 OA
ATOM     33  H   UNL     1       1.720   1.334  18.385  0.00  0.00    +0.000 HD
ENDBRANCH  31  32
BRANCH  31  34
ATOM     34  C   UNL     1       3.310   1.642  20.895  0.00  0.00    +0.000 C 
BRANCH  34  35
ATOM     35  O   UNL     1       2.797   2.476  21.942  0.00  0.00    +0.000 OA
ATOM     36  H   UNL     1       1.856   2.640  21.749  0.00  0.00    +0.000 HD
ENDBRANCH  34  35
BRANCH  34  37
ATOM     37  C   UNL     1       4.818   1.440  21.124  0.00  0.00    +0.000 C 
BRANCH  37  38
ATOM     38  O   UNL     1       5.393   0.607  20.115  0.00  0.00    +0.000 OA
ATOM     39  H   UNL     1       5.810   1.211  19.475  0.00  0.00    +0.000 HD
ENDBRANCH  37  38
ENDBRANCH  34  37
ENDBRANCH  31  34
ENDBRANCH   6  31
TORSDOF 13
ENDMDL
MODEL 9
REMARK VINA RESULT:      -6.9      2.588      4.646
REMARK  Name = 
REMARK  14 active torsions:
REMARK  status: ('A' for Active; 'I' for Inactive)
REMARK    1  A    between atoms: C_1  and  C_2
REMARK    2  A    between atoms: N_4  and  C_5
REMARK    3  A    between atoms: C_6  and  O_7
REMARK    4  A    between atoms: C_9  and  O_10
REMARK    5  A    between atoms: C_9  and  C_24
REMARK    6  A    between atoms: O_10  and  C_11
REMARK    7  A    between atoms: C_14  and  O_15
REMARK    8  A    between atoms: O_15  and  C_16
REMARK    9  A    between atoms: C_28  and  C_29
REMARK   10  A    between atoms: C_29  and  O_30
REMARK   11  A    between atoms: C_29  and  C_31
REMARK   12  A    between atoms: C_31  and  O_32
REMARK   13  A    between atoms: C_31  and  C_33
REMARK   14  A    between atoms: C_33  and  O_34
REMARK                            x       y       z     vdW  Elec       q    Type
REMARK                         _______ _______ _______ _____ _____    ______ ____
ROOT
ATOM      1  C   UNL     1       5.204   3.701  18.769  0.00  0.00    +0.000 C 
ATOM      2  C   UNL     1       5.309   4.992  19.587  0.00  0.00    +0.000 C 
ATOM      3  C   UNL     1       4.555   6.168  18.954  0.00  0.00    +0.000 C 
ATOM      4  C   UNL     1       4.400   6.225  17.413  0.00  0.00    +0.000 C 
ATOM      5  O   UNL     1       4.461   4.892  16.842  0.00  0.00    +0.000 OA
ATOM      6  C   UNL     1       5.495   4.012  17.297  0.00  0.00    +0.000 C 
ENDROOT
BRANCH   1  10
ATOM      7  C   UNL     1       1.979   2.130  20.077  0.00  0.00    +0.000 C 
ATOM      8  C   UNL     1       3.427   2.529  20.095  0.00  0.00    +0.000 C 
ATOM      9  O   UNL     1       4.147   2.369  21.068  0.00  0.00    +0.000 OA
ATOM     10  N   UNL     1       3.868   3.097  18.923  0.00  0.00    +0.000 N 
ATOM     11  H   UNL     1       3.158   3.392  18.263  0.00  0.00    +0.000 HD
ENDBRANCH   1  10
BRANCH   4  12
ATOM     12  C   UNL     1       5.265   7.180  16.456  0.00  0.00    +0.000 C 
ATOM     13  O   UNL     1       5.049   7.184  15.215  0.00  0.00    +0.000 OA
ATOM     14  O   UNL     1       6.134   7.933  17.033  0.00  0.00    +0.000 OA
ENDBRANCH   4  12
BRANCH   2  15
ATOM     15  O   UNL     1       6.679   5.345  19.800  0.00  0.00    +0.000 OA
ATOM     16  H   UNL     1       6.828   6.209  19.362  0.00  0.00    +0.000 HD
ENDBRANCH   2  15
BRANCH   4  17
ATOM     17  O   UNL     1       3.064   6.849  17.337  0.00  0.00    +0.000 OA
BRANCH  17  18
ATOM     18  C   UNL     1       2.448   7.295  18.457  0.00  0.00    +0.000 A 
ATOM     19  C   UNL     1       2.149   6.491  19.548  0.00  0.00    +0.000 A 
ATOM     20  C   UNL     1       1.493   7.005  20.648  0.00  0.00    +0.000 A 
ATOM     21  C   UNL     1       1.203   8.357  20.691  0.00  0.00    +0.000 A 
ATOM     22  C   UNL     1       1.551   9.198  19.631  0.00  0.00    +0.000 A 
ATOM     23  C   UNL     1       2.197   8.664  18.517  0.00  0.00    +0.000 A 
BRANCH  21  24
ATOM     24  O   UNL     1       0.496   8.744  21.790  0.00  0.00    +0.000 OA
BRANCH  24  25
ATOM     25  C   UNL     1      -0.253   9.890  21.754  0.00  0.00    +0.000 A 
ATOM     26  C   UNL     1      -0.708  10.304  23.000  0.00  0.00    +0.000 A 
ATOM     27  C   UNL     1      -1.505  11.441  23.102  0.00  0.00    +0.000 A 
ATOM     28  C   UNL     1      -1.844  12.156  21.960  0.00  0.00    +0.000 A 
ATOM     29  C   UNL     1      -1.351  11.767  20.706  0.00  0.00    +0.000 A 
ATOM     30  C   UNL     1      -0.536  10.640  20.608  0.00  0.00    +0.000 A 
ENDBRANCH  24  25
ENDBRANCH  21  24
ENDBRANCH  17  18
ENDBRANCH   4  17
BRANCH   6  31
ATOM     31  C   UNL     1       6.925   4.463  16.862  0.00  0.00    +0.000 C 
BRANCH  31  32
ATOM     32  O   UNL     1       7.996   3.915  17.633  0.00  0.00    +0.000 OA
ATOM     33  H   UNL     1       8.849   4.239  17.261  0.00  0.00    +0.000 HD
ENDBRANCH  31  32
BRANCH  31  34
ATOM     34  C   UNL     1       7.243   4.246  15.370  0.00  0.00    +0.000 C 
BRANCH  34  35
ATOM     35  O   UNL     1       7.549   5.493  14.735  0.00  0.00    +0.000 OA
ATOM     36  H   UNL     1       8.237   5.931  15.268  0.00  0.00    +0.000 HD
ENDBRANCH  34  35
BRANCH  34  37
ATOM     37  C   UNL     1       6.052   3.602  14.638  0.00  0.00    +0.000 C 
BRANCH  37  38
ATOM     38  O   UNL     1       5.264   4.582  13.958  0.00  0.00    +0.000 OA
ATOM     39  H   UNL     1       5.429   4.447  13.008  0.00  0.00    +0.000 HD
ENDBRANCH  37  38
ENDBRANCH  34  37
ENDBRANCH  31  34
ENDBRANCH   6  31
TORSDOF 13
ENDMDL
