MODEL 1
REMARK VINA RESULT:      -5.9      0.000      0.000
REMARK  Name = 
REMARK  7 active torsions:
REMARK  status: ('A' for Active; 'I' for Inactive)
REMARK    1  A    between atoms: C_1  and  C_2
REMARK    2  A    between atoms: C_2  and  C_3
REMARK    3  A    between atoms: C_3  and  N_4
REMARK    4  A    between atoms: C_3  and  C_16
REMARK    5  A    between atoms: C_12  and  C_13
REMARK    6  A    between atoms: C_17  and  C_18
REMARK    7  A    between atoms: C_21  and  C_22
REMARK                            x       y       z     vdW  Elec       q    Type
REMARK                         _______ _______ _______ _____ _____    ______ ____
ROOT
ATOM      1  N   UNL     1       3.817   7.059  18.226  0.00  0.00    +0.000 N 
ATOM      2  C   UNL     1       2.892   8.033  18.053  0.00  0.00    +0.000 C 
ATOM      3  O   UNL     1       2.863   8.765  17.032  0.00  0.00    +0.000 OA
ATOM      4  N   UNL     1       2.039   8.204  19.140  0.00  0.00    +0.000 N 
ATOM      5  C   UNL     1       1.110   9.339  19.009  0.00  0.00    +0.000 C 
ATOM      6  C   UNL     1       0.679   9.858  20.376  0.00  0.00    +0.000 C 
ATOM      7  O   UNL     1       0.050   8.813  21.130  0.00  0.00    +0.000 OA
ATOM      8  C   UNL     1       0.934   7.702  21.284  0.00  0.00    +0.000 C 
ATOM      9  C   UNL     1       1.386   7.106  19.933  0.00  0.00    +0.000 C 
ATOM     10  H   UNL     1       3.552   6.385  18.897  0.00  0.00    +0.000 HD
ENDROOT
BRANCH   9  11
ATOM     11  C   UNL     1       2.193   5.860  20.248  0.00  0.00    +0.000 C 
ATOM     12  C   UNL     1       1.613   4.649  20.932  0.00  0.00    +0.000 C 
ATOM     13  C   UNL     1       1.952   4.592  19.467  0.00  0.00    +0.000 C 
ENDBRANCH   9  11
BRANCH   1  14
ATOM     14  C   UNL     1       4.839   6.610  17.298  0.00  0.00    +0.000 C 
BRANCH  14  15
ATOM     15  C   UNL     1       6.109   6.207  18.055  0.00  0.00    +0.000 A 
ATOM     16  C   UNL     1       6.390   5.087  18.911  0.00  0.00    +0.000 A 
ATOM     17  C   UNL     1       5.554   3.943  19.340  0.00  0.00    +0.000 C 
ATOM     18  N   UNL     1       7.649   5.109  19.364  0.00  0.00    +0.000 NA
ATOM     19  O   UNL     1       8.220   6.240  18.854  0.00  0.00    +0.000 OA
ATOM     20  C   UNL     1       7.322   6.902  18.089  0.00  0.00    +0.000 A 
ATOM     21  C   UNL     1       7.860   8.145  17.487  0.00  0.00    +0.000 C 
ENDBRANCH  14  15
BRANCH  14  23
ATOM     22  C   UNL     1       5.315   4.811  15.477  0.00  0.00    +0.000 C 
ATOM     23  C   UNL     1       4.347   5.409  16.463  0.00  0.00    +0.000 C 
ENDBRANCH  14  23
ENDBRANCH   1  14
TORSDOF 4
ENDMDL
MODEL 2
REMARK VINA RESULT:      -5.9      2.542      6.290
REMARK  Name = 
REMARK  7 active torsions:
REMARK  status: ('A' for Active; 'I' for Inactive)
REMARK    1  A    between atoms: C_1  and  C_2
REMARK    2  A    between atoms: C_2  and  C_3
REMARK    3  A    between atoms: C_3  and  N_4
REMARK    4  A    between atoms: C_3  and  C_16
REMARK    5  A    between atoms: C_12  and  C_13
REMARK    6  A    between atoms: C_17  and  C_18
REMARK    7  A    between atoms: C_21  and  C_22
REMARK                            x       y       z     vdW  Elec       q    Type
REMARK                         _______ _______ _______ _____ _____    ______ ____
ROOT
ATOM      1  N   UNL     1       4.956   4.330  18.674  0.00  0.00    +0.000 N 
ATOM      2  C   UNL     1       6.087   4.915  19.137  0.00  0.00    +0.000 C 
ATOM      3  O   UNL     1       6.520   4.723  20.300  0.00  0.00    +0.000 OA
ATOM      4  N   UNL     1       6.670   5.808  18.242  0.00  0.00    +0.000 N 
ATOM      5  C   UNL     1       7.829   6.538  18.783  0.00  0.00    +0.000 C 
ATOM      6  C   UNL     1       8.022   7.871  18.068  0.00  0.00    +0.000 C 
ATOM      7  O   UNL     1       8.207   7.660  16.662  0.00  0.00    +0.000 OA
ATOM      8  C   UNL     1       7.089   6.964  16.107  0.00  0.00    +0.000 C 
ATOM      9  C   UNL     1       6.855   5.588  16.767  0.00  0.00    +0.000 C 
ATOM     10  H   UNL     1       4.898   4.322  17.688  0.00  0.00    +0.000 HD
ENDROOT
BRANCH   9  11
ATOM     11  C   UNL     1       5.743   4.909  15.989  0.00  0.00    +0.000 C 
ATOM     12  C   UNL     1       5.771   4.724  14.494  0.00  0.00    +0.000 C 
ATOM     13  C   UNL     1       5.966   3.539  15.400  0.00  0.00    +0.000 C 
ENDBRANCH   9  11
BRANCH   1  14
ATOM     14  C   UNL     1       4.114   3.348  19.332  0.00  0.00    +0.000 C 
BRANCH  14  15
ATOM     15  C   UNL     1       2.868   4.020  19.920  0.00  0.00    +0.000 A 
ATOM     16  C   UNL     1       2.253   5.289  19.644  0.00  0.00    +0.000 A 
ATOM     17  C   UNL     1       2.607   6.368  18.695  0.00  0.00    +0.000 C 
ATOM     18  N   UNL     1       1.156   5.483  20.384  0.00  0.00    +0.000 NA
ATOM     19  O   UNL     1       1.030   4.380  21.181  0.00  0.00    +0.000 OA
ATOM     20  C   UNL     1       2.038   3.514  20.924  0.00  0.00    +0.000 A 
ATOM     21  C   UNL     1       1.978   2.278  21.743  0.00  0.00    +0.000 C 
ENDBRANCH  14  15
BRANCH  14  23
ATOM     22  C   UNL     1       2.501   2.541  17.454  0.00  0.00    +0.000 C 
ATOM     23  C   UNL     1       3.674   2.242  18.349  0.00  0.00    +0.000 C 
ENDBRANCH  14  23
ENDBRANCH   1  14
TORSDOF 4
ENDMDL
MODEL 3
REMARK VINA RESULT:      -5.9      0.420      1.736
REMARK  Name = 
REMARK  7 active torsions:
REMARK  status: ('A' for Active; 'I' for Inactive)
REMARK    1  A    between atoms: C_1  and  C_2
REMARK    2  A    between atoms: C_2  and  C_3
REMARK    3  A    between atoms: C_3  and  N_4
REMARK    4  A    between atoms: C_3  and  C_16
REMARK    5  A    between atoms: C_12  and  C_13
REMARK    6  A    between atoms: C_17  and  C_18
REMARK    7  A    between atoms: C_21  and  C_22
REMARK                            x       y       z     vdW  Elec       q    Type
REMARK                         _______ _______ _______ _____ _____    ______ ____
ROOT
ATOM      1  N   UNL     1       3.778   7.015  18.241  0.00  0.00    +0.000 N 
ATOM      2  C   UNL     1       2.864   8.001  18.075  0.00  0.00    +0.000 C 
ATOM      3  O   UNL     1       2.844   8.742  17.060  0.00  0.00    +0.000 OA
ATOM      4  N   UNL     1       2.012   8.173  19.163  0.00  0.00    +0.000 N 
ATOM      5  C   UNL     1       1.097   9.320  19.041  0.00  0.00    +0.000 C 
ATOM      6  C   UNL     1       0.671   9.832  20.413  0.00  0.00    +0.000 C 
ATOM      7  O   UNL     1       0.029   8.789  21.157  0.00  0.00    +0.000 OA
ATOM      8  C   UNL     1       0.900   7.666  21.303  0.00  0.00    +0.000 C 
ATOM      9  C   UNL     1       1.347   7.077  19.947  0.00  0.00    +0.000 C 
ATOM     10  H   UNL     1       3.504   6.339  18.907  0.00  0.00    +0.000 HD
ENDROOT
BRANCH   9  11
ATOM     11  C   UNL     1       2.138   5.819  20.252  0.00  0.00    +0.000 C 
ATOM     12  C   UNL     1       1.545   4.610  20.930  0.00  0.00    +0.000 C 
ATOM     13  C   UNL     1       1.880   4.559  19.464  0.00  0.00    +0.000 C 
ENDBRANCH   9  11
BRANCH   1  14
ATOM     14  C   UNL     1       4.795   6.562  17.310  0.00  0.00    +0.000 C 
BRANCH  14  15
ATOM     15  C   UNL     1       6.071   6.169  18.062  0.00  0.00    +0.000 A 
ATOM     16  C   UNL     1       7.362   6.796  18.135  0.00  0.00    +0.000 A 
ATOM     17  C   UNL     1       7.891   8.033  17.519  0.00  0.00    +0.000 C 
ATOM     18  N   UNL     1       8.201   6.118  18.927  0.00  0.00    +0.000 NA
ATOM     19  O   UNL     1       7.512   5.026  19.371  0.00  0.00    +0.000 OA
ATOM     20  C   UNL     1       6.258   5.038  18.862  0.00  0.00    +0.000 A 
ATOM     21  C   UNL     1       5.431   3.886  19.297  0.00  0.00    +0.000 C 
ENDBRANCH  14  15
BRANCH  14  23
ATOM     22  C   UNL     1       5.243   4.787  15.460  0.00  0.00    +0.000 C 
ATOM     23  C   UNL     1       4.301   5.353  16.488  0.00  0.00    +0.000 C 
ENDBRANCH  14  23
ENDBRANCH   1  14
TORSDOF 4
ENDMDL
MODEL 4
REMARK VINA RESULT:      -5.8      2.582      6.085
REMARK  Name = 
REMARK  7 active torsions:
REMARK  status: ('A' for Active; 'I' for Inactive)
REMARK    1  A    between atoms: C_1  and  C_2
REMARK    2  A    between atoms: C_2  and  C_3
REMARK    3  A    between atoms: C_3  and  N_4
REMARK    4  A    between atoms: C_3  and  C_16
REMARK    5  A    between atoms: C_12  and  C_13
REMARK    6  A    between atoms: C_17  and  C_18
REMARK    7  A    between atoms: C_21  and  C_22
REMARK                            x       y       z     vdW  Elec       q    Type
REMARK                         _______ _______ _______ _____ _____    ______ ____
ROOT
ATOM      1  N   UNL     1       4.973   4.326  18.793  0.00  0.00    +0.000 N 
ATOM      2  C   UNL     1       6.121   4.908  19.217  0.00  0.00    +0.000 C 
ATOM      3  O   UNL     1       6.589   4.722  20.368  0.00  0.00    +0.000 OA
ATOM      4  N   UNL     1       6.680   5.792  18.298  0.00  0.00    +0.000 N 
ATOM      5  C   UNL     1       7.859   6.520  18.799  0.00  0.00    +0.000 C 
ATOM      6  C   UNL     1       8.036   7.847  18.069  0.00  0.00    +0.000 C 
ATOM      7  O   UNL     1       8.176   7.626  16.659  0.00  0.00    +0.000 OA
ATOM      8  C   UNL     1       7.039   6.932  16.144  0.00  0.00    +0.000 C 
ATOM      9  C   UNL     1       6.819   5.562  16.820  0.00  0.00    +0.000 C 
ATOM     10  H   UNL     1       4.885   4.311  17.809  0.00  0.00    +0.000 HD
ENDROOT
BRANCH   9  11
ATOM     11  C   UNL     1       5.680   4.883  16.081  0.00  0.00    +0.000 C 
ATOM     12  C   UNL     1       5.634   4.739  14.582  0.00  0.00    +0.000 C 
ATOM     13  C   UNL     1       5.897   3.534  15.443  0.00  0.00    +0.000 C 
ENDBRANCH   9  11
BRANCH   1  14
ATOM     14  C   UNL     1       4.147   3.352  19.483  0.00  0.00    +0.000 C 
BRANCH  14  15
ATOM     15  C   UNL     1       2.797   3.969  19.862  0.00  0.00    +0.000 A 
ATOM     16  C   UNL     1       1.789   3.550  20.797  0.00  0.00    +0.000 A 
ATOM     17  C   UNL     1       1.719   2.391  21.714  0.00  0.00    +0.000 C 
ATOM     18  N   UNL     1       0.754   4.398  20.827  0.00  0.00    +0.000 NA
ATOM     19  O   UNL     1       1.027   5.370  19.908  0.00  0.00    +0.000 OA
ATOM     20  C   UNL     1       2.224   5.126  19.325  0.00  0.00    +0.000 A 
ATOM     21  C   UNL     1       2.606   6.140  18.312  0.00  0.00    +0.000 C 
ENDBRANCH  14  15
BRANCH  14  23
ATOM     22  C   UNL     1       2.862   2.214  17.526  0.00  0.00    +0.000 C 
ATOM     23  C   UNL     1       3.904   2.105  18.607  0.00  0.00    +0.000 C 
ENDBRANCH  14  23
ENDBRANCH   1  14
TORSDOF 4
ENDMDL
MODEL 5
REMARK VINA RESULT:      -5.7      2.884      6.475
REMARK  Name = 
REMARK  7 active torsions:
REMARK  status: ('A' for Active; 'I' for Inactive)
REMARK    1  A    between atoms: C_1  and  C_2
REMARK    2  A    between atoms: C_2  and  C_3
REMARK    3  A    between atoms: C_3  and  N_4
REMARK    4  A    between atoms: C_3  and  C_16
REMARK    5  A    between atoms: C_12  and  C_13
REMARK    6  A    between atoms: C_17  and  C_18
REMARK    7  A    between atoms: C_21  and  C_22
REMARK                            x       y       z     vdW  Elec       q    Type
REMARK                         _______ _______ _______ _____ _____    ______ ____
ROOT
ATOM      1  N   UNL     1       4.403   3.289  17.989  0.00  0.00    +0.000 N 
ATOM      2  C   UNL     1       4.231   3.712  16.714  0.00  0.00    +0.000 C 
ATOM      3  O   UNL     1       3.126   3.638  16.120  0.00  0.00    +0.000 OA
ATOM      4  N   UNL     1       5.401   4.152  16.100  0.00  0.00    +0.000 N 
ATOM      5  C   UNL     1       5.245   4.499  14.678  0.00  0.00    +0.000 C 
ATOM      6  C   UNL     1       6.566   4.358  13.929  0.00  0.00    +0.000 C 
ATOM      7  O   UNL     1       7.564   5.202  14.518  0.00  0.00    +0.000 OA
ATOM      8  C   UNL     1       7.746   4.878  15.898  0.00  0.00    +0.000 C 
ATOM      9  C   UNL     1       6.450   5.030  16.723  0.00  0.00    +0.000 C 
ATOM     10  H   UNL     1       5.205   3.671  18.421  0.00  0.00    +0.000 HD
ENDROOT
BRANCH   9  11
ATOM     11  C   UNL     1       6.822   4.799  18.176  0.00  0.00    +0.000 C 
ATOM     12  C   UNL     1       7.803   5.661  18.927  0.00  0.00    +0.000 C 
ATOM     13  C   UNL     1       6.333   5.753  19.237  0.00  0.00    +0.000 C 
ENDBRANCH   9  11
BRANCH   1  14
ATOM     14  C   UNL     1       3.404   2.789  18.917  0.00  0.00    +0.000 C 
BRANCH  14  15
ATOM     15  C   UNL     1       2.787   3.944  19.712  0.00  0.00    +0.000 A 
ATOM     16  C   UNL     1       2.587   5.327  19.379  0.00  0.00    +0.000 A 
ATOM     17  C   UNL     1       2.899   6.099  18.155  0.00  0.00    +0.000 C 
ATOM     18  N   UNL     1       1.991   5.998  20.371  0.00  0.00    +0.000 NA
ATOM     19  O   UNL     1       1.809   5.102  21.385  0.00  0.00    +0.000 OA
ATOM     20  C   UNL     1       2.282   3.889  21.015  0.00  0.00    +0.000 A 
ATOM     21  C   UNL     1       2.120   2.847  22.057  0.00  0.00    +0.000 C 
ENDBRANCH  14  15
BRANCH  14  23
ATOM     22  C   UNL     1       0.866   2.309  18.598  0.00  0.00    +0.000 C 
ATOM     23  C   UNL     1       2.283   2.031  18.174  0.00  0.00    +0.000 C 
ENDBRANCH  14  23
ENDBRANCH   1  14
TORSDOF 4
ENDMDL
MODEL 6
REMARK VINA RESULT:      -5.7      1.803      2.496
REMARK  Name = 
REMARK  7 active torsions:
REMARK  status: ('A' for Active; 'I' for Inactive)
REMARK    1  A    between atoms: C_1  and  C_2
REMARK    2  A    between atoms: C_2  and  C_3
REMARK    3  A    between atoms: C_3  and  N_4
REMARK    4  A    between atoms: C_3  and  C_16
REMARK    5  A    between atoms: C_12  and  C_13
REMARK    6  A    between atoms: C_17  and  C_18
REMARK    7  A    between atoms: C_21  and  C_22
REMARK                            x       y       z     vdW  Elec       q    Type
REMARK                         _______ _______ _______ _____ _____    ______ ____
ROOT
ATOM      1  N   UNL     1       3.539   4.795  17.912  0.00  0.00    +0.000 N 
ATOM      2  C   UNL     1       3.059   6.062  17.867  0.00  0.00    +0.000 C 
ATOM      3  O   UNL     1       3.227   6.814  16.875  0.00  0.00    +0.000 OA
ATOM      4  N   UNL     1       2.445   6.477  19.046  0.00  0.00    +0.000 N 
ATOM      5  C   UNL     1       2.030   7.890  19.048  0.00  0.00    +0.000 C 
ATOM      6  C   UNL     1       1.964   8.441  20.468  0.00  0.00    +0.000 C 
ATOM      7  O   UNL     1       1.047   7.675  21.259  0.00  0.00    +0.000 OA
ATOM      8  C   UNL     1       1.433   6.300  21.285  0.00  0.00    +0.000 C 
ATOM      9  C   UNL     1       1.490   5.668  19.878  0.00  0.00    +0.000 C 
ATOM     10  H   UNL     1       3.092   4.234  18.591  0.00  0.00    +0.000 HD
ENDROOT
BRANCH   9  11
ATOM     11  C   UNL     1       1.766   4.188  20.069  0.00  0.00    +0.000 C 
ATOM     12  C   UNL     1       1.137   3.362  21.161  0.00  0.00    +0.000 C 
ATOM     13  C   UNL     1       0.701   3.175  19.733  0.00  0.00    +0.000 C 
ENDBRANCH   9  11
BRANCH   1  14
ATOM     14  C   UNL     1       4.213   4.048  16.866  0.00  0.00    +0.000 C 
BRANCH  14  15
ATOM     15  C   UNL     1       5.709   4.379  16.852  0.00  0.00    +0.000 A 
ATOM     16  C   UNL     1       6.591   4.836  17.890  0.00  0.00    +0.000 A 
ATOM     17  C   UNL     1       6.355   5.131  19.321  0.00  0.00    +0.000 C 
ATOM     18  N   UNL     1       7.844   4.991  17.448  0.00  0.00    +0.000 NA
ATOM     19  O   UNL     1       7.824   4.675  16.119  0.00  0.00    +0.000 OA
ATOM     20  C   UNL     1       6.570   4.321  15.752  0.00  0.00    +0.000 A 
ATOM     21  C   UNL     1       6.455   3.954  14.320  0.00  0.00    +0.000 C 
ENDBRANCH  14  15
BRANCH  14  23
ATOM     22  C   UNL     1       3.908   2.024  18.474  0.00  0.00    +0.000 C 
ATOM     23  C   UNL     1       4.034   2.528  17.061  0.00  0.00    +0.000 C 
ENDBRANCH  14  23
ENDBRANCH   1  14
TORSDOF 4
ENDMDL
MODEL 7
REMARK VINA RESULT:      -5.7      1.872      2.660
REMARK  Name = 
REMARK  7 active torsions:
REMARK  status: ('A' for Active; 'I' for Inactive)
REMARK    1  A    between atoms: C_1  and  C_2
REMARK    2  A    between atoms: C_2  and  C_3
REMARK    3  A    between atoms: C_3  and  N_4
REMARK    4  A    between atoms: C_3  and  C_16
REMARK    5  A    between atoms: C_12  and  C_13
REMARK    6  A    between atoms: C_17  and  C_18
REMARK    7  A    between atoms: C_21  and  C_22
REMARK                            x       y       z     vdW  Elec       q    Type
REMARK                         _______ _______ _______ _____ _____    ______ ____
ROOT
ATOM      1  N   UNL     1       3.687   4.697  18.028  0.00  0.00    +0.000 N 
ATOM      2  C   UNL     1       3.184   5.949  17.903  0.00  0.00    +0.000 C 
ATOM      3  O   UNL     1       3.369   6.653  16.879  0.00  0.00    +0.000 OA
ATOM      4  N   UNL     1       2.523   6.410  19.038  0.00  0.00    +0.000 N 
ATOM      5  C   UNL     1       2.080   7.812  18.954  0.00  0.00    +0.000 C 
ATOM      6  C   UNL     1       1.957   8.435  20.340  0.00  0.00    +0.000 C 
ATOM      7  O   UNL     1       1.029   7.690  21.140  0.00  0.00    +0.000 OA
ATOM      8  C   UNL     1       1.442   6.327  21.250  0.00  0.00    +0.000 C 
ATOM      9  C   UNL     1       1.557   5.625  19.880  0.00  0.00    +0.000 C 
ATOM     10  H   UNL     1       3.230   4.162  18.721  0.00  0.00    +0.000 HD
ENDROOT
BRANCH   9  11
ATOM     11  C   UNL     1       1.857   4.163  20.157  0.00  0.00    +0.000 C 
ATOM     12  C   UNL     1       1.217   3.384  21.276  0.00  0.00    +0.000 C 
ATOM     13  C   UNL     1       0.819   3.113  19.850  0.00  0.00    +0.000 C 
ENDBRANCH   9  11
BRANCH   1  14
ATOM     14  C   UNL     1       4.409   3.913  17.044  0.00  0.00    +0.000 C 
BRANCH  14  15
ATOM     15  C   UNL     1       5.741   4.586  16.696  0.00  0.00    +0.000 A 
ATOM     16  C   UNL     1       6.424   4.750  15.443  0.00  0.00    +0.000 A 
ATOM     17  C   UNL     1       6.070   4.333  14.067  0.00  0.00    +0.000 C 
ATOM     18  N   UNL     1       7.573   5.421  15.585  0.00  0.00    +0.000 NA
ATOM     19  O   UNL     1       7.697   5.691  16.918  0.00  0.00    +0.000 OA
ATOM     20  C   UNL     1       6.629   5.197  17.586  0.00  0.00    +0.000 A 
ATOM     21  C   UNL     1       6.676   5.451  19.047  0.00  0.00    +0.000 C 
ENDBRANCH  14  15
BRANCH  14  23
ATOM     22  C   UNL     1       3.503   1.678  18.025  0.00  0.00    +0.000 C 
ATOM     23  C   UNL     1       4.686   2.485  17.561  0.00  0.00    +0.000 C 
ENDBRANCH  14  23
ENDBRANCH   1  14
TORSDOF 4
ENDMDL
MODEL 8
REMARK VINA RESULT:      -5.6      5.157      8.036
REMARK  Name = 
REMARK  7 active torsions:
REMARK  status: ('A' for Active; 'I' for Inactive)
REMARK    1  A    between atoms: C_1  and  C_2
REMARK    2  A    between atoms: C_2  and  C_3
REMARK    3  A    between atoms: C_3  and  N_4
REMARK    4  A    between atoms: C_3  and  C_16
REMARK    5  A    between atoms: C_12  and  C_13
REMARK    6  A    between atoms: C_17  and  C_18
REMARK    7  A    between atoms: C_21  and  C_22
REMARK                            x       y       z     vdW  Elec       q    Type
REMARK                         _______ _______ _______ _____ _____    ______ ____
ROOT
ATOM      1  N   UNL     1      -1.745  11.718  20.057  0.00  0.00    +0.000 N 
ATOM      2  C   UNL     1      -2.790  12.553  20.270  0.00  0.00    +0.000 C 
ATOM      3  O   UNL     1      -2.724  13.536  21.049  0.00  0.00    +0.000 OA
ATOM      4  N   UNL     1      -3.961  12.173  19.617  0.00  0.00    +0.000 N 
ATOM      5  C   UNL     1      -5.132  13.006  19.940  0.00  0.00    +0.000 C 
ATOM      6  C   UNL     1      -6.429  12.231  19.740  0.00  0.00    +0.000 C 
ATOM      7  O   UNL     1      -6.531  11.769  18.387  0.00  0.00    +0.000 OA
ATOM      8  C   UNL     1      -5.413  10.947  18.051  0.00  0.00    +0.000 C 
ATOM      9  C   UNL     1      -4.064  11.682  18.201  0.00  0.00    +0.000 C 
ATOM     10  H   UNL     1      -1.830  11.192  19.226  0.00  0.00    +0.000 HD
ENDROOT
BRANCH   9  11
ATOM     11  C   UNL     1      -2.990  10.746  17.677  0.00  0.00    +0.000 C 
ATOM     12  C   UNL     1      -3.203   9.809  16.516  0.00  0.00    +0.000 C 
ATOM     13  C   UNL     1      -2.334  11.026  16.348  0.00  0.00    +0.000 C 
ENDBRANCH   9  11
BRANCH   1  14
ATOM     14  C   UNL     1      -0.389  11.823  20.565  0.00  0.00    +0.000 C 
BRANCH  14  15
ATOM     15  C   UNL     1       0.254  10.436  20.664  0.00  0.00    +0.000 A 
ATOM     16  C   UNL     1       0.915   9.623  19.681  0.00  0.00    +0.000 A 
ATOM     17  C   UNL     1       1.207   9.853  18.249  0.00  0.00    +0.000 C 
ATOM     18  N   UNL     1       1.346   8.467  20.199  0.00  0.00    +0.000 NA
ATOM     19  O   UNL     1       0.964   8.467  21.510  0.00  0.00    +0.000 OA
ATOM     20  C   UNL     1       0.311   9.618  21.796  0.00  0.00    +0.000 A 
ATOM     21  C   UNL     1      -0.138   9.708  23.207  0.00  0.00    +0.000 C 
ENDBRANCH  14  15
BRANCH  14  23
ATOM     22  C   UNL     1      -0.158  13.250  18.399  0.00  0.00    +0.000 C 
ATOM     23  C   UNL     1       0.479  12.718  19.655  0.00  0.00    +0.000 C 
ENDBRANCH  14  23
ENDBRANCH   1  14
TORSDOF 4
ENDMDL
MODEL 9
REMARK VINA RESULT:      -5.5      5.286      8.036
REMARK  Name = 
REMARK  7 active torsions:
REMARK  status: ('A' for Active; 'I' for Inactive)
REMARK    1  A    between atoms: C_1  and  C_2
REMARK    2  A    between atoms: C_2  and  C_3
REMARK    3  A    between atoms: C_3  and  N_4
REMARK    4  A    between atoms: C_3  and  C_16
REMARK    5  A    between atoms: C_12  and  C_13
REMARK    6  A    between atoms: C_17  and  C_18
REMARK    7  A    between atoms: C_21  and  C_22
REMARK                            x       y       z     vdW  Elec       q    Type
REMARK                         _______ _______ _______ _____ _____    ______ ____
ROOT
ATOM      1  N   UNL     1      -1.881  11.734  20.000  0.00  0.00    +0.000 N 
ATOM      2  C   UNL     1      -2.930  12.576  20.168  0.00  0.00    +0.000 C 
ATOM      3  O   UNL     1      -2.873  13.587  20.911  0.00  0.00    +0.000 OA
ATOM      4  N   UNL     1      -4.091  12.171  19.514  0.00  0.00    +0.000 N 
ATOM      5  C   UNL     1      -5.266  13.015  19.789  0.00  0.00    +0.000 C 
ATOM      6  C   UNL     1      -6.561  12.232  19.600  0.00  0.00    +0.000 C 
ATOM      7  O   UNL     1      -6.644  11.721  18.263  0.00  0.00    +0.000 OA
ATOM      8  C   UNL     1      -5.521  10.887  17.973  0.00  0.00    +0.000 C 
ATOM      9  C   UNL     1      -4.174  11.629  18.115  0.00  0.00    +0.000 C 
ATOM     10  H   UNL     1      -1.954  11.178  19.187  0.00  0.00    +0.000 HD
ENDROOT
BRANCH   9  11
ATOM     11  C   UNL     1      -3.093  10.675  17.640  0.00  0.00    +0.000 C 
ATOM     12  C   UNL     1      -3.248   9.781  16.437  0.00  0.00    +0.000 C 
ATOM     13  C   UNL     1      -2.332  10.973  16.373  0.00  0.00    +0.000 C 
ENDBRANCH   9  11
BRANCH   1  14
ATOM     14  C   UNL     1      -0.532  11.858  20.522  0.00  0.00    +0.000 C 
BRANCH  14  15
ATOM     15  C   UNL     1       0.109  10.476  20.681  0.00  0.00    +0.000 A 
ATOM     16  C   UNL     1       0.258   9.624  21.829  0.00  0.00    +0.000 A 
ATOM     17  C   UNL     1      -0.165   9.788  23.238  0.00  0.00    +0.000 C 
ATOM     18  N   UNL     1       0.877   8.478  21.522  0.00  0.00    +0.000 NA
ATOM     19  O   UNL     1       1.179   8.549  20.192  0.00  0.00    +0.000 OA
ATOM     20  C   UNL     1       0.740   9.724  19.685  0.00  0.00    +0.000 A 
ATOM     21  C   UNL     1       1.020   9.886  18.238  0.00  0.00    +0.000 C 
ENDBRANCH  14  15
BRANCH  14  23
ATOM     22  C   UNL     1      -0.303  13.294  18.363  0.00  0.00    +0.000 C 
ATOM     23  C   UNL     1       0.349  12.719  19.592  0.00  0.00    +0.000 C 
ENDBRANCH  14  23
ENDBRANCH   1  14
TORSDOF 4
ENDMDL
