MODEL 1
REMARK VINA RESULT:      -6.8      0.000      0.000
REMARK  Name = 
REMARK  13 active torsions:
REMARK  status: ('A' for Active; 'I' for Inactive)
REMARK    1  A    between atoms: C_1  and  C_2
REMARK    2  A    between atoms: C_2  and  C_3
REMARK    3  A    between atoms: C_3  and  C_4
REMARK    4  A    between atoms: C_5  and  C_6
REMARK    5  A    between atoms: C_6  and  O_8
REMARK    6  A    between atoms: O_8  and  C_9
REMARK    7  A    between atoms: C_10  and  C_11
REMARK    8  A    between atoms: C_15  and  O_16
REMARK    9  A    between atoms: C_17  and  O_18
REMARK   10  A    between atoms: C_19  and  C_20
REMARK   11  A    between atoms: C_25  and  C_26
REMARK   12  A    between atoms: C_25  and  C_27
REMARK   13  A    between atoms: C_30  and  C_31
REMARK                            x       y       z     vdW  Elec       q    Type
REMARK                         _______ _______ _______ _____ _____    ______ ____
ROOT
ATOM      1  C   UNL     1      -4.634  13.307  21.685  0.00  0.00    +0.000 C 
ATOM      2  C   UNL     1      -5.912  12.935  20.893  0.00  0.00    +0.000 C 
ATOM      3  C   UNL     1      -6.551  14.133  20.189  0.00  0.00    +0.000 C 
ATOM      4  C   UNL     1      -5.652  11.796  19.905  0.00  0.00    +0.000 C 
ATOM      5  C   UNL     1      -4.452  12.016  18.975  0.00  0.00    +0.000 C 
ATOM      6  O   UNL     1      -3.334  12.276  19.791  0.00  0.00    +0.000 OA
ATOM      7  C   UNL     1      -3.385  13.385  20.714  0.00  0.00    +0.000 C 
ATOM      8  C   UNL     1      -1.971  13.374  21.436  0.00  0.00    +0.000 C 
ATOM      9  C   UNL     1      -0.743  13.278  20.457  0.00  0.00    +0.000 C 
ATOM     10  C   UNL     1      -0.790  14.262  19.278  0.00  0.00    +0.000 C 
ATOM     11  C   UNL     1       0.641  13.281  21.142  0.00  0.00    +0.000 C 
ATOM     12  C   UNL     1       1.344  11.987  20.685  0.00  0.00    +0.000 C 
ATOM     13  C   UNL     1       0.511  11.546  19.501  0.00  0.00    +0.000 C 
ATOM     14  O   UNL     1      -0.800  11.959  19.896  0.00  0.00    +0.000 OA
ATOM     15  C   UNL     1       0.392  10.064  19.046  0.00  0.00    +0.000 C 
ATOM     16  C   UNL     1       1.715   9.557  18.462  0.00  0.00    +0.000 C 
ATOM     17  C   UNL     1      -0.018   9.131  20.205  0.00  0.00    +0.000 C 
ATOM     18  C   UNL     1      -0.665  10.156  17.921  0.00  0.00    +0.000 C 
ATOM     19  C   UNL     1      -1.977   9.893  18.066  0.00  0.00    +0.000 C 
ATOM     20  C   UNL     1      -3.098  10.435  17.209  0.00  0.00    +0.000 C 
ATOM     21  C   UNL     1      -2.783  11.604  16.281  0.00  0.00    +0.000 C 
ATOM     22  C   UNL     1      -4.328  10.719  18.097  0.00  0.00    +0.000 C 
ATOM     23  O   UNL     1      -5.236   9.872  18.090  0.00  0.00    +0.000 OA
ENDROOT
BRANCH   7  24
ATOM     24  O   UNL     1      -3.508  14.626  19.998  0.00  0.00    +0.000 OA
ATOM     25  H   UNL     1      -3.185  15.328  20.594  0.00  0.00    +0.000 HD
ENDBRANCH   7  24
BRANCH   8  26
ATOM     26  O   UNL     1      -1.870  12.213  22.289  0.00  0.00    +0.000 OA
ATOM     27  H   UNL     1      -0.986  12.332  22.702  0.00  0.00    +0.000 HD
ENDBRANCH   8  26
BRANCH   1  28
ATOM     28  O   UNL     1      -4.486  12.347  22.760  0.00  0.00    +0.000 OA
BRANCH  28  29
ATOM     29  C   UNL     1      -4.744  12.784  24.037  0.00  0.00    +0.000 C 
ATOM     30  O   UNL     1      -4.793  12.091  25.039  0.00  0.00    +0.000 OA
BRANCH  29  33
ATOM     31  C   UNL     1      -6.017  15.007  23.970  0.00  0.00    +0.000 C 
ATOM     32  C   UNL     1      -7.407  14.435  23.998  0.00  0.00    +0.000 C 
ATOM     33  C   UNL     1      -4.882  14.271  23.966  0.00  0.00    +0.000 C 
BRANCH  31  35
ATOM     34  C   UNL     1      -4.789  17.032  24.974  0.00  0.00    +0.000 C 
ATOM     35  C   UNL     1      -5.898  16.519  24.065  0.00  0.00    +0.000 C 
ENDBRANCH  31  35
ENDBRANCH  29  33
ENDBRANCH  28  29
ENDBRANCH   1  28
TORSDOF 6
ENDMDL
MODEL 2
REMARK VINA RESULT:      -6.8      0.909      1.139
REMARK  Name = 
REMARK  13 active torsions:
REMARK  status: ('A' for Active; 'I' for Inactive)
REMARK    1  A    between atoms: C_1  and  C_2
REMARK    2  A    between atoms: C_2  and  C_3
REMARK    3  A    between atoms: C_3  and  C_4
REMARK    4  A    between atoms: C_5  and  C_6
REMARK    5  A    between atoms: C_6  and  O_8
REMARK    6  A    between atoms: O_8  and  C_9
REMARK    7  A    between atoms: C_10  and  C_11
REMARK    8  A    between atoms: C_15  and  O_16
REMARK    9  A    between atoms: C_17  and  O_18
REMARK   10  A    between atoms: C_19  and  C_20
REMARK   11  A    between atoms: C_25  and  C_26
REMARK   12  A    between atoms: C_25  and  C_27
REMARK   13  A    between atoms: C_30  and  C_31
REMARK                            x       y       z     vdW  Elec       q    Type
REMARK                         _______ _______ _______ _____ _____    ______ ____
ROOT
ATOM      1  C   UNL     1      -4.423  13.333  21.782  0.00  0.00    +0.000 C 
ATOM      2  C   UNL     1      -5.746  12.992  21.052  0.00  0.00    +0.000 C 
ATOM      3  C   UNL     1      -6.396  14.207  20.389  0.00  0.00    +0.000 C 
ATOM      4  C   UNL     1      -5.558  11.856  20.044  0.00  0.00    +0.000 C 
ATOM      5  C   UNL     1      -4.402  12.060  19.058  0.00  0.00    +0.000 C 
ATOM      6  O   UNL     1      -3.240  12.292  19.818  0.00  0.00    +0.000 OA
ATOM      7  C   UNL     1      -3.223  13.394  20.750  0.00  0.00    +0.000 C 
ATOM      8  C   UNL     1      -1.775  13.351  21.400  0.00  0.00    +0.000 C 
ATOM      9  C   UNL     1      -0.599  13.240  20.360  0.00  0.00    +0.000 C 
ATOM     10  C   UNL     1      -0.687  14.233  19.191  0.00  0.00    +0.000 C 
ATOM     11  C   UNL     1       0.817  13.211  20.975  0.00  0.00    +0.000 C 
ATOM     12  C   UNL     1       1.471  11.907  20.474  0.00  0.00    +0.000 C 
ATOM     13  C   UNL     1       0.571  11.491  19.331  0.00  0.00    +0.000 C 
ATOM     14  O   UNL     1      -0.711  11.926  19.794  0.00  0.00    +0.000 OA
ATOM     15  C   UNL     1       0.400  10.015  18.872  0.00  0.00    +0.000 C 
ATOM     16  C   UNL     1       1.683   9.488  18.219  0.00  0.00    +0.000 C 
ATOM     17  C   UNL     1       0.031   9.081  20.044  0.00  0.00    +0.000 C 
ATOM     18  C   UNL     1      -0.709  10.136  17.802  0.00  0.00    +0.000 C 
ATOM     19  C   UNL     1      -2.017   9.897  18.011  0.00  0.00    +0.000 C 
ATOM     20  C   UNL     1      -3.169  10.468  17.215  0.00  0.00    +0.000 C 
ATOM     21  C   UNL     1      -2.878  11.637  16.280  0.00  0.00    +0.000 C 
ATOM     22  C   UNL     1      -4.347  10.768  18.165  0.00  0.00    +0.000 C 
ATOM     23  O   UNL     1      -5.271   9.939  18.199  0.00  0.00    +0.000 OA
ENDROOT
BRANCH   7  24
ATOM     24  O   UNL     1      -3.357  14.643  20.049  0.00  0.00    +0.000 OA
ATOM     25  H   UNL     1      -4.016  15.172  20.538  0.00  0.00    +0.000 HD
ENDBRANCH   7  24
BRANCH   8  26
ATOM     26  O   UNL     1      -1.654  12.182  22.238  0.00  0.00    +0.000 OA
ATOM     27  H   UNL     1      -2.412  12.287  22.856  0.00  0.00    +0.000 HD
ENDBRANCH   8  26
BRANCH   1  28
ATOM     28  O   UNL     1      -4.240  12.362  22.841  0.00  0.00    +0.000 OA
BRANCH  28  29
ATOM     29  C   UNL     1      -4.617  12.734  24.110  0.00  0.00    +0.000 C 
ATOM     30  O   UNL     1      -5.535  12.258  24.756  0.00  0.00    +0.000 OA
BRANCH  29  33
ATOM     31  C   UNL     1      -3.828  15.113  24.640  0.00  0.00    +0.000 C 
ATOM     32  C   UNL     1      -5.080  15.831  24.217  0.00  0.00    +0.000 C 
ATOM     33  C   UNL     1      -3.646  13.775  24.562  0.00  0.00    +0.000 C 
BRANCH  31  35
ATOM     34  C   UNL     1      -1.337  15.383  25.221  0.00  0.00    +0.000 C 
ATOM     35  C   UNL     1      -2.747  15.954  25.297  0.00  0.00    +0.000 C 
ENDBRANCH  31  35
ENDBRANCH  29  33
ENDBRANCH  28  29
ENDBRANCH   1  28
TORSDOF 6
ENDMDL
MODEL 3
REMARK VINA RESULT:      -6.3      2.140      6.518
REMARK  Name = 
REMARK  13 active torsions:
REMARK  status: ('A' for Active; 'I' for Inactive)
REMARK    1  A    between atoms: C_1  and  C_2
REMARK    2  A    between atoms: C_2  and  C_3
REMARK    3  A    between atoms: C_3  and  C_4
REMARK    4  A    between atoms: C_5  and  C_6
REMARK    5  A    between atoms: C_6  and  O_8
REMARK    6  A    between atoms: O_8  and  C_9
REMARK    7  A    between atoms: C_10  and  C_11
REMARK    8  A    between atoms: C_15  and  O_16
REMARK    9  A    between atoms: C_17  and  O_18
REMARK   10  A    between atoms: C_19  and  C_20
REMARK   11  A    between atoms: C_25  and  C_26
REMARK   12  A    between atoms: C_25  and  C_27
REMARK   13  A    between atoms: C_30  and  C_31
REMARK                            x       y       z     vdW  Elec       q    Type
REMARK                         _______ _______ _______ _____ _____    ______ ____
ROOT
ATOM      1  C   UNL     1      -5.673  12.232  20.611  0.00  0.00    +0.000 C 
ATOM      2  C   UNL     1      -7.082  12.745  20.997  0.00  0.00    +0.000 C 
ATOM      3  C   UNL     1      -7.687  12.001  22.188  0.00  0.00    +0.000 C 
ATOM      4  C   UNL     1      -7.086  14.256  21.238  0.00  0.00    +0.000 C 
ATOM      5  C   UNL     1      -6.014  14.751  22.217  0.00  0.00    +0.000 C 
ATOM      6  O   UNL     1      -4.770  14.292  21.742  0.00  0.00    +0.000 OA
ATOM      7  C   UNL     1      -4.574  12.875  21.553  0.00  0.00    +0.000 C 
ATOM      8  C   UNL     1      -3.080  12.741  21.031  0.00  0.00    +0.000 C 
ATOM      9  C   UNL     1      -2.021  13.531  21.885  0.00  0.00    +0.000 C 
ATOM     10  C   UNL     1      -2.133  13.310  23.401  0.00  0.00    +0.000 C 
ATOM     11  C   UNL     1      -0.561  13.400  21.399  0.00  0.00    +0.000 C 
ATOM     12  C   UNL     1      -0.069  14.838  21.140  0.00  0.00    +0.000 C 
ATOM     13  C   UNL     1      -1.103  15.685  21.847  0.00  0.00    +0.000 C 
ATOM     14  O   UNL     1      -2.295  14.919  21.649  0.00  0.00    +0.000 OA
ATOM     15  C   UNL     1      -1.440  17.145  21.431  0.00  0.00    +0.000 C 
ATOM     16  C   UNL     1      -0.273  18.091  21.740  0.00  0.00    +0.000 C 
ATOM     17  C   UNL     1      -1.775  17.259  19.930  0.00  0.00    +0.000 C 
ATOM     18  C   UNL     1      -2.630  17.479  22.360  0.00  0.00    +0.000 C 
ATOM     19  C   UNL     1      -3.929  17.409  22.012  0.00  0.00    +0.000 C 
ATOM     20  C   UNL     1      -5.097  17.215  22.951  0.00  0.00    +0.000 C 
ATOM     21  C   UNL     1      -4.797  16.768  24.377  0.00  0.00    +0.000 C 
ATOM     22  C   UNL     1      -6.152  16.315  22.273  0.00  0.00    +0.000 C 
ATOM     23  O   UNL     1      -7.135  16.880  21.767  0.00  0.00    +0.000 OA
ENDROOT
BRANCH   7  24
ATOM     24  O   UNL     1      -4.667  12.185  22.811  0.00  0.00    +0.000 OA
ATOM     25  H   UNL     1      -4.630  11.230  22.613  0.00  0.00    +0.000 HD
ENDBRANCH   7  24
BRANCH   8  26
ATOM     26  O   UNL     1      -2.981  13.289  19.699  0.00  0.00    +0.000 OA
ATOM     27  H   UNL     1      -2.905  12.481  19.144  0.00  0.00    +0.000 HD
ENDBRANCH   8  26
BRANCH   1  28
ATOM     28  O   UNL     1      -5.474  12.504  19.202  0.00  0.00    +0.000 OA
BRANCH  28  29
ATOM     29  C   UNL     1      -5.788  11.502  18.315  0.00  0.00    +0.000 C 
ATOM     30  O   UNL     1      -6.682  10.682  18.443  0.00  0.00    +0.000 OA
BRANCH  29  33
ATOM     31  C   UNL     1      -3.820  10.881  16.796  0.00  0.00    +0.000 C 
ATOM     32  C   UNL     1      -3.330   9.700  17.587  0.00  0.00    +0.000 C 
ATOM     33  C   UNL     1      -4.872  11.657  17.145  0.00  0.00    +0.000 C 
BRANCH  31  35
ATOM     34  C   UNL     1      -2.886   9.903  14.609  0.00  0.00    +0.000 C 
ATOM     35  C   UNL     1      -3.143  11.139  15.461  0.00  0.00    +0.000 C 
ENDBRANCH  31  35
ENDBRANCH  29  33
ENDBRANCH  28  29
ENDBRANCH   1  28
TORSDOF 6
ENDMDL
MODEL 4
REMARK VINA RESULT:      -6.3      2.136      6.249
REMARK  Name = 
REMARK  13 active torsions:
REMARK  status: ('A' for Active; 'I' for Inactive)
REMARK    1  A    between atoms: C_1  and  C_2
REMARK    2  A    between atoms: C_2  and  C_3
REMARK    3  A    between atoms: C_3  and  C_4
REMARK    4  A    between atoms: C_5  and  C_6
REMARK    5  A    between atoms: C_6  and  O_8
REMARK    6  A    between atoms: O_8  and  C_9
REMARK    7  A    between atoms: C_10  and  C_11
REMARK    8  A    between atoms: C_15  and  O_16
REMARK    9  A    between atoms: C_17  and  O_18
REMARK   10  A    between atoms: C_19  and  C_20
REMARK   11  A    between atoms: C_25  and  C_26
REMARK   12  A    between atoms: C_25  and  C_27
REMARK   13  A    between atoms: C_30  and  C_31
REMARK                            x       y       z     vdW  Elec       q    Type
REMARK                         _______ _______ _______ _____ _____    ______ ____
ROOT
ATOM      1  C   UNL     1      -4.805  12.342  19.990  0.00  0.00    +0.000 C 
ATOM      2  C   UNL     1      -6.101  13.086  20.394  0.00  0.00    +0.000 C 
ATOM      3  C   UNL     1      -6.682  12.599  21.722  0.00  0.00    +0.000 C 
ATOM      4  C   UNL     1      -5.901  14.603  20.408  0.00  0.00    +0.000 C 
ATOM      5  C   UNL     1      -4.695  15.082  21.224  0.00  0.00    +0.000 C 
ATOM      6  O   UNL     1      -3.563  14.402  20.735  0.00  0.00    +0.000 OA
ATOM      7  C   UNL     1      -3.556  12.959  20.745  0.00  0.00    +0.000 C 
ATOM      8  C   UNL     1      -2.142  12.558  20.144  0.00  0.00    +0.000 C 
ATOM      9  C   UNL     1      -0.923  13.311  20.795  0.00  0.00    +0.000 C 
ATOM     10  C   UNL     1      -0.925  13.318  22.331  0.00  0.00    +0.000 C 
ATOM     11  C   UNL     1       0.461  12.922  20.231  0.00  0.00    +0.000 C 
ATOM     12  C   UNL     1       1.098  14.233  19.727  0.00  0.00    +0.000 C 
ATOM     13  C   UNL     1       0.240  15.300  20.372  0.00  0.00    +0.000 C 
ATOM     14  O   UNL     1      -1.048  14.678  20.375  0.00  0.00    +0.000 OA
ATOM     15  C   UNL     1       0.047  16.720  19.769  0.00  0.00    +0.000 C 
ATOM     16  C   UNL     1       1.341  17.536  19.850  0.00  0.00    +0.000 C 
ATOM     17  C   UNL     1      -0.405  16.668  18.295  0.00  0.00    +0.000 C 
ATOM     18  C   UNL     1      -1.008  17.333  20.720  0.00  0.00    +0.000 C 
ATOM     19  C   UNL     1      -2.331  17.388  20.479  0.00  0.00    +0.000 C 
ATOM     20  C   UNL     1      -3.426  17.481  21.517  0.00  0.00    +0.000 C 
ATOM     21  C   UNL     1      -3.056  17.200  22.969  0.00  0.00    +0.000 C 
ATOM     22  C   UNL     1      -4.638  16.643  21.057  0.00  0.00    +0.000 C 
ATOM     23  O   UNL     1      -5.587  17.258  20.544  0.00  0.00    +0.000 OA
ENDROOT
BRANCH   7  24
ATOM     24  O   UNL     1      -3.619  12.468  22.095  0.00  0.00    +0.000 OA
ATOM     25  H   UNL     1      -3.289  13.183  22.671  0.00  0.00    +0.000 HD
ENDBRANCH   7  24
BRANCH   8  26
ATOM     26  O   UNL     1      -2.096  12.898  18.742  0.00  0.00    +0.000 OA
ATOM     27  H   UNL     1      -2.229  13.872  18.757  0.00  0.00    +0.000 HD
ENDBRANCH   8  26
BRANCH   1  28
ATOM     28  O   UNL     1      -4.701  12.388  18.545  0.00  0.00    +0.000 OA
BRANCH  28  29
ATOM     29  C   UNL     1      -5.316  11.385  17.836  0.00  0.00    +0.000 C 
ATOM     30  O   UNL     1      -6.357  10.826  18.136  0.00  0.00    +0.000 OA
BRANCH  29  33
ATOM     31  C   UNL     1      -3.372  10.432  16.464  0.00  0.00    +0.000 C 
ATOM     32  C   UNL     1      -2.674   9.718  17.588  0.00  0.00    +0.000 C 
ATOM     33  C   UNL     1      -4.501  11.164  16.603  0.00  0.00    +0.000 C 
BRANCH  31  35
ATOM     34  C   UNL     1      -3.859  10.059  13.966  0.00  0.00    +0.000 C 
ATOM     35  C   UNL     1      -2.817  10.215  15.067  0.00  0.00    +0.000 C 
ENDBRANCH  31  35
ENDBRANCH  29  33
ENDBRANCH  28  29
ENDBRANCH   1  28
TORSDOF 6
ENDMDL
MODEL 5
REMARK VINA RESULT:      -6.2      2.373      7.020
REMARK  Name = 
REMARK  13 active torsions:
REMARK  status: ('A' for Active; 'I' for Inactive)
REMARK    1  A    between atoms: C_1  and  C_2
REMARK    2  A    between atoms: C_2  and  C_3
REMARK    3  A    between atoms: C_3  and  C_4
REMARK    4  A    between atoms: C_5  and  C_6
REMARK    5  A    between atoms: C_6  and  O_8
REMARK    6  A    between atoms: O_8  and  C_9
REMARK    7  A    between atoms: C_10  and  C_11
REMARK    8  A    between atoms: C_15  and  O_16
REMARK    9  A    between atoms: C_17  and  O_18
REMARK   10  A    between atoms: C_19  and  C_20
REMARK   11  A    between atoms: C_25  and  C_26
REMARK   12  A    between atoms: C_25  and  C_27
REMARK   13  A    between atoms: C_30  and  C_31
REMARK                            x       y       z     vdW  Elec       q    Type
REMARK                         _______ _______ _______ _____ _____    ______ ____
ROOT
ATOM      1  C   UNL     1      -0.007  11.301  20.190  0.00  0.00    +0.000 C 
ATOM      2  C   UNL     1      -0.345  10.365  21.376  0.00  0.00    +0.000 C 
ATOM      3  C   UNL     1       0.879   9.994  22.215  0.00  0.00    +0.000 C 
ATOM      4  C   UNL     1      -1.454  10.946  22.256  0.00  0.00    +0.000 C 
ATOM      5  C   UNL     1      -1.213  12.387  22.722  0.00  0.00    +0.000 C 
ATOM      6  O   UNL     1      -0.986  13.166  21.570  0.00  0.00    +0.000 OA
ATOM      7  C   UNL     1       0.093  12.804  20.683  0.00  0.00    +0.000 C 
ATOM      8  C   UNL     1       0.050  13.894  19.529  0.00  0.00    +0.000 C 
ATOM      9  C   UNL     1      -0.023  15.380  20.043  0.00  0.00    +0.000 C 
ATOM     10  C   UNL     1       0.998  15.726  21.137  0.00  0.00    +0.000 C 
ATOM     11  C   UNL     1      -0.052  16.453  18.933  0.00  0.00    +0.000 C 
ATOM     12  C   UNL     1      -1.335  17.275  19.170  0.00  0.00    +0.000 C 
ATOM     13  C   UNL     1      -1.733  16.888  20.578  0.00  0.00    +0.000 C 
ATOM     14  O   UNL     1      -1.324  15.519  20.632  0.00  0.00    +0.000 OA
ATOM     15  C   UNL     1      -3.199  16.935  21.094  0.00  0.00    +0.000 C 
ATOM     16  C   UNL     1      -3.696  18.380  21.217  0.00  0.00    +0.000 C 
ATOM     17  C   UNL     1      -4.165  16.165  20.170  0.00  0.00    +0.000 C 
ATOM     18  C   UNL     1      -3.064  16.317  22.505  0.00  0.00    +0.000 C 
ATOM     19  C   UNL     1      -3.322  15.033  22.817  0.00  0.00    +0.000 C 
ATOM     20  C   UNL     1      -2.746  14.263  23.982  0.00  0.00    +0.000 C 
ATOM     21  C   UNL     1      -1.550  14.865  24.712  0.00  0.00    +0.000 C 
ATOM     22  C   UNL     1      -2.482  12.804  23.549  0.00  0.00    +0.000 C 
ATOM     23  O   UNL     1      -3.322  11.955  23.887  0.00  0.00    +0.000 OA
ENDROOT
BRANCH   7  24
ATOM     24  O   UNL     1       1.357  12.923  21.358  0.00  0.00    +0.000 OA
ATOM     25  H   UNL     1       1.239  12.537  22.247  0.00  0.00    +0.000 HD
ENDBRANCH   7  24
BRANCH   8  26
ATOM     26  O   UNL     1      -1.138  13.708  18.730  0.00  0.00    +0.000 OA
ATOM     27  H   UNL     1      -0.781  13.287  17.917  0.00  0.00    +0.000 HD
ENDBRANCH   8  26
BRANCH   1  28
ATOM     28  O   UNL     1      -1.002  11.085  19.159  0.00  0.00    +0.000 OA
BRANCH  28  29
ATOM     29  C   UNL     1      -0.643  10.298  18.091  0.00  0.00    +0.000 C 
ATOM     30  O   UNL     1       0.275   9.497  18.065  0.00  0.00    +0.000 OA
BRANCH  29  33
ATOM     31  C   UNL     1      -2.933  10.195  16.945  0.00  0.00    +0.000 C 
ATOM     32  C   UNL     1      -3.634   9.369  17.988  0.00  0.00    +0.000 C 
ATOM     33  C   UNL     1      -1.633  10.565  17.004  0.00  0.00    +0.000 C 
BRANCH  31  35
ATOM     34  C   UNL     1      -3.472  10.175  14.431  0.00  0.00    +0.000 C 
ATOM     35  C   UNL     1      -3.788  10.734  15.812  0.00  0.00    +0.000 C 
ENDBRANCH  31  35
ENDBRANCH  29  33
ENDBRANCH  28  29
ENDBRANCH   1  28
TORSDOF 6
ENDMDL
MODEL 6
REMARK VINA RESULT:      -6.2      3.292      6.842
REMARK  Name = 
REMARK  13 active torsions:
REMARK  status: ('A' for Active; 'I' for Inactive)
REMARK    1  A    between atoms: C_1  and  C_2
REMARK    2  A    between atoms: C_2  and  C_3
REMARK    3  A    between atoms: C_3  and  C_4
REMARK    4  A    between atoms: C_5  and  C_6
REMARK    5  A    between atoms: C_6  and  O_8
REMARK    6  A    between atoms: O_8  and  C_9
REMARK    7  A    between atoms: C_10  and  C_11
REMARK    8  A    between atoms: C_15  and  O_16
REMARK    9  A    between atoms: C_17  and  O_18
REMARK   10  A    between atoms: C_19  and  C_20
REMARK   11  A    between atoms: C_25  and  C_26
REMARK   12  A    between atoms: C_25  and  C_27
REMARK   13  A    between atoms: C_30  and  C_31
REMARK                            x       y       z     vdW  Elec       q    Type
REMARK                         _______ _______ _______ _____ _____    ______ ____
ROOT
ATOM      1  C   UNL     1       1.276  15.901  20.306  0.00  0.00    +0.000 C 
ATOM      2  C   UNL     1       0.562  16.767  21.372  0.00  0.00    +0.000 C 
ATOM      3  C   UNL     1      -0.501  17.692  20.779  0.00  0.00    +0.000 C 
ATOM      4  C   UNL     1      -0.026  15.910  22.495  0.00  0.00    +0.000 C 
ATOM      5  C   UNL     1      -0.911  14.751  22.020  0.00  0.00    +0.000 C 
ATOM      6  O   UNL     1      -0.149  13.988  21.113  0.00  0.00    +0.000 OA
ATOM      7  C   UNL     1       0.397  14.634  19.943  0.00  0.00    +0.000 C 
ATOM      8  C   UNL     1       1.166  13.481  19.168  0.00  0.00    +0.000 C 
ATOM      9  C   UNL     1       0.329  12.164  18.967  0.00  0.00    +0.000 C 
ATOM     10  C   UNL     1      -1.090  12.388  18.424  0.00  0.00    +0.000 C 
ATOM     11  C   UNL     1       1.058  11.037  18.203  0.00  0.00    +0.000 C 
ATOM     12  C   UNL     1       1.046   9.812  19.139  0.00  0.00    +0.000 C 
ATOM     13  C   UNL     1       0.004  10.182  20.172  0.00  0.00    +0.000 C 
ATOM     14  O   UNL     1       0.185  11.597  20.277  0.00  0.00    +0.000 OA
ATOM     15  C   UNL     1       0.006   9.624  21.624  0.00  0.00    +0.000 C 
ATOM     16  C   UNL     1      -0.327   8.128  21.641  0.00  0.00    +0.000 C 
ATOM     17  C   UNL     1       1.366   9.829  22.323  0.00  0.00    +0.000 C 
ATOM     18  C   UNL     1      -1.152  10.416  22.274  0.00  0.00    +0.000 C 
ATOM     19  C   UNL     1      -1.008  11.521  23.029  0.00  0.00    +0.000 C 
ATOM     20  C   UNL     1      -2.048  12.595  23.250  0.00  0.00    +0.000 C 
ATOM     21  C   UNL     1      -3.263  12.609  22.329  0.00  0.00    +0.000 C 
ATOM     22  C   UNL     1      -1.354  13.973  23.311  0.00  0.00    +0.000 C 
ATOM     23  O   UNL     1      -1.158  14.457  24.437  0.00  0.00    +0.000 OA
ENDROOT
BRANCH   7  24
ATOM     24  O   UNL     1      -0.663  15.109  19.094  0.00  0.00    +0.000 OA
ATOM     25  H   UNL     1      -1.501  14.822  19.503  0.00  0.00    +0.000 HD
ENDBRANCH   7  24
BRANCH   8  26
ATOM     26  O   UNL     1       2.330  13.082  19.923  0.00  0.00    +0.000 OA
ATOM     27  H   UNL     1       2.083  13.335  20.840  0.00  0.00    +0.000 HD
ENDBRANCH   8  26
BRANCH   1  28
ATOM     28  O   UNL     1       2.595  15.577  20.811  0.00  0.00    +0.000 OA
BRANCH  28  29
ATOM     29  C   UNL     1       3.654  16.303  20.322  0.00  0.00    +0.000 C 
ATOM     30  O   UNL     1       4.774  16.355  20.802  0.00  0.00    +0.000 OA
BRANCH  29  33
ATOM     31  C   UNL     1       3.309  16.503  17.791  0.00  0.00    +0.000 C 
ATOM     32  C   UNL     1       4.011  15.233  17.398  0.00  0.00    +0.000 C 
ATOM     33  C   UNL     1       3.187  16.954  19.060  0.00  0.00    +0.000 C 
BRANCH  31  35
ATOM     34  C   UNL     1       1.348  18.021  17.107  0.00  0.00    +0.000 C 
ATOM     35  C   UNL     1       2.599  17.262  16.683  0.00  0.00    +0.000 C 
ENDBRANCH  31  35
ENDBRANCH  29  33
ENDBRANCH  28  29
ENDBRANCH   1  28
TORSDOF 6
ENDMDL
MODEL 7
REMARK VINA RESULT:      -6.1      7.067     12.114
REMARK  Name = 
REMARK  13 active torsions:
REMARK  status: ('A' for Active; 'I' for Inactive)
REMARK    1  A    between atoms: C_1  and  C_2
REMARK    2  A    between atoms: C_2  and  C_3
REMARK    3  A    between atoms: C_3  and  C_4
REMARK    4  A    between atoms: C_5  and  C_6
REMARK    5  A    between atoms: C_6  and  O_8
REMARK    6  A    between atoms: O_8  and  C_9
REMARK    7  A    between atoms: C_10  and  C_11
REMARK    8  A    between atoms: C_15  and  O_16
REMARK    9  A    between atoms: C_17  and  O_18
REMARK   10  A    between atoms: C_19  and  C_20
REMARK   11  A    between atoms: C_25  and  C_26
REMARK   12  A    between atoms: C_25  and  C_27
REMARK   13  A    between atoms: C_30  and  C_31
REMARK                            x       y       z     vdW  Elec       q    Type
REMARK                         _______ _______ _______ _____ _____    ______ ____
ROOT
ATOM      1  C   UNL     1       8.710  14.940  19.035  0.00  0.00    +0.000 C 
ATOM      2  C   UNL     1       9.514  14.365  20.227  0.00  0.00    +0.000 C 
ATOM      3  C   UNL     1      10.442  15.393  20.875  0.00  0.00    +0.000 C 
ATOM      4  C   UNL     1       8.597  13.723  21.270  0.00  0.00    +0.000 C 
ATOM      5  C   UNL     1       7.442  14.614  21.743  0.00  0.00    +0.000 C 
ATOM      6  O   UNL     1       6.735  15.026  20.596  0.00  0.00    +0.000 OA
ATOM      7  C   UNL     1       7.442  15.735  19.557  0.00  0.00    +0.000 C 
ATOM      8  C   UNL     1       6.340  16.039  18.454  0.00  0.00    +0.000 C 
ATOM      9  C   UNL     1       5.016  16.675  19.019  0.00  0.00    +0.000 C 
ATOM     10  C   UNL     1       5.234  17.860  19.972  0.00  0.00    +0.000 C 
ATOM     11  C   UNL     1       3.939  16.990  17.959  0.00  0.00    +0.000 C 
ATOM     12  C   UNL     1       2.674  16.224  18.397  0.00  0.00    +0.000 C 
ATOM     13  C   UNL     1       2.977  15.858  19.833  0.00  0.00    +0.000 C 
ATOM     14  O   UNL     1       4.390  15.637  19.788  0.00  0.00    +0.000 OA
ATOM     15  C   UNL     1       2.357  14.625  20.549  0.00  0.00    +0.000 C 
ATOM     16  C   UNL     1       0.855  14.820  20.785  0.00  0.00    +0.000 C 
ATOM     17  C   UNL     1       2.559  13.324  19.744  0.00  0.00    +0.000 C 
ATOM     18  C   UNL     1       3.096  14.636  21.908  0.00  0.00    +0.000 C 
ATOM     19  C   UNL     1       4.170  13.884  22.212  0.00  0.00    +0.000 C 
ATOM     20  C   UNL     1       5.212  14.196  23.261  0.00  0.00    +0.000 C 
ATOM     21  C   UNL     1       5.241  15.607  23.837  0.00  0.00    +0.000 C 
ATOM     22  C   UNL     1       6.600  13.752  22.751  0.00  0.00    +0.000 C 
ATOM     23  O   UNL     1       7.038  12.671  23.175  0.00  0.00    +0.000 OA
ENDROOT
BRANCH   7  24
ATOM     24  O   UNL     1       7.932  16.992  20.053  0.00  0.00    +0.000 OA
ATOM     25  H   UNL     1       7.161  17.476  20.406  0.00  0.00    +0.000 HD
ENDBRANCH   7  24
BRANCH   8  26
ATOM     26  O   UNL     1       5.933  14.807  17.822  0.00  0.00    +0.000 OA
ATOM     27  H   UNL     1       5.349  15.124  17.098  0.00  0.00    +0.000 HD
ENDBRANCH   8  26
BRANCH   1  28
ATOM     28  O   UNL     1       8.391  13.841  18.146  0.00  0.00    +0.000 OA
BRANCH  28  29
ATOM     29  C   UNL     1       9.439  13.091  17.670  0.00  0.00    +0.000 C 
ATOM     30  O   UNL     1      10.472  13.522  17.186  0.00  0.00    +0.000 OA
BRANCH  29  33
ATOM     31  C   UNL     1       9.652  10.810  18.819  0.00  0.00    +0.000 C 
ATOM     32  C   UNL     1      10.800  11.157  19.727  0.00  0.00    +0.000 C 
ATOM     33  C   UNL     1       9.097  11.658  17.924  0.00  0.00    +0.000 C 
BRANCH  31  35
ATOM     34  C   UNL     1       8.114   8.975  17.879  0.00  0.00    +0.000 C 
ATOM     35  C   UNL     1       9.016   9.444  19.013  0.00  0.00    +0.000 C 
ENDBRANCH  31  35
ENDBRANCH  29  33
ENDBRANCH  28  29
ENDBRANCH   1  28
TORSDOF 6
ENDMDL
MODEL 8
REMARK VINA RESULT:      -6.1      3.471      7.255
REMARK  Name = 
REMARK  13 active torsions:
REMARK  status: ('A' for Active; 'I' for Inactive)
REMARK    1  A    between atoms: C_1  and  C_2
REMARK    2  A    between atoms: C_2  and  C_3
REMARK    3  A    between atoms: C_3  and  C_4
REMARK    4  A    between atoms: C_5  and  C_6
REMARK    5  A    between atoms: C_6  and  O_8
REMARK    6  A    between atoms: O_8  and  C_9
REMARK    7  A    between atoms: C_10  and  C_11
REMARK    8  A    between atoms: C_15  and  O_16
REMARK    9  A    between atoms: C_17  and  O_18
REMARK   10  A    between atoms: C_19  and  C_20
REMARK   11  A    between atoms: C_25  and  C_26
REMARK   12  A    between atoms: C_25  and  C_27
REMARK   13  A    between atoms: C_30  and  C_31
REMARK                            x       y       z     vdW  Elec       q    Type
REMARK                         _______ _______ _______ _____ _____    ______ ____
ROOT
ATOM      1  C   UNL     1       1.338  15.817  20.155  0.00  0.00    +0.000 C 
ATOM      2  C   UNL     1       0.648  16.707  21.217  0.00  0.00    +0.000 C 
ATOM      3  C   UNL     1      -0.416  17.633  20.624  0.00  0.00    +0.000 C 
ATOM      4  C   UNL     1       0.070  15.874  22.363  0.00  0.00    +0.000 C 
ATOM      5  C   UNL     1      -0.833  14.716  21.921  0.00  0.00    +0.000 C 
ATOM      6  O   UNL     1      -0.092  13.931  21.015  0.00  0.00    +0.000 OA
ATOM      7  C   UNL     1       0.441  14.552  19.827  0.00  0.00    +0.000 C 
ATOM      8  C   UNL     1       1.188  13.380  19.059  0.00  0.00    +0.000 C 
ATOM      9  C   UNL     1       0.336  12.067  18.893  0.00  0.00    +0.000 C 
ATOM     10  C   UNL     1      -1.089  12.296  18.368  0.00  0.00    +0.000 C 
ATOM     11  C   UNL     1       1.043  10.921  18.137  0.00  0.00    +0.000 C 
ATOM     12  C   UNL     1       1.034   9.712  19.093  0.00  0.00    +0.000 C 
ATOM     13  C   UNL     1       0.012  10.108  20.136  0.00  0.00    +0.000 C 
ATOM     14  O   UNL     1       0.207  11.523  20.215  0.00  0.00    +0.000 OA
ATOM     15  C   UNL     1       0.031   9.575  21.596  0.00  0.00    +0.000 C 
ATOM     16  C   UNL     1      -0.315   8.083  21.644  0.00  0.00    +0.000 C 
ATOM     17  C   UNL     1       1.403   9.779  22.272  0.00  0.00    +0.000 C 
ATOM     18  C   UNL     1      -1.110  10.388  22.251  0.00  0.00    +0.000 C 
ATOM     19  C   UNL     1      -0.945  11.504  22.985  0.00  0.00    +0.000 C 
ATOM     20  C   UNL     1      -1.971  12.592  23.203  0.00  0.00    +0.000 C 
ATOM     21  C   UNL     1      -3.200  12.602  22.300  0.00  0.00    +0.000 C 
ATOM     22  C   UNL     1      -1.264  13.964  23.231  0.00  0.00    +0.000 C 
ATOM     23  O   UNL     1      -1.046  14.464  24.346  0.00  0.00    +0.000 OA
ENDROOT
BRANCH   7  24
ATOM     24  O   UNL     1      -0.626  15.023  18.986  0.00  0.00    +0.000 OA
ATOM     25  H   UNL     1      -0.456  14.671  18.091  0.00  0.00    +0.000 HD
ENDBRANCH   7  24
BRANCH   8  26
ATOM     26  O   UNL     1       2.360  12.982  19.803  0.00  0.00    +0.000 OA
ATOM     27  H   UNL     1       3.036  13.625  19.491  0.00  0.00    +0.000 HD
ENDBRANCH   8  26
BRANCH   1  28
ATOM     28  O   UNL     1       2.661  15.489  20.645  0.00  0.00    +0.000 OA
BRANCH  28  29
ATOM     29  C   UNL     1       3.689  16.332  20.299  0.00  0.00    +0.000 C 
ATOM     30  O   UNL     1       3.771  17.517  20.573  0.00  0.00    +0.000 OA
BRANCH  29  33
ATOM     31  C   UNL     1       4.759  15.178  18.277  0.00  0.00    +0.000 C 
ATOM     32  C   UNL     1       3.722  15.569  17.260  0.00  0.00    +0.000 C 
ATOM     33  C   UNL     1       4.710  15.503  19.589  0.00  0.00    +0.000 C 
BRANCH  31  35
ATOM     34  C   UNL     1       7.301  15.233  17.888  0.00  0.00    +0.000 C 
ATOM     35  C   UNL     1       5.993  14.463  17.754  0.00  0.00    +0.000 C 
ENDBRANCH  31  35
ENDBRANCH  29  33
ENDBRANCH  28  29
ENDBRANCH   1  28
TORSDOF 6
ENDMDL
MODEL 9
REMARK VINA RESULT:      -6.1      2.454      5.914
REMARK  Name = 
REMARK  13 active torsions:
REMARK  status: ('A' for Active; 'I' for Inactive)
REMARK    1  A    between atoms: C_1  and  C_2
REMARK    2  A    between atoms: C_2  and  C_3
REMARK    3  A    between atoms: C_3  and  C_4
REMARK    4  A    between atoms: C_5  and  C_6
REMARK    5  A    between atoms: C_6  and  O_8
REMARK    6  A    between atoms: O_8  and  C_9
REMARK    7  A    between atoms: C_10  and  C_11
REMARK    8  A    between atoms: C_15  and  O_16
REMARK    9  A    between atoms: C_17  and  O_18
REMARK   10  A    between atoms: C_19  and  C_20
REMARK   11  A    between atoms: C_25  and  C_26
REMARK   12  A    between atoms: C_25  and  C_27
REMARK   13  A    between atoms: C_30  and  C_31
REMARK                            x       y       z     vdW  Elec       q    Type
REMARK                         _______ _______ _______ _____ _____    ______ ____
ROOT
ATOM      1  C   UNL     1      -4.500  12.650  22.375  0.00  0.00    +0.000 C 
ATOM      2  C   UNL     1      -5.044  13.221  23.707  0.00  0.00    +0.000 C 
ATOM      3  C   UNL     1      -4.690  12.358  24.919  0.00  0.00    +0.000 C 
ATOM      4  C   UNL     1      -4.604  14.671  23.922  0.00  0.00    +0.000 C 
ATOM      5  C   UNL     1      -3.097  14.911  23.776  0.00  0.00    +0.000 C 
ATOM      6  O   UNL     1      -2.717  14.422  22.511  0.00  0.00    +0.000 OA
ATOM      7  C   UNL     1      -2.976  13.040  22.188  0.00  0.00    +0.000 C 
ATOM      8  C   UNL     1      -2.410  12.856  20.716  0.00  0.00    +0.000 C 
ATOM      9  C   UNL     1      -0.951  13.406  20.508  0.00  0.00    +0.000 C 
ATOM     10  C   UNL     1       0.055  12.964  21.581  0.00  0.00    +0.000 C 
ATOM     11  C   UNL     1      -0.381  13.223  19.085  0.00  0.00    +0.000 C 
ATOM     12  C   UNL     1       0.001  14.634  18.595  0.00  0.00    +0.000 C 
ATOM     13  C   UNL     1      -0.004  15.451  19.868  0.00  0.00    +0.000 C 
ATOM     14  O   UNL     1      -1.061  14.834  20.608  0.00  0.00    +0.000 OA
ATOM     15  C   UNL     1      -0.274  16.982  19.900  0.00  0.00    +0.000 C 
ATOM     16  C   UNL     1       0.879  17.760  19.258  0.00  0.00    +0.000 C 
ATOM     17  C   UNL     1      -1.581  17.356  19.169  0.00  0.00    +0.000 C 
ATOM     18  C   UNL     1      -0.307  17.272  21.419  0.00  0.00    +0.000 C 
ATOM     19  C   UNL     1      -1.423  17.373  22.165  0.00  0.00    +0.000 C 
ATOM     20  C   UNL     1      -1.526  17.140  23.655  0.00  0.00    +0.000 C 
ATOM     21  C   UNL     1      -0.357  16.453  24.350  0.00  0.00    +0.000 C 
ATOM     22  C   UNL     1      -2.872  16.453  23.972  0.00  0.00    +0.000 C 
ATOM     23  O   UNL     1      -3.787  17.175  24.400  0.00  0.00    +0.000 OA
ENDROOT
BRANCH   7  24
ATOM     24  O   UNL     1      -2.229  12.175  23.061  0.00  0.00    +0.000 OA
ATOM     25  H   UNL     1      -2.557  12.335  23.966  0.00  0.00    +0.000 HD
ENDBRANCH   7  24
BRANCH   8  26
ATOM     26  O   UNL     1      -3.232  13.593  19.785  0.00  0.00    +0.000 OA
ATOM     27  H   UNL     1      -3.555  12.885  19.184  0.00  0.00    +0.000 HD
ENDBRANCH   8  26
BRANCH   1  28
ATOM     28  O   UNL     1      -5.362  13.118  21.309  0.00  0.00    +0.000 OA
BRANCH  28  29
ATOM     29  C   UNL     1      -6.316  12.247  20.839  0.00  0.00    +0.000 C 
ATOM     30  O   UNL     1      -6.746  11.268  21.425  0.00  0.00    +0.000 OA
BRANCH  29  33
ATOM     31  C   UNL     1      -6.359  12.389  18.281  0.00  0.00    +0.000 C 
ATOM     32  C   UNL     1      -5.297  11.359  18.012  0.00  0.00    +0.000 C 
ATOM     33  C   UNL     1      -6.765  12.770  19.514  0.00  0.00    +0.000 C 
BRANCH  31  35
ATOM     34  C   UNL     1      -6.830  14.418  16.773  0.00  0.00    +0.000 C 
ATOM     35  C   UNL     1      -7.091  12.948  17.073  0.00  0.00    +0.000 C 
ENDBRANCH  31  35
ENDBRANCH  29  33
ENDBRANCH  28  29
ENDBRANCH   1  28
TORSDOF 6
ENDMDL
