MODEL 1
REMARK VINA RESULT:      -6.8      0.000      0.000
REMARK  Name = 
REMARK  5 active torsions:
REMARK  status: ('A' for Active; 'I' for Inactive)
REMARK    1  A    between atoms: C_1  and  N_2
REMARK    2  A    between atoms: N_8  and  C_9
REMARK    3  A    between atoms: C_9  and  C_10
REMARK    4  A    between atoms: C_15  and  C_16
REMARK    5  A    between atoms: C_23  and  N_24
REMARK                            x       y       z     vdW  Elec       q    Type
REMARK                         _______ _______ _______ _____ _____    ______ ____
ROOT
ATOM      1  C   UNL     1      -7.305  12.912  19.729  0.00  0.00    +0.000 C 
ATOM      2  N   UNL     1      -6.234  12.294  18.982  0.00  0.00    +0.000 N 
ATOM      3  C   UNL     1      -6.387  11.569  17.823  0.00  0.00    +0.000 A 
ATOM      4  C   UNL     1      -5.138  11.128  17.432  0.00  0.00    +0.000 A 
ATOM      5  C   UNL     1      -4.216  11.602  18.392  0.00  0.00    +0.000 A 
ATOM      6  C   UNL     1      -2.793  11.464  18.552  0.00  0.00    +0.000 A 
ATOM      7  O   UNL     1      -2.114  10.838  17.742  0.00  0.00    +0.000 OA
ATOM      8  N   UNL     1      -2.280  12.102  19.708  0.00  0.00    +0.000 N 
ATOM      9  C   UNL     1      -3.105  12.860  20.584  0.00  0.00    +0.000 A 
ATOM     10  N   UNL     1      -2.598  13.489  21.727  0.00  0.00    +0.000 N 
ATOM     11  C   UNL     1      -1.618  14.583  21.640  0.00  0.00    +0.000 C 
ATOM     12  C   UNL     1      -0.792  14.580  22.932  0.00  0.00    +0.000 C 
ATOM     13  C   UNL     1      -1.673  14.764  24.173  0.00  0.00    +0.000 C 
ATOM     14  C   UNL     1      -2.877  13.809  24.173  0.00  0.00    +0.000 C 
ATOM     15  C   UNL     1      -3.584  13.814  22.801  0.00  0.00    +0.000 C 
ATOM     16  N   UNL     1      -4.404  12.967  20.393  0.00  0.00    +0.000 NA
ATOM     17  C   UNL     1      -4.907  12.330  19.321  0.00  0.00    +0.000 A 
ENDROOT
BRANCH  14  18
ATOM     18  N   UNL     1      -3.791  14.156  25.271  0.00  0.00    +0.000 NA
ATOM     19  H   UNL     1      -3.438  13.789  26.155  0.00  0.00    +0.000 HD
ATOM     20  H   UNL     1      -4.691  13.698  25.121  0.00  0.00    +0.000 HD
ENDBRANCH  14  18
BRANCH   8  21
ATOM     21  C   UNL     1      -0.837  11.934  19.870  0.00  0.00    +0.000 C 
BRANCH  21  22
ATOM     22  C   UNL     1      -0.335  10.882  20.852  0.00  0.00    +0.000 A 
ATOM     23  C   UNL     1      -0.676  10.889  22.212  0.00  0.00    +0.000 A 
ATOM     24  C   UNL     1      -0.206   9.888  23.069  0.00  0.00    +0.000 A 
ATOM     25  C   UNL     1       0.622   8.874  22.591  0.00  0.00    +0.000 A 
ATOM     26  C   UNL     1       0.998   8.864  21.250  0.00  0.00    +0.000 A 
ATOM     27  C   UNL     1       0.527   9.859  20.382  0.00  0.00    +0.000 A 
BRANCH  27  28
ATOM     28  C   UNL     1       0.968   9.823  19.015  0.00  0.00    +0.000 C 
ATOM     29  N   UNL     1       1.364   9.788  17.919  0.00  0.00    +0.000 NA
ENDBRANCH  27  28
ENDBRANCH  21  22
ENDBRANCH   8  21
TORSDOF 4
ENDMDL
MODEL 2
REMARK VINA RESULT:      -6.4      5.154      8.923
REMARK  Name = 
REMARK  5 active torsions:
REMARK  status: ('A' for Active; 'I' for Inactive)
REMARK    1  A    between atoms: C_1  and  N_2
REMARK    2  A    between atoms: N_8  and  C_9
REMARK    3  A    between atoms: C_9  and  C_10
REMARK    4  A    between atoms: C_15  and  C_16
REMARK    5  A    between atoms: C_23  and  N_24
REMARK                            x       y       z     vdW  Elec       q    Type
REMARK                         _______ _______ _______ _____ _____    ______ ____
ROOT
ATOM      1  C   UNL     1       0.227   9.109  22.567  0.00  0.00    +0.000 C 
ATOM      2  N   UNL     1       0.661   9.439  21.230  0.00  0.00    +0.000 N 
ATOM      3  C   UNL     1       0.463  10.647  20.604  0.00  0.00    +0.000 A 
ATOM      4  C   UNL     1       1.000  10.560  19.334  0.00  0.00    +0.000 A 
ATOM      5  C   UNL     1       1.528   9.255  19.201  0.00  0.00    +0.000 A 
ATOM      6  C   UNL     1       2.186   8.557  18.129  0.00  0.00    +0.000 A 
ATOM      7  O   UNL     1       2.412   9.103  17.052  0.00  0.00    +0.000 OA
ATOM      8  N   UNL     1       2.527   7.218  18.439  0.00  0.00    +0.000 N 
ATOM      9  C   UNL     1       2.289   6.653  19.723  0.00  0.00    +0.000 A 
ATOM     10  N   UNL     1       2.626   5.330  20.029  0.00  0.00    +0.000 N 
ATOM     11  C   UNL     1       4.023   4.866  20.040  0.00  0.00    +0.000 C 
ATOM     12  C   UNL     1       4.024   3.366  19.729  0.00  0.00    +0.000 C 
ATOM     13  C   UNL     1       3.200   2.571  20.749  0.00  0.00    +0.000 C 
ATOM     14  C   UNL     1       1.809   3.184  20.972  0.00  0.00    +0.000 C 
ATOM     15  C   UNL     1       1.906   4.710  21.182  0.00  0.00    +0.000 C 
ATOM     16  N   UNL     1       1.691   7.334  20.679  0.00  0.00    +0.000 NA
ATOM     17  C   UNL     1       1.325   8.593  20.380  0.00  0.00    +0.000 A 
ENDROOT
BRANCH  14  18
ATOM     18  N   UNL     1       1.137   2.510  22.093  0.00  0.00    +0.000 NA
ATOM     19  H   UNL     1       1.403   2.943  22.977  0.00  0.00    +0.000 HD
ATOM     20  H   UNL     1       1.460   1.543  22.150  0.00  0.00    +0.000 HD
ENDBRANCH  14  18
BRANCH   8  21
ATOM     21  C   UNL     1       3.174   6.514  17.333  0.00  0.00    +0.000 C 
BRANCH  21  22
ATOM     22  C   UNL     1       4.696   6.510  17.270  0.00  0.00    +0.000 A 
ATOM     23  C   UNL     1       5.472   7.637  17.573  0.00  0.00    +0.000 A 
ATOM     24  C   UNL     1       6.869   7.576  17.520  0.00  0.00    +0.000 A 
ATOM     25  C   UNL     1       7.515   6.399  17.149  0.00  0.00    +0.000 A 
ATOM     26  C   UNL     1       6.764   5.275  16.815  0.00  0.00    +0.000 A 
ATOM     27  C   UNL     1       5.365   5.324  16.871  0.00  0.00    +0.000 A 
BRANCH  27  28
ATOM     28  C   UNL     1       4.634   4.148  16.486  0.00  0.00    +0.000 C 
ATOM     29  N   UNL     1       4.066   3.172  16.197  0.00  0.00    +0.000 NA
ENDBRANCH  27  28
ENDBRANCH  21  22
ENDBRANCH   8  21
TORSDOF 4
ENDMDL
MODEL 3
REMARK VINA RESULT:      -6.1      2.625      4.855
REMARK  Name = 
REMARK  5 active torsions:
REMARK  status: ('A' for Active; 'I' for Inactive)
REMARK    1  A    between atoms: C_1  and  N_2
REMARK    2  A    between atoms: N_8  and  C_9
REMARK    3  A    between atoms: C_9  and  C_10
REMARK    4  A    between atoms: C_15  and  C_16
REMARK    5  A    between atoms: C_23  and  N_24
REMARK                            x       y       z     vdW  Elec       q    Type
REMARK                         _______ _______ _______ _____ _____    ______ ____
ROOT
ATOM      1  C   UNL     1      -0.553  18.540  20.848  0.00  0.00    +0.000 C 
ATOM      2  N   UNL     1       0.100  17.530  20.048  0.00  0.00    +0.000 N 
ATOM      3  C   UNL     1       0.990  17.775  19.028  0.00  0.00    +0.000 A 
ATOM      4  C   UNL     1       1.370  16.557  18.497  0.00  0.00    +0.000 A 
ATOM      5  C   UNL     1       0.680  15.560  19.222  0.00  0.00    +0.000 A 
ATOM      6  C   UNL     1       0.636  14.124  19.137  0.00  0.00    +0.000 A 
ATOM      7  O   UNL     1       1.306  13.510  18.312  0.00  0.00    +0.000 OA
ATOM      8  N   UNL     1      -0.239  13.520  20.073  0.00  0.00    +0.000 N 
ATOM      9  C   UNL     1      -0.951  14.277  21.044  0.00  0.00    +0.000 A 
ATOM     10  N   UNL     1      -1.816  13.680  21.968  0.00  0.00    +0.000 N 
ATOM     11  C   UNL     1      -1.328  12.746  22.997  0.00  0.00    +0.000 C 
ATOM     12  C   UNL     1      -2.477  11.797  23.355  0.00  0.00    +0.000 C 
ATOM     13  C   UNL     1      -3.703  12.557  23.876  0.00  0.00    +0.000 C 
ATOM     14  C   UNL     1      -4.092  13.726  22.957  0.00  0.00    +0.000 C 
ATOM     15  C   UNL     1      -2.853  14.564  22.578  0.00  0.00    +0.000 C 
ATOM     16  N   UNL     1      -0.872  15.591  21.091  0.00  0.00    +0.000 NA
ATOM     17  C   UNL     1      -0.077  16.178  20.179  0.00  0.00    +0.000 A 
ENDROOT
BRANCH  14  18
ATOM     18  N   UNL     1      -5.140  14.537  23.594  0.00  0.00    +0.000 NA
ATOM     19  H   UNL     1      -5.048  14.500  24.609  0.00  0.00    +0.000 HD
ATOM     20  H   UNL     1      -6.054  14.136  23.384  0.00  0.00    +0.000 HD
ENDBRANCH  14  18
BRANCH   8  21
ATOM     21  C   UNL     1      -0.291  12.063  19.960  0.00  0.00    +0.000 C 
BRANCH  21  22
ATOM     22  C   UNL     1      -1.314  11.446  19.015  0.00  0.00    +0.000 A 
ATOM     23  C   UNL     1      -2.658  11.844  18.986  0.00  0.00    +0.000 A 
ATOM     24  C   UNL     1      -3.554  11.260  18.084  0.00  0.00    +0.000 A 
ATOM     25  C   UNL     1      -3.132  10.262  17.208  0.00  0.00    +0.000 A 
ATOM     26  C   UNL     1      -1.809   9.829  17.240  0.00  0.00    +0.000 A 
ATOM     27  C   UNL     1      -0.902  10.412  18.136  0.00  0.00    +0.000 A 
BRANCH  27  28
ATOM     28  C   UNL     1       0.445   9.910  18.152  0.00  0.00    +0.000 C 
ATOM     29  N   UNL     1       1.550   9.541  18.166  0.00  0.00    +0.000 NA
ENDBRANCH  27  28
ENDBRANCH  21  22
ENDBRANCH   8  21
TORSDOF 4
ENDMDL
MODEL 4
REMARK VINA RESULT:      -6.0      5.736      9.397
REMARK  Name = 
REMARK  5 active torsions:
REMARK  status: ('A' for Active; 'I' for Inactive)
REMARK    1  A    between atoms: C_1  and  N_2
REMARK    2  A    between atoms: N_8  and  C_9
REMARK    3  A    between atoms: C_9  and  C_10
REMARK    4  A    between atoms: C_15  and  C_16
REMARK    5  A    between atoms: C_23  and  N_24
REMARK                            x       y       z     vdW  Elec       q    Type
REMARK                         _______ _______ _______ _____ _____    ______ ____
ROOT
ATOM      1  C   UNL     1       0.254   8.965  21.704  0.00  0.00    +0.000 C 
ATOM      2  N   UNL     1       0.900   9.094  20.419  0.00  0.00    +0.000 N 
ATOM      3  C   UNL     1       0.871  10.214  19.623  0.00  0.00    +0.000 A 
ATOM      4  C   UNL     1       1.583   9.935  18.472  0.00  0.00    +0.000 A 
ATOM      5  C   UNL     1       2.044   8.604  18.588  0.00  0.00    +0.000 A 
ATOM      6  C   UNL     1       2.809   7.741  17.728  0.00  0.00    +0.000 A 
ATOM      7  O   UNL     1       3.224   8.127  16.638  0.00  0.00    +0.000 OA
ATOM      8  N   UNL     1       3.019   6.443  18.254  0.00  0.00    +0.000 N 
ATOM      9  C   UNL     1       2.561   6.067  19.547  0.00  0.00    +0.000 A 
ATOM     10  N   UNL     1       2.767   4.783  20.067  0.00  0.00    +0.000 N 
ATOM     11  C   UNL     1       4.116   4.269  20.352  0.00  0.00    +0.000 C 
ATOM     12  C   UNL     1       4.072   2.741  20.238  0.00  0.00    +0.000 C 
ATOM     13  C   UNL     1       3.060   2.125  21.211  0.00  0.00    +0.000 C 
ATOM     14  C   UNL     1       1.691   2.819  21.137  0.00  0.00    +0.000 C 
ATOM     15  C   UNL     1       1.849   4.354  21.164  0.00  0.00    +0.000 C 
ATOM     16  N   UNL     1       1.871   6.894  20.305  0.00  0.00    +0.000 NA
ATOM     17  C   UNL     1       1.630   8.115  19.797  0.00  0.00    +0.000 A 
ENDROOT
BRANCH  14  18
ATOM     18  N   UNL     1       0.822   2.330  22.217  0.00  0.00    +0.000 NA
ATOM     19  H   UNL     1       1.084   1.380  22.480  0.00  0.00    +0.000 HD
ATOM     20  H   UNL     1      -0.139   2.269  21.878  0.00  0.00    +0.000 HD
ENDBRANCH  14  18
BRANCH   8  21
ATOM     21  C   UNL     1       3.778   5.571  17.360  0.00  0.00    +0.000 C 
BRANCH  21  22
ATOM     22  C   UNL     1       5.269   5.391  17.617  0.00  0.00    +0.000 A 
ATOM     23  C   UNL     1       5.892   5.817  18.799  0.00  0.00    +0.000 A 
ATOM     24  C   UNL     1       7.262   5.609  18.996  0.00  0.00    +0.000 A 
ATOM     25  C   UNL     1       8.036   4.991  18.015  0.00  0.00    +0.000 A 
ATOM     26  C   UNL     1       7.444   4.587  16.821  0.00  0.00    +0.000 A 
ATOM     27  C   UNL     1       6.071   4.785  16.617  0.00  0.00    +0.000 A 
BRANCH  27  28
ATOM     28  C   UNL     1       5.513   4.379  15.356  0.00  0.00    +0.000 C 
ATOM     29  N   UNL     1       5.096   4.058  14.316  0.00  0.00    +0.000 NA
ENDBRANCH  27  28
ENDBRANCH  21  22
ENDBRANCH   8  21
TORSDOF 4
ENDMDL
MODEL 5
REMARK VINA RESULT:      -6.0      2.009      2.906
REMARK  Name = 
REMARK  5 active torsions:
REMARK  status: ('A' for Active; 'I' for Inactive)
REMARK    1  A    between atoms: C_1  and  N_2
REMARK    2  A    between atoms: N_8  and  C_9
REMARK    3  A    between atoms: C_9  and  C_10
REMARK    4  A    between atoms: C_15  and  C_16
REMARK    5  A    between atoms: C_23  and  N_24
REMARK                            x       y       z     vdW  Elec       q    Type
REMARK                         _______ _______ _______ _____ _____    ______ ____
ROOT
ATOM      1  C   UNL     1      -7.234  13.363  24.187  0.00  0.00    +0.000 C 
ATOM      2  N   UNL     1      -7.024  12.773  22.886  0.00  0.00    +0.000 N 
ATOM      3  C   UNL     1      -7.916  11.960  22.227  0.00  0.00    +0.000 A 
ATOM      4  C   UNL     1      -7.342  11.582  21.029  0.00  0.00    +0.000 A 
ATOM      5  C   UNL     1      -6.065  12.188  20.978  0.00  0.00    +0.000 A 
ATOM      6  C   UNL     1      -4.995  12.164  20.017  0.00  0.00    +0.000 A 
ATOM      7  O   UNL     1      -5.089  11.533  18.967  0.00  0.00    +0.000 OA
ATOM      8  N   UNL     1      -3.859  12.916  20.404  0.00  0.00    +0.000 N 
ATOM      9  C   UNL     1      -3.824  13.672  21.608  0.00  0.00    +0.000 A 
ATOM     10  N   UNL     1      -2.701  14.414  21.991  0.00  0.00    +0.000 N 
ATOM     11  C   UNL     1      -2.229  15.567  21.207  0.00  0.00    +0.000 C 
ATOM     12  C   UNL     1      -0.721  15.713  21.444  0.00  0.00    +0.000 C 
ATOM     13  C   UNL     1      -0.395  15.919  22.928  0.00  0.00    +0.000 C 
ATOM     14  C   UNL     1      -1.093  14.883  23.823  0.00  0.00    +0.000 C 
ATOM     15  C   UNL     1      -2.582  14.742  23.443  0.00  0.00    +0.000 C 
ATOM     16  N   UNL     1      -4.833  13.671  22.455  0.00  0.00    +0.000 NA
ATOM     17  C   UNL     1      -5.900  12.927  22.117  0.00  0.00    +0.000 A 
ENDROOT
BRANCH  14  18
ATOM     18  N   UNL     1      -0.910  15.238  25.238  0.00  0.00    +0.000 NA
ATOM     19  H   UNL     1      -0.708  14.404  25.789  0.00  0.00    +0.000 HD
ATOM     20  H   UNL     1      -1.785  15.610  25.609  0.00  0.00    +0.000 HD
ENDBRANCH  14  18
BRANCH   8  21
ATOM     21  C   UNL     1      -2.770  12.864  19.429  0.00  0.00    +0.000 C 
BRANCH  21  22
ATOM     22  C   UNL     1      -1.674  11.823  19.621  0.00  0.00    +0.000 A 
ATOM     23  C   UNL     1      -0.934  11.710  20.806  0.00  0.00    +0.000 A 
ATOM     24  C   UNL     1       0.049  10.723  20.941  0.00  0.00    +0.000 A 
ATOM     25  C   UNL     1       0.321   9.843  19.895  0.00  0.00    +0.000 A 
ATOM     26  C   UNL     1      -0.381   9.956  18.698  0.00  0.00    +0.000 A 
ATOM     27  C   UNL     1      -1.372  10.938  18.555  0.00  0.00    +0.000 A 
BRANCH  27  28
ATOM     28  C   UNL     1      -2.047  11.034  17.290  0.00  0.00    +0.000 C 
ATOM     29  N   UNL     1      -2.581  11.075  16.255  0.00  0.00    +0.000 NA
ENDBRANCH  27  28
ENDBRANCH  21  22
ENDBRANCH   8  21
TORSDOF 4
ENDMDL
MODEL 6
REMARK VINA RESULT:      -5.9      1.923      2.948
REMARK  Name = 
REMARK  5 active torsions:
REMARK  status: ('A' for Active; 'I' for Inactive)
REMARK    1  A    between atoms: C_1  and  N_2
REMARK    2  A    between atoms: N_8  and  C_9
REMARK    3  A    between atoms: C_9  and  C_10
REMARK    4  A    between atoms: C_15  and  C_16
REMARK    5  A    between atoms: C_23  and  N_24
REMARK                            x       y       z     vdW  Elec       q    Type
REMARK                         _______ _______ _______ _____ _____    ______ ____
ROOT
ATOM      1  C   UNL     1      -5.374  12.861  19.646  0.00  0.00    +0.000 C 
ATOM      2  N   UNL     1      -4.561  11.925  18.906  0.00  0.00    +0.000 N 
ATOM      3  C   UNL     1      -5.039  10.926  18.090  0.00  0.00    +0.000 A 
ATOM      4  C   UNL     1      -3.955  10.235  17.584  0.00  0.00    +0.000 A 
ATOM      5  C   UNL     1      -2.796  10.841  18.122  0.00  0.00    +0.000 A 
ATOM      6  C   UNL     1      -1.389  10.573  17.996  0.00  0.00    +0.000 A 
ATOM      7  O   UNL     1      -0.970   9.661  17.287  0.00  0.00    +0.000 OA
ATOM      8  N   UNL     1      -0.568  11.441  18.756  0.00  0.00    +0.000 N 
ATOM      9  C   UNL     1      -1.103  12.516  19.519  0.00  0.00    +0.000 A 
ATOM     10  N   UNL     1      -0.292  13.374  20.271  0.00  0.00    +0.000 N 
ATOM     11  C   UNL     1       0.695  14.263  19.637  0.00  0.00    +0.000 C 
ATOM     12  C   UNL     1       1.816  14.521  20.649  0.00  0.00    +0.000 C 
ATOM     13  C   UNL     1       1.286  15.160  21.938  0.00  0.00    +0.000 C 
ATOM     14  C   UNL     1       0.069  14.408  22.499  0.00  0.00    +0.000 C 
ATOM     15  C   UNL     1      -0.958  14.114  21.384  0.00  0.00    +0.000 C 
ATOM     16  N   UNL     1      -2.401  12.730  19.598  0.00  0.00    +0.000 NA
ATOM     17  C   UNL     1      -3.191  11.884  18.913  0.00  0.00    +0.000 A 
ENDROOT
BRANCH  14  18
ATOM     18  N   UNL     1      -0.520  15.165  23.612  0.00  0.00    +0.000 NA
ATOM     19  H   UNL     1      -1.096  15.927  23.256  0.00  0.00    +0.000 HD
ATOM     20  H   UNL     1       0.224  15.609  24.151  0.00  0.00    +0.000 HD
ENDBRANCH  14  18
BRANCH   8  21
ATOM     21  C   UNL     1       0.858  11.143  18.636  0.00  0.00    +0.000 C 
BRANCH  21  22
ATOM     22  C   UNL     1       1.329   9.724  18.929  0.00  0.00    +0.000 A 
ATOM     23  C   UNL     1       1.839   8.874  17.937  0.00  0.00    +0.000 A 
ATOM     24  C   UNL     1       2.279   7.585  18.261  0.00  0.00    +0.000 A 
ATOM     25  C   UNL     1       2.203   7.117  19.571  0.00  0.00    +0.000 A 
ATOM     26  C   UNL     1       1.672   7.933  20.567  0.00  0.00    +0.000 A 
ATOM     27  C   UNL     1       1.235   9.227  20.254  0.00  0.00    +0.000 A 
BRANCH  27  28
ATOM     28  C   UNL     1       0.666  10.019  21.310  0.00  0.00    +0.000 C 
ATOM     29  N   UNL     1       0.242  10.666  22.182  0.00  0.00    +0.000 NA
ENDBRANCH  27  28
ENDBRANCH  21  22
ENDBRANCH   8  21
TORSDOF 4
ENDMDL
MODEL 7
REMARK VINA RESULT:      -5.9      3.000      5.609
REMARK  Name = 
REMARK  5 active torsions:
REMARK  status: ('A' for Active; 'I' for Inactive)
REMARK    1  A    between atoms: C_1  and  N_2
REMARK    2  A    between atoms: N_8  and  C_9
REMARK    3  A    between atoms: C_9  and  C_10
REMARK    4  A    between atoms: C_15  and  C_16
REMARK    5  A    between atoms: C_23  and  N_24
REMARK                            x       y       z     vdW  Elec       q    Type
REMARK                         _______ _______ _______ _____ _____    ______ ____
ROOT
ATOM      1  C   UNL     1       0.077  17.179  25.086  0.00  0.00    +0.000 C 
ATOM      2  N   UNL     1      -0.949  16.171  24.952  0.00  0.00    +0.000 N 
ATOM      3  C   UNL     1      -2.022  16.010  25.797  0.00  0.00    +0.000 A 
ATOM      4  C   UNL     1      -2.757  14.930  25.348  0.00  0.00    +0.000 A 
ATOM      5  C   UNL     1      -2.095  14.432  24.202  0.00  0.00    +0.000 A 
ATOM      6  C   UNL     1      -2.349  13.332  23.311  0.00  0.00    +0.000 A 
ATOM      7  O   UNL     1      -3.323  12.599  23.458  0.00  0.00    +0.000 OA
ATOM      8  N   UNL     1      -1.382  13.187  22.286  0.00  0.00    +0.000 N 
ATOM      9  C   UNL     1      -0.300  14.098  22.130  0.00  0.00    +0.000 A 
ATOM     10  N   UNL     1       0.655  13.955  21.118  0.00  0.00    +0.000 N 
ATOM     11  C   UNL     1       0.301  14.070  19.694  0.00  0.00    +0.000 C 
ATOM     12  C   UNL     1       1.303  13.235  18.890  0.00  0.00    +0.000 C 
ATOM     13  C   UNL     1       2.746  13.706  19.111  0.00  0.00    +0.000 C 
ATOM     14  C   UNL     1       3.082  13.859  20.603  0.00  0.00    +0.000 C 
ATOM     15  C   UNL     1       1.968  14.631  21.341  0.00  0.00    +0.000 C 
ATOM     16  N   UNL     1      -0.113  15.099  22.966  0.00  0.00    +0.000 NA
ATOM     17  C   UNL     1      -1.002  15.220  23.967  0.00  0.00    +0.000 A 
ENDROOT
BRANCH  14  18
ATOM     18  N   UNL     1       4.398  14.496  20.758  0.00  0.00    +0.000 NA
ATOM     19  H   UNL     1       4.513  14.842  21.710  0.00  0.00    +0.000 HD
ATOM     20  H   UNL     1       4.450  15.317  20.155  0.00  0.00    +0.000 HD
ENDBRANCH  14  18
BRANCH   8  21
ATOM     21  C   UNL     1      -1.639  12.051  21.403  0.00  0.00    +0.000 C 
BRANCH  21  22
ATOM     22  C   UNL     1      -0.699  10.854  21.469  0.00  0.00    +0.000 A 
ATOM     23  C   UNL     1      -0.098  10.426  22.662  0.00  0.00    +0.000 A 
ATOM     24  C   UNL     1       0.742   9.307  22.674  0.00  0.00    +0.000 A 
ATOM     25  C   UNL     1       1.008   8.605  21.500  0.00  0.00    +0.000 A 
ATOM     26  C   UNL     1       0.446   9.029  20.299  0.00  0.00    +0.000 A 
ATOM     27  C   UNL     1      -0.402  10.146  20.277  0.00  0.00    +0.000 A 
BRANCH  27  28
ATOM     28  C   UNL     1      -0.933  10.562  19.008  0.00  0.00    +0.000 C 
ATOM     29  N   UNL     1      -1.328  10.918  17.971  0.00  0.00    +0.000 NA
ENDBRANCH  27  28
ENDBRANCH  21  22
ENDBRANCH   8  21
TORSDOF 4
ENDMDL
MODEL 8
REMARK VINA RESULT:      -5.8      1.080      1.989
REMARK  Name = 
REMARK  5 active torsions:
REMARK  status: ('A' for Active; 'I' for Inactive)
REMARK    1  A    between atoms: C_1  and  N_2
REMARK    2  A    between atoms: N_8  and  C_9
REMARK    3  A    between atoms: C_9  and  C_10
REMARK    4  A    between atoms: C_15  and  C_16
REMARK    5  A    between atoms: C_23  and  N_24
REMARK                            x       y       z     vdW  Elec       q    Type
REMARK                         _______ _______ _______ _____ _____    ______ ____
ROOT
ATOM      1  C   UNL     1      -6.555  12.495  18.934  0.00  0.00    +0.000 C 
ATOM      2  N   UNL     1      -5.370  11.934  18.330  0.00  0.00    +0.000 N 
ATOM      3  C   UNL     1      -5.338  11.208  17.162  0.00  0.00    +0.000 A 
ATOM      4  C   UNL     1      -4.029  10.830  16.933  0.00  0.00    +0.000 A 
ATOM      5  C   UNL     1      -3.261  11.345  18.001  0.00  0.00    +0.000 A 
ATOM      6  C   UNL     1      -1.865  11.277  18.341  0.00  0.00    +0.000 A 
ATOM      7  O   UNL     1      -1.058  10.689  17.624  0.00  0.00    +0.000 OA
ATOM      8  N   UNL     1      -1.534  11.934  19.551  0.00  0.00    +0.000 N 
ATOM      9  C   UNL     1      -2.500  12.647  20.314  0.00  0.00    +0.000 A 
ATOM     10  N   UNL     1      -2.174  13.296  21.511  0.00  0.00    +0.000 N 
ATOM     11  C   UNL     1      -1.246  14.437  21.547  0.00  0.00    +0.000 C 
ATOM     12  C   UNL     1      -0.591  14.469  22.932  0.00  0.00    +0.000 C 
ATOM     13  C   UNL     1      -1.631  14.603  24.052  0.00  0.00    +0.000 C 
ATOM     14  C   UNL     1      -2.776  13.590  23.901  0.00  0.00    +0.000 C 
ATOM     15  C   UNL     1      -3.303  13.567  22.451  0.00  0.00    +0.000 C 
ATOM     16  N   UNL     1      -3.768  12.690  19.960  0.00  0.00    +0.000 NA
ATOM     17  C   UNL     1      -4.099  12.034  18.834  0.00  0.00    +0.000 A 
ENDROOT
BRANCH  14  18
ATOM     18  N   UNL     1      -3.838  13.886  24.874  0.00  0.00    +0.000 NA
ATOM     19  H   UNL     1      -3.631  14.752  25.372  0.00  0.00    +0.000 HD
ATOM     20  H   UNL     1      -3.858  13.155  25.586  0.00  0.00    +0.000 HD
ENDBRANCH  14  18
BRANCH   8  21
ATOM     21  C   UNL     1      -0.117  11.838  19.895  0.00  0.00    +0.000 C 
BRANCH  21  22
ATOM     22  C   UNL     1       0.500  10.453  20.044  0.00  0.00    +0.000 A 
ATOM     23  C   UNL     1       1.172   9.804  18.998  0.00  0.00    +0.000 A 
ATOM     24  C   UNL     1       1.740   8.540  19.192  0.00  0.00    +0.000 A 
ATOM     25  C   UNL     1       1.635   7.895  20.423  0.00  0.00    +0.000 A 
ATOM     26  C   UNL     1       0.946   8.507  21.467  0.00  0.00    +0.000 A 
ATOM     27  C   UNL     1       0.379   9.776  21.285  0.00  0.00    +0.000 A 
BRANCH  27  28
ATOM     28  C   UNL     1      -0.348  10.352  22.382  0.00  0.00    +0.000 C 
ATOM     29  N   UNL     1      -0.913  10.800  23.298  0.00  0.00    +0.000 NA
ENDBRANCH  27  28
ENDBRANCH  21  22
ENDBRANCH   8  21
TORSDOF 4
ENDMDL
MODEL 9
REMARK VINA RESULT:      -5.8      8.273     10.011
REMARK  Name = 
REMARK  5 active torsions:
REMARK  status: ('A' for Active; 'I' for Inactive)
REMARK    1  A    between atoms: C_1  and  N_2
REMARK    2  A    between atoms: N_8  and  C_9
REMARK    3  A    between atoms: C_9  and  C_10
REMARK    4  A    between atoms: C_15  and  C_16
REMARK    5  A    between atoms: C_23  and  N_24
REMARK                            x       y       z     vdW  Elec       q    Type
REMARK                         _______ _______ _______ _____ _____    ______ ____
ROOT
ATOM      1  C   UNL     1       2.014  14.624  20.583  0.00  0.00    +0.000 C 
ATOM      2  N   UNL     1       3.070  15.014  19.678  0.00  0.00    +0.000 N 
ATOM      3  C   UNL     1       2.887  15.513  18.409  0.00  0.00    +0.000 A 
ATOM      4  C   UNL     1       4.134  15.741  17.860  0.00  0.00    +0.000 A 
ATOM      5  C   UNL     1       5.086  15.360  18.833  0.00  0.00    +0.000 A 
ATOM      6  C   UNL     1       6.524  15.341  18.856  0.00  0.00    +0.000 A 
ATOM      7  O   UNL     1       7.187  15.725  17.897  0.00  0.00    +0.000 OA
ATOM      8  N   UNL     1       7.072  14.841  20.063  0.00  0.00    +0.000 N 
ATOM      9  C   UNL     1       6.257  14.460  21.165  0.00  0.00    +0.000 A 
ATOM     10  N   UNL     1       6.799  13.966  22.357  0.00  0.00    +0.000 N 
ATOM     11  C   UNL     1       7.651  14.794  23.225  0.00  0.00    +0.000 C 
ATOM     12  C   UNL     1       8.587  13.859  23.999  0.00  0.00    +0.000 C 
ATOM     13  C   UNL     1       7.807  12.845  24.845  0.00  0.00    +0.000 C 
ATOM     14  C   UNL     1       6.711  12.137  24.034  0.00  0.00    +0.000 C 
ATOM     15  C   UNL     1       5.886  13.154  23.217  0.00  0.00    +0.000 C 
ATOM     16  N   UNL     1       4.942  14.503  21.101  0.00  0.00    +0.000 NA
ATOM     17  C   UNL     1       4.411  14.936  19.944  0.00  0.00    +0.000 A 
ENDROOT
BRANCH  14  18
ATOM     18  N   UNL     1       5.870  11.328  24.927  0.00  0.00    +0.000 NA
ATOM     19  H   UNL     1       5.141  10.854  24.394  0.00  0.00    +0.000 HD
ATOM     20  H   UNL     1       5.381  11.941  25.580  0.00  0.00    +0.000 HD
ENDBRANCH  14  18
BRANCH   8  21
ATOM     21  C   UNL     1       8.533  14.806  20.065  0.00  0.00    +0.000 C 
BRANCH  21  22
ATOM     22  C   UNL     1       9.227  13.504  19.684  0.00  0.00    +0.000 A 
ATOM     23  C   UNL     1       9.050  12.311  20.400  0.00  0.00    +0.000 A 
ATOM     24  C   UNL     1       9.694  11.136  19.997  0.00  0.00    +0.000 A 
ATOM     25  C   UNL     1      10.535  11.131  18.886  0.00  0.00    +0.000 A 
ATOM     26  C   UNL     1      10.749  12.311  18.177  0.00  0.00    +0.000 A 
ATOM     27  C   UNL     1      10.104  13.492  18.569  0.00  0.00    +0.000 A 
BRANCH  27  28
ATOM     28  C   UNL     1      10.381  14.689  17.824  0.00  0.00    +0.000 C 
ATOM     29  N   UNL     1      10.632  15.640  17.198  0.00  0.00    +0.000 NA
ENDBRANCH  27  28
ENDBRANCH  21  22
ENDBRANCH   8  21
TORSDOF 4
ENDMDL
