MODEL 1
REMARK VINA RESULT:      -7.3      0.000      0.000
REMARK  Name = 
REMARK  5 active torsions:
REMARK  status: ('A' for Active; 'I' for Inactive)
REMARK    1  A    between atoms: C_1  and  N_2
REMARK    2  A    between atoms: C_8  and  O_9
REMARK    3  A    between atoms: O_9  and  C_10
REMARK    4  A    between atoms: N_17  and  C_18
REMARK    5  A    between atoms: N_19  and  C_20
REMARK                            x       y       z     vdW  Elec       q    Type
REMARK                         _______ _______ _______ _____ _____    ______ ____
ROOT
ATOM      1  C   UNL     1      -1.860  12.994  20.018  0.00  0.00    +0.000 C 
ATOM      2  N   UNL     1      -1.103  11.813  20.387  0.00  0.00    +0.000 N 
ATOM      3  C   UNL     1      -0.321  11.196  19.408  0.00  0.00    +0.000 A 
ATOM      4  O   UNL     1      -0.212  11.615  18.259  0.00  0.00    +0.000 OA
ATOM      5  C   UNL     1       0.358  10.024  19.881  0.00  0.00    +0.000 A 
ATOM      6  C   UNL     1       0.279   9.587  21.176  0.00  0.00    +0.000 A 
ATOM      7  C   UNL     1       1.088   8.444  21.297  0.00  0.00    +0.000 A 
ATOM      8  C   UNL     1       1.693   8.217  20.071  0.00  0.00    +0.000 A 
ATOM      9  N   UNL     1       1.165   9.145  19.189  0.00  0.00    +0.000 N 
ATOM     10  C   UNL     1       1.411   9.219  17.765  0.00  0.00    +0.000 C 
ATOM     11  N   UNL     1      -0.494  10.259  22.106  0.00  0.00    +0.000 N 
ATOM     12  C   UNL     1      -0.608   9.832  23.487  0.00  0.00    +0.000 C 
ATOM     13  C   UNL     1      -1.215  11.398  21.719  0.00  0.00    +0.000 A 
ATOM     14  O   UNL     1      -1.922  12.011  22.530  0.00  0.00    +0.000 OA
ENDROOT
BRANCH   8  15
ATOM     15  O   UNL     1       2.594   7.304  19.682  0.00  0.00    +0.000 OA
BRANCH  15  16
ATOM     16  C   UNL     1       2.224   5.987  19.470  0.00  0.00    +0.000 A 
ATOM     17  C   UNL     1       2.156   5.534  18.152  0.00  0.00    +0.000 A 
ATOM     18  C   UNL     1       1.868   4.190  17.883  0.00  0.00    +0.000 A 
ATOM     19  C   UNL     1       1.654   3.296  18.932  0.00  0.00    +0.000 A 
ATOM     20  C   UNL     1       1.716   3.753  20.248  0.00  0.00    +0.000 A 
ATOM     21 CL   UNL     1       1.453   2.655  21.547  0.00  0.00    +0.000 Cl
ATOM     22  C   UNL     1       2.005   5.090  20.520  0.00  0.00    +0.000 A 
ENDBRANCH  15  16
ENDBRANCH   8  15
TORSDOF 2
ENDMDL
MODEL 2
REMARK VINA RESULT:      -7.1      5.387      8.009
REMARK  Name = 
REMARK  5 active torsions:
REMARK  status: ('A' for Active; 'I' for Inactive)
REMARK    1  A    between atoms: C_1  and  N_2
REMARK    2  A    between atoms: C_8  and  O_9
REMARK    3  A    between atoms: O_9  and  C_10
REMARK    4  A    between atoms: N_17  and  C_18
REMARK    5  A    between atoms: N_19  and  C_20
REMARK                            x       y       z     vdW  Elec       q    Type
REMARK                         _______ _______ _______ _____ _____    ______ ____
ROOT
ATOM      1  C   UNL     1       1.068   4.998  20.235  0.00  0.00    +0.000 C 
ATOM      2  N   UNL     1       2.160   4.546  19.394  0.00  0.00    +0.000 N 
ATOM      3  C   UNL     1       2.959   5.509  18.773  0.00  0.00    +0.000 A 
ATOM      4  O   UNL     1       2.809   6.718  18.923  0.00  0.00    +0.000 OA
ATOM      5  C   UNL     1       3.987   4.944  17.946  0.00  0.00    +0.000 A 
ATOM      6  C   UNL     1       4.187   3.596  17.820  0.00  0.00    +0.000 A 
ATOM      7  C   UNL     1       5.289   3.399  16.970  0.00  0.00    +0.000 A 
ATOM      8  C   UNL     1       5.781   4.645  16.615  0.00  0.00    +0.000 A 
ATOM      9  N   UNL     1       4.916   5.583  17.153  0.00  0.00    +0.000 N 
ATOM     10  C   UNL     1       4.960   7.015  16.946  0.00  0.00    +0.000 C 
ATOM     11  N   UNL     1       3.375   2.693  18.484  0.00  0.00    +0.000 N 
ATOM     12  C   UNL     1       3.550   1.257  18.379  0.00  0.00    +0.000 C 
ATOM     13  C   UNL     1       2.327   3.160  19.290  0.00  0.00    +0.000 A 
ATOM     14  O   UNL     1       1.581   2.372  19.886  0.00  0.00    +0.000 OA
ENDROOT
BRANCH   8  15
ATOM     15  O   UNL     1       6.846   5.002  15.882  0.00  0.00    +0.000 OA
BRANCH  15  16
ATOM     16  C   UNL     1       6.868   4.793  14.514  0.00  0.00    +0.000 A 
ATOM     17  C   UNL     1       7.782   5.529  13.759  0.00  0.00    +0.000 A 
ATOM     18  C   UNL     1       7.906   5.300  12.382  0.00  0.00    +0.000 A 
ATOM     19  C   UNL     1       7.120   4.329  11.762  0.00  0.00    +0.000 A 
ATOM     20  C   UNL     1       6.204   3.599  12.518  0.00  0.00    +0.000 A 
ATOM     21 CL   UNL     1       5.232   2.399  11.758  0.00  0.00    +0.000 Cl
ATOM     22  C   UNL     1       6.080   3.823  13.889  0.00  0.00    +0.000 A 
ENDBRANCH  15  16
ENDBRANCH   8  15
TORSDOF 2
ENDMDL
MODEL 3
REMARK VINA RESULT:      -7.0      1.096      1.452
REMARK  Name = 
REMARK  5 active torsions:
REMARK  status: ('A' for Active; 'I' for Inactive)
REMARK    1  A    between atoms: C_1  and  N_2
REMARK    2  A    between atoms: C_8  and  O_9
REMARK    3  A    between atoms: O_9  and  C_10
REMARK    4  A    between atoms: N_17  and  C_18
REMARK    5  A    between atoms: N_19  and  C_20
REMARK                            x       y       z     vdW  Elec       q    Type
REMARK                         _______ _______ _______ _____ _____    ______ ____
ROOT
ATOM      1  C   UNL     1      -1.426  12.843  19.950  0.00  0.00    +0.000 C 
ATOM      2  N   UNL     1      -0.727  11.631  20.335  0.00  0.00    +0.000 N 
ATOM      3  C   UNL     1       0.034  10.971  19.368  0.00  0.00    +0.000 A 
ATOM      4  O   UNL     1       0.172  11.375  18.216  0.00  0.00    +0.000 OA
ATOM      5  C   UNL     1       0.654   9.772  19.856  0.00  0.00    +0.000 A 
ATOM      6  C   UNL     1       0.543   9.350  21.153  0.00  0.00    +0.000 A 
ATOM      7  C   UNL     1       1.297   8.171  21.291  0.00  0.00    +0.000 A 
ATOM      8  C   UNL     1       1.901   7.908  20.072  0.00  0.00    +0.000 A 
ATOM      9  N   UNL     1       1.426   8.852  19.178  0.00  0.00    +0.000 N 
ATOM     10  C   UNL     1       1.688   8.903  17.756  0.00  0.00    +0.000 C 
ATOM     11  N   UNL     1      -0.207  10.064  22.071  0.00  0.00    +0.000 N 
ATOM     12  C   UNL     1      -0.353   9.653  23.454  0.00  0.00    +0.000 C 
ATOM     13  C   UNL     1      -0.871  11.232  21.669  0.00  0.00    +0.000 A 
ATOM     14  O   UNL     1      -1.556  11.884  22.469  0.00  0.00    +0.000 OA
ENDROOT
BRANCH   8  15
ATOM     15  O   UNL     1       2.763   6.950  19.698  0.00  0.00    +0.000 OA
BRANCH  15  16
ATOM     16  C   UNL     1       2.364   5.627  19.622  0.00  0.00    +0.000 A 
ATOM     17  C   UNL     1       1.536   5.138  20.634  0.00  0.00    +0.000 A 
ATOM     18  C   UNL     1       1.035   3.831  20.564  0.00  0.00    +0.000 A 
ATOM     19  C   UNL     1       1.356   3.016  19.479  0.00  0.00    +0.000 A 
ATOM     20  C   UNL     1       2.187   3.505  18.473  0.00  0.00    +0.000 A 
ATOM     21 CL   UNL     1       2.586   2.504  17.131  0.00  0.00    +0.000 Cl
ATOM     22  C   UNL     1       2.686   4.806  18.537  0.00  0.00    +0.000 A 
ENDBRANCH  15  16
ENDBRANCH   8  15
TORSDOF 2
ENDMDL
MODEL 4
REMARK VINA RESULT:      -6.6      1.361      1.439
REMARK  Name = 
REMARK  5 active torsions:
REMARK  status: ('A' for Active; 'I' for Inactive)
REMARK    1  A    between atoms: C_1  and  N_2
REMARK    2  A    between atoms: C_8  and  O_9
REMARK    3  A    between atoms: O_9  and  C_10
REMARK    4  A    between atoms: N_17  and  C_18
REMARK    5  A    between atoms: N_19  and  C_20
REMARK                            x       y       z     vdW  Elec       q    Type
REMARK                         _______ _______ _______ _____ _____    ______ ____
ROOT
ATOM      1  C   UNL     1       0.423  13.031  19.028  0.00  0.00    +0.000 C 
ATOM      2  N   UNL     1       0.665  11.691  19.530  0.00  0.00    +0.000 N 
ATOM      3  C   UNL     1       1.446  10.826  18.759  0.00  0.00    +0.000 A 
ATOM      4  O   UNL     1       1.966  11.146  17.693  0.00  0.00    +0.000 OA
ATOM      5  C   UNL     1       1.592   9.523  19.341  0.00  0.00    +0.000 A 
ATOM      6  C   UNL     1       1.055   9.183  20.553  0.00  0.00    +0.000 A 
ATOM      7  C   UNL     1       1.419   7.854  20.831  0.00  0.00    +0.000 A 
ATOM      8  C   UNL     1       2.219   7.406  19.791  0.00  0.00    +0.000 A 
ATOM      9  N   UNL     1       2.242   8.414  18.843  0.00  0.00    +0.000 N 
ATOM     10  C   UNL     1       2.854   8.352  17.532  0.00  0.00    +0.000 C 
ATOM     11  N   UNL     1       0.312  10.096  21.282  0.00  0.00    +0.000 N 
ATOM     12  C   UNL     1      -0.275   9.779  22.570  0.00  0.00    +0.000 C 
ATOM     13  C   UNL     1       0.096  11.383  20.771  0.00  0.00    +0.000 A 
ATOM     14  O   UNL     1      -0.574  12.215  21.399  0.00  0.00    +0.000 OA
ENDROOT
BRANCH   8  15
ATOM     15  O   UNL     1       2.867   6.246  19.608  0.00  0.00    +0.000 OA
BRANCH  15  16
ATOM     16  C   UNL     1       2.188   5.041  19.636  0.00  0.00    +0.000 A 
ATOM     17  C   UNL     1       1.767   4.503  18.419  0.00  0.00    +0.000 A 
ATOM     18  C   UNL     1       1.149   3.246  18.380  0.00  0.00    +0.000 A 
ATOM     19  C   UNL     1       0.958   2.524  19.558  0.00  0.00    +0.000 A 
ATOM     20  C   UNL     1       1.374   3.066  20.772  0.00  0.00    +0.000 A 
ATOM     21 CL   UNL     1       1.141   2.180  22.229  0.00  0.00    +0.000 Cl
ATOM     22  C   UNL     1       1.992   4.316  20.815  0.00  0.00    +0.000 A 
ENDBRANCH  15  16
ENDBRANCH   8  15
TORSDOF 2
ENDMDL
MODEL 5
REMARK VINA RESULT:      -6.5      3.226      7.270
REMARK  Name = 
REMARK  5 active torsions:
REMARK  status: ('A' for Active; 'I' for Inactive)
REMARK    1  A    between atoms: C_1  and  N_2
REMARK    2  A    between atoms: C_8  and  O_9
REMARK    3  A    between atoms: O_9  and  C_10
REMARK    4  A    between atoms: N_17  and  C_18
REMARK    5  A    between atoms: N_19  and  C_20
REMARK                            x       y       z     vdW  Elec       q    Type
REMARK                         _______ _______ _______ _____ _____    ______ ____
ROOT
ATOM      1  C   UNL     1       3.436   2.903  19.953  0.00  0.00    +0.000 C 
ATOM      2  N   UNL     1       3.314   4.240  19.405  0.00  0.00    +0.000 N 
ATOM      3  C   UNL     1       2.585   5.188  20.127  0.00  0.00    +0.000 A 
ATOM      4  O   UNL     1       2.067   4.962  21.218  0.00  0.00    +0.000 OA
ATOM      5  C   UNL     1       2.509   6.463  19.474  0.00  0.00    +0.000 A 
ATOM      6  C   UNL     1       3.131   6.730  18.284  0.00  0.00    +0.000 A 
ATOM      7  C   UNL     1       2.879   8.073  17.955  0.00  0.00    +0.000 A 
ATOM      8  C   UNL     1       2.132   8.629  18.981  0.00  0.00    +0.000 A 
ATOM      9  N   UNL     1       1.840   7.603  19.863  0.00  0.00    +0.000 N 
ATOM     10  C   UNL     1       0.983   7.684  21.027  0.00  0.00    +0.000 C 
ATOM     11  N   UNL     1       3.861   5.753  17.630  0.00  0.00    +0.000 N 
ATOM     12  C   UNL     1       4.535   5.991  16.367  0.00  0.00    +0.000 C 
ATOM     13  C   UNL     1       3.961   4.469  18.185  0.00  0.00    +0.000 A 
ATOM     14  O   UNL     1       4.601   3.575  17.614  0.00  0.00    +0.000 OA
ENDROOT
BRANCH   8  15
ATOM     15  O   UNL     1       1.692   9.881  19.180  0.00  0.00    +0.000 OA
BRANCH  15  16
ATOM     16  C   UNL     1       0.368  10.213  18.949  0.00  0.00    +0.000 A 
ATOM     17  C   UNL     1      -0.240  11.109  19.830  0.00  0.00    +0.000 A 
ATOM     18  C   UNL     1      -1.551  11.544  19.598  0.00  0.00    +0.000 A 
ATOM     19  C   UNL     1      -2.252  11.089  18.481  0.00  0.00    +0.000 A 
ATOM     20  C   UNL     1      -1.644  10.190  17.606  0.00  0.00    +0.000 A 
ATOM     21 CL   UNL     1      -2.503   9.625  16.226  0.00  0.00    +0.000 Cl
ATOM     22  C   UNL     1      -0.337   9.756  17.832  0.00  0.00    +0.000 A 
ENDBRANCH  15  16
ENDBRANCH   8  15
TORSDOF 2
ENDMDL
MODEL 6
REMARK VINA RESULT:      -6.5      2.988      4.216
REMARK  Name = 
REMARK  5 active torsions:
REMARK  status: ('A' for Active; 'I' for Inactive)
REMARK    1  A    between atoms: C_1  and  N_2
REMARK    2  A    between atoms: C_8  and  O_9
REMARK    3  A    between atoms: O_9  and  C_10
REMARK    4  A    between atoms: N_17  and  C_18
REMARK    5  A    between atoms: N_19  and  C_20
REMARK                            x       y       z     vdW  Elec       q    Type
REMARK                         _______ _______ _______ _____ _____    ______ ____
ROOT
ATOM      1  C   UNL     1      -0.029  10.647  21.902  0.00  0.00    +0.000 C 
ATOM      2  N   UNL     1       0.691   9.985  20.831  0.00  0.00    +0.000 N 
ATOM      3  C   UNL     1       0.886   8.605  20.918  0.00  0.00    +0.000 A 
ATOM      4  O   UNL     1       0.455   7.913  21.836  0.00  0.00    +0.000 OA
ATOM      5  C   UNL     1       1.635   8.068  19.818  0.00  0.00    +0.000 A 
ATOM      6  C   UNL     1       2.071   8.831  18.769  0.00  0.00    +0.000 A 
ATOM      7  C   UNL     1       2.733   7.984  17.863  0.00  0.00    +0.000 A 
ATOM      8  C   UNL     1       2.656   6.691  18.355  0.00  0.00    +0.000 A 
ATOM      9  N   UNL     1       2.055   6.773  19.599  0.00  0.00    +0.000 N 
ATOM     10  C   UNL     1       1.869   5.689  20.541  0.00  0.00    +0.000 C 
ATOM     11  N   UNL     1       1.822  10.192  18.729  0.00  0.00    +0.000 N 
ATOM     12  C   UNL     1       2.266  11.039  17.638  0.00  0.00    +0.000 C 
ATOM     13  C   UNL     1       1.123  10.803  19.780  0.00  0.00    +0.000 A 
ATOM     14  O   UNL     1       0.896  12.021  19.772  0.00  0.00    +0.000 OA
ENDROOT
BRANCH   8  15
ATOM     15  O   UNL     1       3.067   5.522  17.843  0.00  0.00    +0.000 OA
BRANCH  15  16
ATOM     16  C   UNL     1       4.415   5.261  17.662  0.00  0.00    +0.000 A 
ATOM     17  C   UNL     1       4.815   4.728  16.436  0.00  0.00    +0.000 A 
ATOM     18  C   UNL     1       6.174   4.522  16.167  0.00  0.00    +0.000 A 
ATOM     19  C   UNL     1       7.135   4.857  17.121  0.00  0.00    +0.000 A 
ATOM     20  C   UNL     1       6.732   5.384  18.347  0.00  0.00    +0.000 A 
ATOM     21 CL   UNL     1       7.912   5.800  19.529  0.00  0.00    +0.000 Cl
ATOM     22  C   UNL     1       5.379   5.593  18.618  0.00  0.00    +0.000 A 
ENDBRANCH  15  16
ENDBRANCH   8  15
TORSDOF 2
ENDMDL
MODEL 7
REMARK VINA RESULT:      -6.5      2.657      3.987
REMARK  Name = 
REMARK  5 active torsions:
REMARK  status: ('A' for Active; 'I' for Inactive)
REMARK    1  A    between atoms: C_1  and  N_2
REMARK    2  A    between atoms: C_8  and  O_9
REMARK    3  A    between atoms: O_9  and  C_10
REMARK    4  A    between atoms: N_17  and  C_18
REMARK    5  A    between atoms: N_19  and  C_20
REMARK                            x       y       z     vdW  Elec       q    Type
REMARK                         _______ _______ _______ _____ _____    ______ ____
ROOT
ATOM      1  C   UNL     1      -4.879  12.652  19.365  0.00  0.00    +0.000 C 
ATOM      2  N   UNL     1      -3.733  11.904  18.883  0.00  0.00    +0.000 N 
ATOM      3  C   UNL     1      -2.565  11.915  19.649  0.00  0.00    +0.000 A 
ATOM      4  O   UNL     1      -2.463  12.496  20.726  0.00  0.00    +0.000 OA
ATOM      5  C   UNL     1      -1.493  11.166  19.059  0.00  0.00    +0.000 A 
ATOM      6  C   UNL     1      -1.624  10.475  17.885  0.00  0.00    +0.000 A 
ATOM      7  C   UNL     1      -0.401   9.834  17.621  0.00  0.00    +0.000 A 
ATOM      8  C   UNL     1       0.460  10.109  18.672  0.00  0.00    +0.000 A 
ATOM      9  N   UNL     1      -0.198  11.000  19.503  0.00  0.00    +0.000 N 
ATOM     10  C   UNL     1       0.352  11.662  20.667  0.00  0.00    +0.000 C 
ATOM     11  N   UNL     1      -2.818  10.483  17.185  0.00  0.00    +0.000 N 
ATOM     12  C   UNL     1      -3.000   9.767  15.937  0.00  0.00    +0.000 C 
ATOM     13  C   UNL     1      -3.908  11.216  17.677  0.00  0.00    +0.000 A 
ATOM     14  O   UNL     1      -4.983  11.246  17.064  0.00  0.00    +0.000 OA
ENDROOT
BRANCH   8  15
ATOM     15  O   UNL     1       1.706   9.688  18.931  0.00  0.00    +0.000 OA
BRANCH  15  16
ATOM     16  C   UNL     1       1.961   8.358  19.215  0.00  0.00    +0.000 A 
ATOM     17  C   UNL     1       1.527   7.860  20.444  0.00  0.00    +0.000 A 
ATOM     18  C   UNL     1       1.684   6.502  20.750  0.00  0.00    +0.000 A 
ATOM     19  C   UNL     1       2.270   5.639  19.823  0.00  0.00    +0.000 A 
ATOM     20  C   UNL     1       2.707   6.141  18.598  0.00  0.00    +0.000 A 
ATOM     21 CL   UNL     1       3.430   5.081  17.450  0.00  0.00    +0.000 Cl
ATOM     22  C   UNL     1       2.550   7.492  18.289  0.00  0.00    +0.000 A 
ENDBRANCH  15  16
ENDBRANCH   8  15
TORSDOF 2
ENDMDL
MODEL 8
REMARK VINA RESULT:      -6.4      5.123      7.421
REMARK  Name = 
REMARK  5 active torsions:
REMARK  status: ('A' for Active; 'I' for Inactive)
REMARK    1  A    between atoms: C_1  and  N_2
REMARK    2  A    between atoms: C_8  and  O_9
REMARK    3  A    between atoms: O_9  and  C_10
REMARK    4  A    between atoms: N_17  and  C_18
REMARK    5  A    between atoms: N_19  and  C_20
REMARK                            x       y       z     vdW  Elec       q    Type
REMARK                         _______ _______ _______ _____ _____    ______ ____
ROOT
ATOM      1  C   UNL     1       1.489   7.073  19.926  0.00  0.00    +0.000 C 
ATOM      2  N   UNL     1       2.294   6.070  19.255  0.00  0.00    +0.000 N 
ATOM      3  C   UNL     1       3.326   6.501  18.418  0.00  0.00    +0.000 A 
ATOM      4  O   UNL     1       3.612   7.682  18.242  0.00  0.00    +0.000 OA
ATOM      5  C   UNL     1       4.033   5.423  17.789  0.00  0.00    +0.000 A 
ATOM      6  C   UNL     1       3.748   4.105  18.026  0.00  0.00    +0.000 A 
ATOM      7  C   UNL     1       4.649   3.326  17.278  0.00  0.00    +0.000 A 
ATOM      8  C   UNL     1       5.511   4.188  16.618  0.00  0.00    +0.000 A 
ATOM      9  N   UNL     1       5.063   5.472  16.874  0.00  0.00    +0.000 N 
ATOM     10  C   UNL     1       5.580   6.697  16.299  0.00  0.00    +0.000 C 
ATOM     11  N   UNL     1       2.728   3.743  18.888  0.00  0.00    +0.000 N 
ATOM     12  C   UNL     1       2.391   2.360  19.167  0.00  0.00    +0.000 C 
ATOM     13  C   UNL     1       1.967   4.736  19.521  0.00  0.00    +0.000 A 
ATOM     14  O   UNL     1       1.042   4.437  20.289  0.00  0.00    +0.000 OA
ENDROOT
BRANCH   8  15
ATOM     15  O   UNL     1       6.576   3.951  15.839  0.00  0.00    +0.000 OA
BRANCH  15  16
ATOM     16  C   UNL     1       6.502   4.117  14.466  0.00  0.00    +0.000 A 
ATOM     17  C   UNL     1       7.536   4.812  13.838  0.00  0.00    +0.000 A 
ATOM     18  C   UNL     1       7.556   4.938  12.443  0.00  0.00    +0.000 A 
ATOM     19  C   UNL     1       6.544   4.362  11.675  0.00  0.00    +0.000 A 
ATOM     20  C   UNL     1       5.508   3.674  12.306  0.00  0.00    +0.000 A 
ATOM     21 CL   UNL     1       4.257   2.961  11.363  0.00  0.00    +0.000 Cl
ATOM     22  C   UNL     1       5.487   3.544  13.694  0.00  0.00    +0.000 A 
ENDBRANCH  15  16
ENDBRANCH   8  15
TORSDOF 2
ENDMDL
MODEL 9
REMARK VINA RESULT:      -6.4      3.625      7.213
REMARK  Name = 
REMARK  5 active torsions:
REMARK  status: ('A' for Active; 'I' for Inactive)
REMARK    1  A    between atoms: C_1  and  N_2
REMARK    2  A    between atoms: C_8  and  O_9
REMARK    3  A    between atoms: O_9  and  C_10
REMARK    4  A    between atoms: N_17  and  C_18
REMARK    5  A    between atoms: N_19  and  C_20
REMARK                            x       y       z     vdW  Elec       q    Type
REMARK                         _______ _______ _______ _____ _____    ______ ____
ROOT
ATOM      1  C   UNL     1       4.041   1.508  17.720  0.00  0.00    +0.000 C 
ATOM      2  N   UNL     1       3.462   2.754  18.188  0.00  0.00    +0.000 N 
ATOM      3  C   UNL     1       3.904   3.947  17.612  0.00  0.00    +0.000 A 
ATOM      4  O   UNL     1       4.734   4.001  16.708  0.00  0.00    +0.000 OA
ATOM      5  C   UNL     1       3.283   5.112  18.174  0.00  0.00    +0.000 A 
ATOM      6  C   UNL     1       2.320   5.048  19.145  0.00  0.00    +0.000 A 
ATOM      7  C   UNL     1       1.910   6.362  19.434  0.00  0.00    +0.000 A 
ATOM      8  C   UNL     1       2.606   7.219  18.597  0.00  0.00    +0.000 A 
ATOM      9  N   UNL     1       3.508   6.442  17.891  0.00  0.00    +0.000 N 
ATOM     10  C   UNL     1       4.529   6.917  16.981  0.00  0.00    +0.000 C 
ATOM     11  N   UNL     1       1.906   3.831  19.656  0.00  0.00    +0.000 N 
ATOM     12  C   UNL     1       0.890   3.717  20.686  0.00  0.00    +0.000 C 
ATOM     13  C   UNL     1       2.485   2.644  19.184  0.00  0.00    +0.000 A 
ATOM     14  O   UNL     1       2.139   1.543  19.633  0.00  0.00    +0.000 OA
ENDROOT
BRANCH   8  15
ATOM     15  O   UNL     1       2.534   8.548  18.431  0.00  0.00    +0.000 OA
BRANCH  15  16
ATOM     16  C   UNL     1       1.415   9.255  18.836  0.00  0.00    +0.000 A 
ATOM     17  C   UNL     1       0.496   9.635  17.857  0.00  0.00    +0.000 A 
ATOM     18  C   UNL     1      -0.694  10.279  18.219  0.00  0.00    +0.000 A 
ATOM     19  C   UNL     1      -0.969  10.536  19.562  0.00  0.00    +0.000 A 
ATOM     20  C   UNL     1      -0.047  10.160  20.538  0.00  0.00    +0.000 A 
ATOM     21 CL   UNL     1      -0.381  10.474  22.196  0.00  0.00    +0.000 Cl
ATOM     22  C   UNL     1       1.138   9.516  20.181  0.00  0.00    +0.000 A 
ENDBRANCH  15  16
ENDBRANCH   8  15
TORSDOF 2
ENDMDL
