MODEL 1
REMARK VINA RESULT:      -8.9      0.000      0.000
REMARK  Name = 
REMARK  2 active torsions:
REMARK  status: ('A' for Active; 'I' for Inactive)
REMARK    1  A    between atoms: C_3  and  C_4
REMARK    2  A    between atoms: C_22  and  N_23
REMARK                            x       y       z     vdW  Elec       q    Type
REMARK                         _______ _______ _______ _____ _____    ______ ____
ROOT
ATOM      1  C   UNL     1       2.026   7.355  19.616  0.00  0.00    +0.000 A 
ATOM      2  C   UNL     1       1.496   6.526  20.611  0.00  0.00    +0.000 A 
ATOM      3  C   UNL     1       1.940   5.208  20.770  0.00  0.00    +0.000 A 
ATOM      4  C   UNL     1       2.929   4.668  19.965  0.00  0.00    +0.000 A 
ATOM      5  N   UNL     1       3.295   3.400  20.157  0.00  0.00    +0.000 NA
ATOM      6  C   UNL     1       4.234   2.916  19.341  0.00  0.00    +0.000 A 
ATOM      7  N   UNL     1       4.845   3.585  18.359  0.00  0.00    +0.000 NA
ATOM      8  C   UNL     1       4.489   4.873  18.191  0.00  0.00    +0.000 A 
ATOM      9  N   UNL     1       5.133   5.629  17.192  0.00  0.00    +0.000 N 
ATOM     10  C   UNL     1       5.740   5.149  16.030  0.00  0.00    +0.000 A 
ATOM     11  C   UNL     1       5.223   4.058  15.351  0.00  0.00    +0.000 A 
ATOM     12  C   UNL     1       5.848   3.699  14.185  0.00  0.00    +0.000 A 
ATOM     13  N   UNL     1       6.911   4.353  13.686  0.00  0.00    +0.000 NA
ATOM     14  C   UNL     1       7.328   5.402  14.408  0.00  0.00    +0.000 A 
ATOM     15  N   UNL     1       6.790   5.846  15.555  0.00  0.00    +0.000 NA
ATOM     16  C   UNL     1       3.494   5.479  18.975  0.00  0.00    +0.000 A 
ATOM     17  C   UNL     1       3.024   6.805  18.799  0.00  0.00    +0.000 A 
ATOM     18  H   UNL     1       5.670   6.402  17.564  0.00  0.00    +0.000 HD
ENDROOT
BRANCH   1  21
ATOM     19  C   UNL     1       1.139  10.712  18.097  0.00  0.00    +0.000 A 
ATOM     20  C   UNL     1       1.650   9.425  18.236  0.00  0.00    +0.000 A 
ATOM     21  C   UNL     1       1.587   8.759  19.467  0.00  0.00    +0.000 A 
ATOM     22  C   UNL     1       1.039   9.462  20.561  0.00  0.00    +0.000 A 
ATOM     23  C   UNL     1       0.529  10.765  20.463  0.00  0.00    +0.000 A 
ATOM     24  C   UNL     1       0.578  11.362  19.197  0.00  0.00    +0.000 A 
BRANCH  23  25
ATOM     25  N   UNL     1      -0.046  11.408  21.538  0.00  0.00    +0.000 N 
ATOM     26  C   UNL     1      -0.522  10.712  22.744  0.00  0.00    +0.000 C 
ATOM     27  C   UNL     1      -1.861  11.336  23.182  0.00  0.00    +0.000 C 
ATOM     28  O   UNL     1      -1.767  12.760  23.358  0.00  0.00    +0.000 OA
ATOM     29  C   UNL     1      -1.331  13.389  22.140  0.00  0.00    +0.000 C 
ATOM     30  C   UNL     1       0.048  12.865  21.714  0.00  0.00    +0.000 C 
ENDBRANCH  23  25
ENDBRANCH   1  21
TORSDOF 2
ENDMDL
MODEL 2
REMARK VINA RESULT:      -8.8      1.077      1.161
REMARK  Name = 
REMARK  2 active torsions:
REMARK  status: ('A' for Active; 'I' for Inactive)
REMARK    1  A    between atoms: C_3  and  C_4
REMARK    2  A    between atoms: C_22  and  N_23
REMARK                            x       y       z     vdW  Elec       q    Type
REMARK                         _______ _______ _______ _____ _____    ______ ____
ROOT
ATOM      1  C   UNL     1       2.308   6.757  18.821  0.00  0.00    +0.000 A 
ATOM      2  C   UNL     1       1.661   5.835  19.652  0.00  0.00    +0.000 A 
ATOM      3  C   UNL     1       1.978   4.472  19.607  0.00  0.00    +0.000 A 
ATOM      4  C   UNL     1       2.951   3.976  18.755  0.00  0.00    +0.000 A 
ATOM      5  N   UNL     1       3.193   2.664  18.749  0.00  0.00    +0.000 NA
ATOM      6  C   UNL     1       4.121   2.229  17.894  0.00  0.00    +0.000 A 
ATOM      7  N   UNL     1       4.833   2.984  17.053  0.00  0.00    +0.000 NA
ATOM      8  C   UNL     1       4.601   4.310  17.086  0.00  0.00    +0.000 A 
ATOM      9  N   UNL     1       5.354   5.151  16.243  0.00  0.00    +0.000 N 
ATOM     10  C   UNL     1       5.968   4.806  15.038  0.00  0.00    +0.000 A 
ATOM     11  C   UNL     1       5.387   3.893  14.175  0.00  0.00    +0.000 A 
ATOM     12  C   UNL     1       6.029   3.666  12.985  0.00  0.00    +0.000 A 
ATOM     13  N   UNL     1       7.168   4.286  12.632  0.00  0.00    +0.000 NA
ATOM     14  C   UNL     1       7.644   5.163  13.526  0.00  0.00    +0.000 A 
ATOM     15  N   UNL     1       7.096   5.467  14.715  0.00  0.00    +0.000 NA
ATOM     16  C   UNL     1       3.630   4.876  17.928  0.00  0.00    +0.000 A 
ATOM     17  C   UNL     1       3.289   6.251  17.956  0.00  0.00    +0.000 A 
ATOM     18  H   UNL     1       5.941   5.800  16.752  0.00  0.00    +0.000 HD
ENDROOT
BRANCH   1  21
ATOM     19  C   UNL     1       1.797  10.383  17.844  0.00  0.00    +0.000 A 
ATOM     20  C   UNL     1       2.184   9.048  17.787  0.00  0.00    +0.000 A 
ATOM     21  C   UNL     1       2.003   8.202  18.890  0.00  0.00    +0.000 A 
ATOM     22  C   UNL     1       1.468   8.771  20.065  0.00  0.00    +0.000 A 
ATOM     23  C   UNL     1       1.081  10.115  20.166  0.00  0.00    +0.000 A 
ATOM     24  C   UNL     1       1.244  10.899  19.017  0.00  0.00    +0.000 A 
BRANCH  23  25
ATOM     25  N   UNL     1       0.515  10.630  21.312  0.00  0.00    +0.000 N 
ATOM     26  C   UNL     1       0.424   9.888  22.579  0.00  0.00    +0.000 C 
ATOM     27  C   UNL     1      -0.956  10.151  23.212  0.00  0.00    +0.000 C 
ATOM     28  O   UNL     1      -1.227  11.555  23.364  0.00  0.00    +0.000 OA
ATOM     29  C   UNL     1      -1.158  12.222  22.091  0.00  0.00    +0.000 C 
ATOM     30  C   UNL     1       0.235  12.065  21.464  0.00  0.00    +0.000 C 
ENDBRANCH  23  25
ENDBRANCH   1  21
TORSDOF 2
ENDMDL
MODEL 3
REMARK VINA RESULT:      -8.7      1.318      1.772
REMARK  Name = 
REMARK  2 active torsions:
REMARK  status: ('A' for Active; 'I' for Inactive)
REMARK    1  A    between atoms: C_3  and  C_4
REMARK    2  A    between atoms: C_22  and  N_23
REMARK                            x       y       z     vdW  Elec       q    Type
REMARK                         _______ _______ _______ _____ _____    ______ ____
ROOT
ATOM      1  C   UNL     1       2.442   6.486  18.624  0.00  0.00    +0.000 A 
ATOM      2  C   UNL     1       1.828   5.519  19.429  0.00  0.00    +0.000 A 
ATOM      3  C   UNL     1       2.186   4.169  19.339  0.00  0.00    +0.000 A 
ATOM      4  C   UNL     1       3.168   3.729  18.467  0.00  0.00    +0.000 A 
ATOM      5  N   UNL     1       3.450   2.426  18.418  0.00  0.00    +0.000 NA
ATOM      6  C   UNL     1       4.385   2.046  17.545  0.00  0.00    +0.000 A 
ATOM      7  N   UNL     1       5.068   2.849  16.725  0.00  0.00    +0.000 NA
ATOM      8  C   UNL     1       4.797   4.166  16.801  0.00  0.00    +0.000 A 
ATOM      9  N   UNL     1       5.520   5.055  15.981  0.00  0.00    +0.000 N 
ATOM     10  C   UNL     1       6.136   4.767  14.763  0.00  0.00    +0.000 A 
ATOM     11  C   UNL     1       5.578   3.863  13.874  0.00  0.00    +0.000 A 
ATOM     12  C   UNL     1       6.220   3.694  12.675  0.00  0.00    +0.000 A 
ATOM     13  N   UNL     1       7.337   4.359  12.335  0.00  0.00    +0.000 NA
ATOM     14  C   UNL     1       7.792   5.221  13.255  0.00  0.00    +0.000 A 
ATOM     15  N   UNL     1       7.242   5.472  14.455  0.00  0.00    +0.000 NA
ATOM     16  C   UNL     1       3.815   4.675  17.666  0.00  0.00    +0.000 A 
ATOM     17  C   UNL     1       3.432   6.038  17.738  0.00  0.00    +0.000 A 
ATOM     18  H   UNL     1       6.090   5.705  16.508  0.00  0.00    +0.000 HD
ENDROOT
BRANCH   1  21
ATOM     19  C   UNL     1       2.077  10.180  17.857  0.00  0.00    +0.000 A 
ATOM     20  C   UNL     1       2.499   8.857  17.780  0.00  0.00    +0.000 A 
ATOM     21  C   UNL     1       2.095   7.919  18.740  0.00  0.00    +0.000 A 
ATOM     22  C   UNL     1       1.293   8.382  19.805  0.00  0.00    +0.000 A 
ATOM     23  C   UNL     1       0.860   9.710  19.924  0.00  0.00    +0.000 A 
ATOM     24  C   UNL     1       1.260  10.591  18.911  0.00  0.00    +0.000 A 
BRANCH  23  25
ATOM     25  N   UNL     1       0.036  10.123  20.949  0.00  0.00    +0.000 N 
ATOM     26  C   UNL     1      -0.701  11.396  20.939  0.00  0.00    +0.000 C 
ATOM     27  C   UNL     1      -0.631  12.023  22.344  0.00  0.00    +0.000 C 
ATOM     28  O   UNL     1      -1.086  11.121  23.367  0.00  0.00    +0.000 OA
ATOM     29  C   UNL     1      -0.308   9.910  23.352  0.00  0.00    +0.000 C 
ATOM     30  C   UNL     1      -0.424   9.200  21.997  0.00  0.00    +0.000 C 
ENDBRANCH  23  25
ENDBRANCH   1  21
TORSDOF 2
ENDMDL
MODEL 4
REMARK VINA RESULT:      -8.7      3.563      9.427
REMARK  Name = 
REMARK  2 active torsions:
REMARK  status: ('A' for Active; 'I' for Inactive)
REMARK    1  A    between atoms: C_3  and  C_4
REMARK    2  A    between atoms: C_22  and  N_23
REMARK                            x       y       z     vdW  Elec       q    Type
REMARK                         _______ _______ _______ _____ _____    ______ ____
ROOT
ATOM      1  C   UNL     1       0.783   9.508  20.766  0.00  0.00    +0.000 A 
ATOM      2  C   UNL     1       0.141   9.006  21.904  0.00  0.00    +0.000 A 
ATOM      3  C   UNL     1      -0.550   9.852  22.780  0.00  0.00    +0.000 A 
ATOM      4  C   UNL     1      -0.643  11.216  22.556  0.00  0.00    +0.000 A 
ATOM      5  N   UNL     1      -1.302  11.970  23.438  0.00  0.00    +0.000 NA
ATOM      6  C   UNL     1      -1.344  13.281  23.194  0.00  0.00    +0.000 A 
ATOM      7  N   UNL     1      -0.797  13.905  22.147  0.00  0.00    +0.000 NA
ATOM      8  C   UNL     1      -0.158  13.133  21.247  0.00  0.00    +0.000 A 
ATOM      9  N   UNL     1       0.402  13.742  20.108  0.00  0.00    +0.000 N 
ATOM     10  C   UNL     1       0.824  15.066  19.981  0.00  0.00    +0.000 A 
ATOM     11  C   UNL     1       1.403  15.738  21.045  0.00  0.00    +0.000 A 
ATOM     12  C   UNL     1       1.846  17.013  20.807  0.00  0.00    +0.000 A 
ATOM     13  N   UNL     1       1.749  17.617  19.611  0.00  0.00    +0.000 NA
ATOM     14  C   UNL     1       1.187  16.882  18.642  0.00  0.00    +0.000 A 
ATOM     15  N   UNL     1       0.726  15.625  18.759  0.00  0.00    +0.000 NA
ATOM     16  C   UNL     1      -0.031  11.745  21.416  0.00  0.00    +0.000 A 
ATOM     17  C   UNL     1       0.691  10.889  20.545  0.00  0.00    +0.000 A 
ATOM     18  H   UNL     1      -0.025  13.435  19.243  0.00  0.00    +0.000 HD
ENDROOT
BRANCH   1  21
ATOM     19  C   UNL     1       2.548   8.203  17.677  0.00  0.00    +0.000 A 
ATOM     20  C   UNL     1       1.802   9.023  18.517  0.00  0.00    +0.000 A 
ATOM     21  C   UNL     1       1.483   8.614  19.818  0.00  0.00    +0.000 A 
ATOM     22  C   UNL     1       1.900   7.327  20.217  0.00  0.00    +0.000 A 
ATOM     23  C   UNL     1       2.641   6.466  19.394  0.00  0.00    +0.000 A 
ATOM     24  C   UNL     1       2.967   6.948  18.120  0.00  0.00    +0.000 A 
BRANCH  23  25
ATOM     25  N   UNL     1       3.077   5.233  19.828  0.00  0.00    +0.000 N 
ATOM     26  C   UNL     1       4.386   4.662  19.474  0.00  0.00    +0.000 C 
ATOM     27  C   UNL     1       4.209   3.161  19.173  0.00  0.00    +0.000 C 
ATOM     28  O   UNL     1       3.566   2.461  20.251  0.00  0.00    +0.000 OA
ATOM     29  C   UNL     1       2.278   3.040  20.530  0.00  0.00    +0.000 C 
ATOM     30  C   UNL     1       2.415   4.517  20.928  0.00  0.00    +0.000 C 
ENDBRANCH  23  25
ENDBRANCH   1  21
TORSDOF 2
ENDMDL
MODEL 5
REMARK VINA RESULT:      -8.6      0.695      1.008
REMARK  Name = 
REMARK  2 active torsions:
REMARK  status: ('A' for Active; 'I' for Inactive)
REMARK    1  A    between atoms: C_3  and  C_4
REMARK    2  A    between atoms: C_22  and  N_23
REMARK                            x       y       z     vdW  Elec       q    Type
REMARK                         _______ _______ _______ _____ _____    ______ ____
ROOT
ATOM      1  C   UNL     1       2.085   7.500  19.451  0.00  0.00    +0.000 A 
ATOM      2  C   UNL     1       1.547   6.706  20.470  0.00  0.00    +0.000 A 
ATOM      3  C   UNL     1       1.968   5.384  20.658  0.00  0.00    +0.000 A 
ATOM      4  C   UNL     1       2.943   4.808  19.860  0.00  0.00    +0.000 A 
ATOM      5  N   UNL     1       3.288   3.539  20.081  0.00  0.00    +0.000 NA
ATOM      6  C   UNL     1       4.213   3.018  19.272  0.00  0.00    +0.000 A 
ATOM      7  N   UNL     1       4.829   3.652  18.270  0.00  0.00    +0.000 NA
ATOM      8  C   UNL     1       4.495   4.941  18.072  0.00  0.00    +0.000 A 
ATOM      9  N   UNL     1       5.146   5.661  17.051  0.00  0.00    +0.000 N 
ATOM     10  C   UNL     1       5.737   5.142  15.899  0.00  0.00    +0.000 A 
ATOM     11  C   UNL     1       5.196   4.045  15.249  0.00  0.00    +0.000 A 
ATOM     12  C   UNL     1       5.808   3.647  14.089  0.00  0.00    +0.000 A 
ATOM     13  N   UNL     1       6.879   4.269  13.568  0.00  0.00    +0.000 NA
ATOM     14  C   UNL     1       7.319   5.328  14.261  0.00  0.00    +0.000 A 
ATOM     15  N   UNL     1       6.796   5.810  15.400  0.00  0.00    +0.000 NA
ATOM     16  C   UNL     1       3.516   5.584  18.848  0.00  0.00    +0.000 A 
ATOM     17  C   UNL     1       3.068   6.913  18.641  0.00  0.00    +0.000 A 
ATOM     18  H   UNL     1       5.698   6.434  17.401  0.00  0.00    +0.000 HD
ENDROOT
BRANCH   1  21
ATOM     19  C   UNL     1       1.705  10.991  18.025  0.00  0.00    +0.000 A 
ATOM     20  C   UNL     1       2.184   9.703  18.237  0.00  0.00    +0.000 A 
ATOM     21  C   UNL     1       1.670   8.908  19.270  0.00  0.00    +0.000 A 
ATOM     22  C   UNL     1       0.695   9.486  20.112  0.00  0.00    +0.000 A 
ATOM     23  C   UNL     1       0.199  10.786  19.939  0.00  0.00    +0.000 A 
ATOM     24  C   UNL     1       0.718  11.515  18.862  0.00  0.00    +0.000 A 
BRANCH  23  25
ATOM     25  N   UNL     1      -0.790  11.305  20.747  0.00  0.00    +0.000 N 
ATOM     26  C   UNL     1      -1.969  12.019  20.233  0.00  0.00    +0.000 C 
ATOM     27  C   UNL     1      -2.251  13.232  21.141  0.00  0.00    +0.000 C 
ATOM     28  O   UNL     1      -2.380  12.859  22.524  0.00  0.00    +0.000 OA
ATOM     29  C   UNL     1      -1.187  12.196  22.980  0.00  0.00    +0.000 C 
ATOM     30  C   UNL     1      -0.918  10.926  22.162  0.00  0.00    +0.000 C 
ENDBRANCH  23  25
ENDBRANCH   1  21
TORSDOF 2
ENDMDL
MODEL 6
REMARK VINA RESULT:      -8.4      3.541      9.193
REMARK  Name = 
REMARK  2 active torsions:
REMARK  status: ('A' for Active; 'I' for Inactive)
REMARK    1  A    between atoms: C_3  and  C_4
REMARK    2  A    between atoms: C_22  and  N_23
REMARK                            x       y       z     vdW  Elec       q    Type
REMARK                         _______ _______ _______ _____ _____    ______ ____
ROOT
ATOM      1  C   UNL     1       0.968   9.074  20.550  0.00  0.00    +0.000 A 
ATOM      2  C   UNL     1       0.275   8.573  21.658  0.00  0.00    +0.000 A 
ATOM      3  C   UNL     1      -0.415   9.426  22.527  0.00  0.00    +0.000 A 
ATOM      4  C   UNL     1      -0.458  10.796  22.325  0.00  0.00    +0.000 A 
ATOM      5  N   UNL     1      -1.120  11.555  23.199  0.00  0.00    +0.000 NA
ATOM      6  C   UNL     1      -1.113  12.871  22.979  0.00  0.00    +0.000 A 
ATOM      7  N   UNL     1      -0.514  13.495  21.960  0.00  0.00    +0.000 NA
ATOM      8  C   UNL     1       0.128  12.718  21.067  0.00  0.00    +0.000 A 
ATOM      9  N   UNL     1       0.743  13.329  19.957  0.00  0.00    +0.000 N 
ATOM     10  C   UNL     1       1.211  14.641  19.867  0.00  0.00    +0.000 A 
ATOM     11  C   UNL     1       1.777  15.275  20.960  0.00  0.00    +0.000 A 
ATOM     12  C   UNL     1       2.267  16.539  20.760  0.00  0.00    +0.000 A 
ATOM     13  N   UNL     1       2.226  17.167  19.572  0.00  0.00    +0.000 NA
ATOM     14  C   UNL     1       1.673  16.466  18.573  0.00  0.00    +0.000 A 
ATOM     15  N   UNL     1       1.169  15.224  18.653  0.00  0.00    +0.000 NA
ATOM     16  C   UNL     1       0.206  11.324  21.214  0.00  0.00    +0.000 A 
ATOM     17  C   UNL     1       0.928  10.461  20.350  0.00  0.00    +0.000 A 
ATOM     18  H   UNL     1       0.333  13.050  19.074  0.00  0.00    +0.000 HD
ENDROOT
BRANCH   1  21
ATOM     19  C   UNL     1       2.980   7.805  17.599  0.00  0.00    +0.000 A 
ATOM     20  C   UNL     1       2.240   8.650  18.419  0.00  0.00    +0.000 A 
ATOM     21  C   UNL     1       1.669   8.175  19.608  0.00  0.00    +0.000 A 
ATOM     22  C   UNL     1       1.830   6.805  19.904  0.00  0.00    +0.000 A 
ATOM     23  C   UNL     1       2.556   5.919  19.095  0.00  0.00    +0.000 A 
ATOM     24  C   UNL     1       3.141   6.462  17.944  0.00  0.00    +0.000 A 
BRANCH  23  25
ATOM     25  N   UNL     1       2.738   4.597  19.436  0.00  0.00    +0.000 N 
ATOM     26  C   UNL     1       1.844   3.859  20.343  0.00  0.00    +0.000 C 
ATOM     27  C   UNL     1       2.697   2.976  21.273  0.00  0.00    +0.000 C 
ATOM     28  O   UNL     1       3.587   2.115  20.542  0.00  0.00    +0.000 OA
ATOM     29  C   UNL     1       4.458   2.891  19.700  0.00  0.00    +0.000 C 
ATOM     30  C   UNL     1       3.652   3.719  18.690  0.00  0.00    +0.000 C 
ENDBRANCH  23  25
ENDBRANCH   1  21
TORSDOF 2
ENDMDL
MODEL 7
REMARK VINA RESULT:      -8.1      3.407      9.219
REMARK  Name = 
REMARK  2 active torsions:
REMARK  status: ('A' for Active; 'I' for Inactive)
REMARK    1  A    between atoms: C_3  and  C_4
REMARK    2  A    between atoms: C_22  and  N_23
REMARK                            x       y       z     vdW  Elec       q    Type
REMARK                         _______ _______ _______ _____ _____    ______ ____
ROOT
ATOM      1  C   UNL     1       1.190   8.779  20.300  0.00  0.00    +0.000 A 
ATOM      2  C   UNL     1       0.600   8.145  21.399  0.00  0.00    +0.000 A 
ATOM      3  C   UNL     1      -0.144   8.867  22.339  0.00  0.00    +0.000 A 
ATOM      4  C   UNL     1      -0.343  10.232  22.221  0.00  0.00    +0.000 A 
ATOM      5  N   UNL     1      -1.048  10.864  23.161  0.00  0.00    +0.000 NA
ATOM      6  C   UNL     1      -1.192  12.183  23.019  0.00  0.00    +0.000 A 
ATOM      7  N   UNL     1      -0.705  12.925  22.020  0.00  0.00    +0.000 NA
ATOM      8  C   UNL     1      -0.019  12.275  21.062  0.00  0.00    +0.000 A 
ATOM      9  N   UNL     1       0.482  13.010  19.970  0.00  0.00    +0.000 N 
ATOM     10  C   UNL     1       0.801  14.368  19.943  0.00  0.00    +0.000 A 
ATOM     11  C   UNL     1       1.338  14.999  21.053  0.00  0.00    +0.000 A 
ATOM     12  C   UNL     1       1.680  16.319  20.912  0.00  0.00    +0.000 A 
ATOM     13  N   UNL     1       1.525  17.004  19.766  0.00  0.00    +0.000 NA
ATOM     14  C   UNL     1       1.011  16.303  18.746  0.00  0.00    +0.000 A 
ATOM     15  N   UNL     1       0.648  15.010  18.768  0.00  0.00    +0.000 NA
ATOM     16  C   UNL     1       0.216  10.892  21.122  0.00  0.00    +0.000 A 
ATOM     17  C   UNL     1       0.991  10.163  20.185  0.00  0.00    +0.000 A 
ATOM     18  H   UNL     1       0.070  12.738  19.086  0.00  0.00    +0.000 HD
ENDROOT
BRANCH   1  21
ATOM     19  C   UNL     1       3.374   7.925  17.322  0.00  0.00    +0.000 A 
ATOM     20  C   UNL     1       2.585   8.651  18.209  0.00  0.00    +0.000 A 
ATOM     21  C   UNL     1       1.946   8.017  19.283  0.00  0.00    +0.000 A 
ATOM     22  C   UNL     1       2.090   6.618  19.392  0.00  0.00    +0.000 A 
ATOM     23  C   UNL     1       2.864   5.850  18.510  0.00  0.00    +0.000 A 
ATOM     24  C   UNL     1       3.515   6.546  17.483  0.00  0.00    +0.000 A 
BRANCH  23  25
ATOM     25  N   UNL     1       3.026   4.491  18.671  0.00  0.00    +0.000 N 
ATOM     26  C   UNL     1       3.145   3.547  17.549  0.00  0.00    +0.000 C 
ATOM     27  C   UNL     1       2.331   2.280  17.876  0.00  0.00    +0.000 C 
ATOM     28  O   UNL     1       2.708   1.701  19.138  0.00  0.00    +0.000 OA
ATOM     29  C   UNL     1       2.540   2.657  20.200  0.00  0.00    +0.000 C 
ATOM     30  C   UNL     1       3.408   3.901  19.962  0.00  0.00    +0.000 C 
ENDBRANCH  23  25
ENDBRANCH   1  21
TORSDOF 2
ENDMDL
MODEL 8
REMARK VINA RESULT:      -8.0      4.140      8.711
REMARK  Name = 
REMARK  2 active torsions:
REMARK  status: ('A' for Active; 'I' for Inactive)
REMARK    1  A    between atoms: C_3  and  C_4
REMARK    2  A    between atoms: C_22  and  N_23
REMARK                            x       y       z     vdW  Elec       q    Type
REMARK                         _______ _______ _______ _____ _____    ______ ____
ROOT
ATOM      1  C   UNL     1       1.467   9.549  18.342  0.00  0.00    +0.000 A 
ATOM      2  C   UNL     1       0.079   9.568  18.514  0.00  0.00    +0.000 A 
ATOM      3  C   UNL     1      -0.619  10.773  18.653  0.00  0.00    +0.000 A 
ATOM      4  C   UNL     1       0.025  11.999  18.611  0.00  0.00    +0.000 A 
ATOM      5  N   UNL     1      -0.696  13.110  18.766  0.00  0.00    +0.000 NA
ATOM      6  C   UNL     1      -0.030  14.266  18.744  0.00  0.00    +0.000 A 
ATOM      7  N   UNL     1       1.287  14.412  18.572  0.00  0.00    +0.000 NA
ATOM      8  C   UNL     1       2.003  13.287  18.389  0.00  0.00    +0.000 A 
ATOM      9  N   UNL     1       3.390  13.394  18.167  0.00  0.00    +0.000 N 
ATOM     10  C   UNL     1       4.231  14.430  18.574  0.00  0.00    +0.000 A 
ATOM     11  C   UNL     1       4.028  15.087  19.776  0.00  0.00    +0.000 A 
ATOM     12  C   UNL     1       4.943  16.046  20.123  0.00  0.00    +0.000 A 
ATOM     13  N   UNL     1       6.006  16.360  19.364  0.00  0.00    +0.000 NA
ATOM     14  C   UNL     1       6.125  15.661  18.227  0.00  0.00    +0.000 A 
ATOM     15  N   UNL     1       5.295  14.697  17.793  0.00  0.00    +0.000 NA
ATOM     16  C   UNL     1       1.409  12.015  18.418  0.00  0.00    +0.000 A 
ATOM     17  C   UNL     1       2.118  10.791  18.305  0.00  0.00    +0.000 A 
ATOM     18  H   UNL     1       3.672  13.064  17.252  0.00  0.00    +0.000 HD
ENDROOT
BRANCH   1  21
ATOM     19  C   UNL     1       4.127   7.038  17.351  0.00  0.00    +0.000 A 
ATOM     20  C   UNL     1       3.398   8.220  17.426  0.00  0.00    +0.000 A 
ATOM     21  C   UNL     1       2.206   8.281  18.159  0.00  0.00    +0.000 A 
ATOM     22  C   UNL     1       1.753   7.090  18.766  0.00  0.00    +0.000 A 
ATOM     23  C   UNL     1       2.452   5.876  18.701  0.00  0.00    +0.000 A 
ATOM     24  C   UNL     1       3.660   5.889  17.991  0.00  0.00    +0.000 A 
BRANCH  23  25
ATOM     25  N   UNL     1       2.010   4.742  19.346  0.00  0.00    +0.000 N 
ATOM     26  C   UNL     1       1.777   4.669  20.797  0.00  0.00    +0.000 C 
ATOM     27  C   UNL     1       2.297   3.315  21.317  0.00  0.00    +0.000 C 
ATOM     28  O   UNL     1       1.732   2.203  20.602  0.00  0.00    +0.000 OA
ATOM     29  C   UNL     1       2.020   2.309  19.196  0.00  0.00    +0.000 C 
ATOM     30  C   UNL     1       1.436   3.604  18.613  0.00  0.00    +0.000 C 
ENDBRANCH  23  25
ENDBRANCH   1  21
TORSDOF 2
ENDMDL
MODEL 9
REMARK VINA RESULT:      -7.9      3.273     10.280
REMARK  Name = 
REMARK  2 active torsions:
REMARK  status: ('A' for Active; 'I' for Inactive)
REMARK    1  A    between atoms: C_3  and  C_4
REMARK    2  A    between atoms: C_22  and  N_23
REMARK                            x       y       z     vdW  Elec       q    Type
REMARK                         _______ _______ _______ _____ _____    ______ ____
ROOT
ATOM      1  C   UNL     1       1.251   9.902  19.430  0.00  0.00    +0.000 A 
ATOM      2  C   UNL     1       1.856  10.652  18.416  0.00  0.00    +0.000 A 
ATOM      3  C   UNL     1       1.521  11.995  18.209  0.00  0.00    +0.000 A 
ATOM      4  C   UNL     1       0.591  12.647  19.002  0.00  0.00    +0.000 A 
ATOM      5  N   UNL     1       0.305  13.923  18.742  0.00  0.00    +0.000 NA
ATOM      6  C   UNL     1      -0.615  14.502  19.515  0.00  0.00    +0.000 A 
ATOM      7  N   UNL     1      -1.266  13.926  20.530  0.00  0.00    +0.000 NA
ATOM      8  C   UNL     1      -0.950  12.646  20.803  0.00  0.00    +0.000 A 
ATOM      9  N   UNL     1      -1.584  12.008  21.887  0.00  0.00    +0.000 N 
ATOM     10  C   UNL     1      -2.830  12.317  22.436  0.00  0.00    +0.000 A 
ATOM     11  C   UNL     1      -3.875  12.752  21.639  0.00  0.00    +0.000 A 
ATOM     12  C   UNL     1      -5.079  12.968  22.258  0.00  0.00    +0.000 A 
ATOM     13  N   UNL     1      -5.280  12.772  23.572  0.00  0.00    +0.000 NA
ATOM     14  C   UNL     1      -4.212  12.337  24.255  0.00  0.00    +0.000 A 
ATOM     15  N   UNL     1      -2.992  12.086  23.754  0.00  0.00    +0.000 NA
ATOM     16  C   UNL     1      -0.015  11.931  20.038  0.00  0.00    +0.000 A 
ATOM     17  C   UNL     1       0.306  10.562  20.229  0.00  0.00    +0.000 A 
ATOM     18  H   UNL     1      -0.941  11.744  22.624  0.00  0.00    +0.000 HD
ENDROOT
BRANCH   1  21
ATOM     19  C   UNL     1       1.482   6.452  20.983  0.00  0.00    +0.000 A 
ATOM     20  C   UNL     1       1.200   7.805  20.821  0.00  0.00    +0.000 A 
ATOM     21  C   UNL     1       1.626   8.493  19.678  0.00  0.00    +0.000 A 
ATOM     22  C   UNL     1       2.392   7.776  18.734  0.00  0.00    +0.000 A 
ATOM     23  C   UNL     1       2.709   6.417  18.870  0.00  0.00    +0.000 A 
ATOM     24  C   UNL     1       2.217   5.772  20.012  0.00  0.00    +0.000 A 
BRANCH  23  25
ATOM     25  N   UNL     1       3.417   5.730  17.907  0.00  0.00    +0.000 N 
ATOM     26  C   UNL     1       3.064   4.378  17.447  0.00  0.00    +0.000 C 
ATOM     27  C   UNL     1       4.357   3.557  17.278  0.00  0.00    +0.000 C 
ATOM     28  O   UNL     1       5.309   4.210  16.421  0.00  0.00    +0.000 OA
ATOM     29  C   UNL     1       5.642   5.511  16.938  0.00  0.00    +0.000 C 
ATOM     30  C   UNL     1       4.394   6.399  17.035  0.00  0.00    +0.000 C 
ENDBRANCH  23  25
ENDBRANCH   1  21
TORSDOF 2
ENDMDL
