MODEL 1
REMARK VINA RESULT:      -8.5      0.000      0.000
REMARK  Name = 
REMARK  4 active torsions:
REMARK  status: ('A' for Active; 'I' for Inactive)
REMARK    1  A    between atoms: C_1  and  C_2
REMARK    2  A    between atoms: C_3  and  C_4
REMARK    3  A    between atoms: C_7  and  O_8
REMARK    4  A    between atoms: O_8  and  C_9
REMARK                            x       y       z     vdW  Elec       q    Type
REMARK                         _______ _______ _______ _____ _____    ______ ____
ROOT
ATOM      1  C   UNL     1       1.511   9.398  18.837  0.00  0.00    +0.000 A 
ATOM      2  C   UNL     1       2.208   8.872  17.748  0.00  0.00    +0.000 A 
ATOM      3  C   UNL     1       2.861   7.627  17.841  0.00  0.00    +0.000 A 
ATOM      4  C   UNL     1       2.841   6.894  19.026  0.00  0.00    +0.000 A 
ATOM      5  C   UNL     1       2.102   7.394  20.106  0.00  0.00    +0.000 A 
ATOM      6  C   UNL     1       1.452   8.638  20.016  0.00  0.00    +0.000 A 
ENDROOT
BRANCH   1   9
ATOM      7  C   UNL     1      -1.483   9.845  18.404  0.00  0.00    +0.000 C 
ATOM      8  C   UNL     1      -0.445  10.907  18.590  0.00  0.00    +0.000 A 
ATOM      9  C   UNL     1       0.885  10.740  18.759  0.00  0.00    +0.000 A 
ATOM     10  N   UNL     1       1.767  11.798  18.864  0.00  0.00    +0.000 N 
ATOM     11  C   UNL     1       1.348  13.134  18.809  0.00  0.00    +0.000 A 
ATOM     12  C   UNL     1       2.264  14.186  18.909  0.00  0.00    +0.000 A 
ATOM     13  C   UNL     1       1.823  15.514  18.895  0.00  0.00    +0.000 A 
ATOM     14  C   UNL     1       0.462  15.803  18.793  0.00  0.00    +0.000 A 
ATOM     15  C   UNL     1      -0.462  14.763  18.691  0.00  0.00    +0.000 A 
ATOM     16  C   UNL     1      -0.016  13.436  18.694  0.00  0.00    +0.000 A 
ATOM     17  C   UNL     1      -0.984  12.317  18.564  0.00  0.00    +0.000 A 
ATOM     18  O   UNL     1      -2.183  12.542  18.441  0.00  0.00    +0.000 OA
ATOM     19  H   UNL     1       2.757  11.592  18.882  0.00  0.00    +0.000 HD
ENDBRANCH   1   9
BRANCH   4  20
ATOM     20  O   UNL     1       3.475   5.681  19.207  0.00  0.00    +0.000 OA
BRANCH  20  21
ATOM     21  C   UNL     1       2.942   4.582  18.436  0.00  0.00    +0.000 C 
ATOM     22  C   UNL     1       1.430   4.424  18.665  0.00  0.00    +0.000 C 
ATOM     23  C   UNL     1       1.038   3.749  19.979  0.00  0.00    +0.000 C 
ATOM     24  C   UNL     1       1.814   2.476  20.248  0.00  0.00    +0.000 C 
ATOM     25  F   UNL     1       1.380   1.507  19.398  0.00  0.00    +0.000 F 
ATOM     26  F   UNL     1       1.533   2.034  21.501  0.00  0.00    +0.000 F 
ATOM     27  C   UNL     1       3.314   2.631  20.094  0.00  0.00    +0.000 C 
ATOM     28  C   UNL     1       3.701   3.286  18.770  0.00  0.00    +0.000 C 
ENDBRANCH  20  21
ENDBRANCH   4  20
TORSDOF 3
ENDMDL
MODEL 2
REMARK VINA RESULT:      -8.4      2.258      2.638
REMARK  Name = 
REMARK  4 active torsions:
REMARK  status: ('A' for Active; 'I' for Inactive)
REMARK    1  A    between atoms: C_1  and  C_2
REMARK    2  A    between atoms: C_3  and  C_4
REMARK    3  A    between atoms: C_7  and  O_8
REMARK    4  A    between atoms: O_8  and  C_9
REMARK                            x       y       z     vdW  Elec       q    Type
REMARK                         _______ _______ _______ _____ _____    ______ ____
ROOT
ATOM      1  C   UNL     1       0.794   9.263  19.677  0.00  0.00    +0.000 A 
ATOM      2  C   UNL     1       1.020   8.288  20.651  0.00  0.00    +0.000 A 
ATOM      3  C   UNL     1       1.925   7.234  20.421  0.00  0.00    +0.000 A 
ATOM      4  C   UNL     1       2.609   7.127  19.211  0.00  0.00    +0.000 A 
ATOM      5  C   UNL     1       2.422   8.128  18.250  0.00  0.00    +0.000 A 
ATOM      6  C   UNL     1       1.516   9.180  18.476  0.00  0.00    +0.000 A 
ENDROOT
BRANCH   1   9
ATOM      7  C   UNL     1      -1.344  10.014  17.624  0.00  0.00    +0.000 C 
ATOM      8  C   UNL     1      -1.160  10.626  18.977  0.00  0.00    +0.000 A 
ATOM      9  C   UNL     1      -0.213  10.331  19.894  0.00  0.00    +0.000 A 
ATOM     10  N   UNL     1      -0.096  11.002  21.096  0.00  0.00    +0.000 N 
ATOM     11  C   UNL     1      -0.962  12.040  21.463  0.00  0.00    +0.000 A 
ATOM     12  C   UNL     1      -0.815  12.708  22.683  0.00  0.00    +0.000 A 
ATOM     13  C   UNL     1      -1.715  13.715  23.054  0.00  0.00    +0.000 A 
ATOM     14  C   UNL     1      -2.775  14.055  22.213  0.00  0.00    +0.000 A 
ATOM     15  C   UNL     1      -2.931  13.398  20.991  0.00  0.00    +0.000 A 
ATOM     16  C   UNL     1      -2.022  12.399  20.621  0.00  0.00    +0.000 A 
ATOM     17  C   UNL     1      -2.160  11.705  19.315  0.00  0.00    +0.000 A 
ATOM     18  O   UNL     1      -3.063  12.006  18.542  0.00  0.00    +0.000 OA
ATOM     19  H   UNL     1       0.703  10.795  21.680  0.00  0.00    +0.000 HD
ENDBRANCH   1   9
BRANCH   4  20
ATOM     20  O   UNL     1       3.491   6.112  18.898  0.00  0.00    +0.000 OA
BRANCH  20  21
ATOM     21  C   UNL     1       3.162   5.347  17.718  0.00  0.00    +0.000 C 
ATOM     22  C   UNL     1       1.728   4.798  17.792  0.00  0.00    +0.000 C 
ATOM     23  C   UNL     1       1.547   3.573  18.688  0.00  0.00    +0.000 C 
ATOM     24  C   UNL     1       2.581   2.495  18.439  0.00  0.00    +0.000 C 
ATOM     25  F   UNL     1       2.319   1.900  17.245  0.00  0.00    +0.000 F 
ATOM     26  F   UNL     1       2.457   1.526  19.382  0.00  0.00    +0.000 F 
ATOM     27  C   UNL     1       4.008   3.008  18.431  0.00  0.00    +0.000 C 
ATOM     28  C   UNL     1       4.188   4.219  17.517  0.00  0.00    +0.000 C 
ENDBRANCH  20  21
ENDBRANCH   4  20
TORSDOF 3
ENDMDL
MODEL 3
REMARK VINA RESULT:      -8.4      7.148     10.074
REMARK  Name = 
REMARK  4 active torsions:
REMARK  status: ('A' for Active; 'I' for Inactive)
REMARK    1  A    between atoms: C_1  and  C_2
REMARK    2  A    between atoms: C_3  and  C_4
REMARK    3  A    between atoms: C_7  and  O_8
REMARK    4  A    between atoms: O_8  and  C_9
REMARK                            x       y       z     vdW  Elec       q    Type
REMARK                         _______ _______ _______ _____ _____    ______ ____
ROOT
ATOM      1  C   UNL     1       6.149   6.200  18.174  0.00  0.00    +0.000 A 
ATOM      2  C   UNL     1       5.895   7.315  17.373  0.00  0.00    +0.000 A 
ATOM      3  C   UNL     1       6.834   8.360  17.270  0.00  0.00    +0.000 A 
ATOM      4  C   UNL     1       8.035   8.317  17.976  0.00  0.00    +0.000 A 
ATOM      5  C   UNL     1       8.316   7.179  18.743  0.00  0.00    +0.000 A 
ATOM      6  C   UNL     1       7.378   6.135  18.849  0.00  0.00    +0.000 A 
ENDROOT
BRANCH   1   9
ATOM      7  C   UNL     1       5.839   3.848  16.245  0.00  0.00    +0.000 C 
ATOM      8  C   UNL     1       5.031   4.095  17.480  0.00  0.00    +0.000 A 
ATOM      9  C   UNL     1       5.130   5.135  18.336  0.00  0.00    +0.000 A 
ATOM     10  N   UNL     1       4.289   5.297  19.421  0.00  0.00    +0.000 N 
ATOM     11  C   UNL     1       3.269   4.387  19.723  0.00  0.00    +0.000 A 
ATOM     12  C   UNL     1       2.427   4.581  20.822  0.00  0.00    +0.000 A 
ATOM     13  C   UNL     1       1.439   3.639  21.135  0.00  0.00    +0.000 A 
ATOM     14  C   UNL     1       1.292   2.490  20.357  0.00  0.00    +0.000 A 
ATOM     15  C   UNL     1       2.124   2.286  19.256  0.00  0.00    +0.000 A 
ATOM     16  C   UNL     1       3.103   3.236  18.941  0.00  0.00    +0.000 A 
ATOM     17  C   UNL     1       3.983   3.045  17.760  0.00  0.00    +0.000 A 
ATOM     18  O   UNL     1       3.855   2.061  17.040  0.00  0.00    +0.000 OA
ATOM     19  H   UNL     1       4.359   6.156  19.951  0.00  0.00    +0.000 HD
ENDBRANCH   1   9
BRANCH   4  20
ATOM     20  O   UNL     1       8.994   9.310  17.950  0.00  0.00    +0.000 OA
BRANCH  20  21
ATOM     21  C   UNL     1       8.648  10.523  18.653  0.00  0.00    +0.000 C 
ATOM     22  C   UNL     1       8.795  11.754  17.745  0.00  0.00    +0.000 C 
ATOM     23  C   UNL     1      10.229  12.237  17.531  0.00  0.00    +0.000 C 
ATOM     24  C   UNL     1      11.015  12.356  18.820  0.00  0.00    +0.000 C 
ATOM     25  F   UNL     1      10.555  13.426  19.520  0.00  0.00    +0.000 F 
ATOM     26  F   UNL     1      12.315  12.622  18.531  0.00  0.00    +0.000 F 
ATOM     27  C   UNL     1      10.937  11.122  19.699  0.00  0.00    +0.000 C 
ATOM     28  C   UNL     1       9.501  10.657  19.926  0.00  0.00    +0.000 C 
ENDBRANCH  20  21
ENDBRANCH   4  20
TORSDOF 3
ENDMDL
MODEL 4
REMARK VINA RESULT:      -8.4      0.897      1.449
REMARK  Name = 
REMARK  4 active torsions:
REMARK  status: ('A' for Active; 'I' for Inactive)
REMARK    1  A    between atoms: C_1  and  C_2
REMARK    2  A    between atoms: C_3  and  C_4
REMARK    3  A    between atoms: C_7  and  O_8
REMARK    4  A    between atoms: O_8  and  C_9
REMARK                            x       y       z     vdW  Elec       q    Type
REMARK                         _______ _______ _______ _____ _____    ______ ____
ROOT
ATOM      1  C   UNL     1       1.405   9.603  18.943  0.00  0.00    +0.000 A 
ATOM      2  C   UNL     1       1.983   9.006  17.821  0.00  0.00    +0.000 A 
ATOM      3  C   UNL     1       2.523   7.706  17.893  0.00  0.00    +0.000 A 
ATOM      4  C   UNL     1       2.508   6.988  19.086  0.00  0.00    +0.000 A 
ATOM      5  C   UNL     1       1.886   7.563  20.202  0.00  0.00    +0.000 A 
ATOM      6  C   UNL     1       1.348   8.861  20.134  0.00  0.00    +0.000 A 
ENDROOT
BRANCH   1   9
ATOM      7  C   UNL     1      -1.566  10.327  18.895  0.00  0.00    +0.000 C 
ATOM      8  C   UNL     1      -0.418  11.288  18.887  0.00  0.00    +0.000 A 
ATOM      9  C   UNL     1       0.901  10.997  18.885  0.00  0.00    +0.000 A 
ATOM     10  N   UNL     1       1.884  11.966  18.818  0.00  0.00    +0.000 N 
ATOM     11  C   UNL     1       1.587  13.333  18.756  0.00  0.00    +0.000 A 
ATOM     12  C   UNL     1       2.602  14.292  18.680  0.00  0.00    +0.000 A 
ATOM     13  C   UNL     1       2.289  15.657  18.661  0.00  0.00    +0.000 A 
ATOM     14  C   UNL     1       0.960  16.074  18.728  0.00  0.00    +0.000 A 
ATOM     15  C   UNL     1      -0.063  15.127  18.802  0.00  0.00    +0.000 A 
ATOM     16  C   UNL     1       0.255  13.764  18.809  0.00  0.00    +0.000 A 
ATOM     17  C   UNL     1      -0.822  12.742  18.865  0.00  0.00    +0.000 A 
ATOM     18  O   UNL     1      -2.000  13.080  18.893  0.00  0.00    +0.000 OA
ATOM     19  H   UNL     1       2.843  11.663  18.713  0.00  0.00    +0.000 HD
ENDBRANCH   1   9
BRANCH   4  20
ATOM     20  O   UNL     1       3.038   5.723  19.245  0.00  0.00    +0.000 OA
BRANCH  20  21
ATOM     21  C   UNL     1       2.087   4.692  19.589  0.00  0.00    +0.000 C 
ATOM     22  C   UNL     1       2.720   3.634  20.507  0.00  0.00    +0.000 C 
ATOM     23  C   UNL     1       3.626   2.623  19.806  0.00  0.00    +0.000 C 
ATOM     24  C   UNL     1       3.002   2.028  18.560  0.00  0.00    +0.000 C 
ATOM     25  F   UNL     1       2.011   1.174  18.928  0.00  0.00    +0.000 F 
ATOM     26  F   UNL     1       3.927   1.278  17.908  0.00  0.00    +0.000 F 
ATOM     27  C   UNL     1       2.433   3.063  17.609  0.00  0.00    +0.000 C 
ATOM     28  C   UNL     1       1.511   4.057  18.311  0.00  0.00    +0.000 C 
ENDBRANCH  20  21
ENDBRANCH   4  20
TORSDOF 3
ENDMDL
MODEL 5
REMARK VINA RESULT:      -8.3      1.629      1.722
REMARK  Name = 
REMARK  4 active torsions:
REMARK  status: ('A' for Active; 'I' for Inactive)
REMARK    1  A    between atoms: C_1  and  C_2
REMARK    2  A    between atoms: C_3  and  C_4
REMARK    3  A    between atoms: C_7  and  O_8
REMARK    4  A    between atoms: O_8  and  C_9
REMARK                            x       y       z     vdW  Elec       q    Type
REMARK                         _______ _______ _______ _____ _____    ______ ____
ROOT
ATOM      1  C   UNL     1       0.933   9.495  19.432  0.00  0.00    +0.000 A 
ATOM      2  C   UNL     1       1.562   9.281  18.203  0.00  0.00    +0.000 A 
ATOM      3  C   UNL     1       2.383   8.155  17.999  0.00  0.00    +0.000 A 
ATOM      4  C   UNL     1       2.601   7.231  19.020  0.00  0.00    +0.000 A 
ATOM      5  C   UNL     1       1.934   7.415  20.238  0.00  0.00    +0.000 A 
ATOM      6  C   UNL     1       1.116   8.541  20.445  0.00  0.00    +0.000 A 
ENDROOT
BRANCH   1   9
ATOM      7  C   UNL     1      -1.859   9.931  18.264  0.00  0.00    +0.000 C 
ATOM      8  C   UNL     1      -1.114  10.873  19.157  0.00  0.00    +0.000 A 
ATOM      9  C   UNL     1       0.127  10.718  19.667  0.00  0.00    +0.000 A 
ATOM     10  N   UNL     1       0.748  11.682  20.438  0.00  0.00    +0.000 N 
ATOM     11  C   UNL     1       0.133  12.899  20.758  0.00  0.00    +0.000 A 
ATOM     12  C   UNL     1       0.789  13.861  21.533  0.00  0.00    +0.000 A 
ATOM     13  C   UNL     1       0.143  15.054  21.879  0.00  0.00    +0.000 A 
ATOM     14  C   UNL     1      -1.167  15.291  21.463  0.00  0.00    +0.000 A 
ATOM     15  C   UNL     1      -1.832  14.340  20.687  0.00  0.00    +0.000 A 
ATOM     16  C   UNL     1      -1.178  13.153  20.334  0.00  0.00    +0.000 A 
ATOM     17  C   UNL     1      -1.863  12.141  19.491  0.00  0.00    +0.000 A 
ATOM     18  O   UNL     1      -3.003  12.336  19.084  0.00  0.00    +0.000 OA
ATOM     19  H   UNL     1       1.716  11.535  20.693  0.00  0.00    +0.000 HD
ENDBRANCH   1   9
BRANCH   4  20
ATOM     20  O   UNL     1       3.409   6.118  18.908  0.00  0.00    +0.000 OA
BRANCH  20  21
ATOM     21  C   UNL     1       3.173   5.295  17.746  0.00  0.00    +0.000 C 
ATOM     22  C   UNL     1       1.734   4.754  17.729  0.00  0.00    +0.000 C 
ATOM     23  C   UNL     1       1.471   3.578  18.668  0.00  0.00    +0.000 C 
ATOM     24  C   UNL     1       2.514   2.485  18.561  0.00  0.00    +0.000 C 
ATOM     25  F   UNL     1       2.347   1.830  17.381  0.00  0.00    +0.000 F 
ATOM     26  F   UNL     1       2.305   1.566  19.538  0.00  0.00    +0.000 F 
ATOM     27  C   UNL     1       3.941   2.993  18.644  0.00  0.00    +0.000 C 
ATOM     28  C   UNL     1       4.204   4.154  17.688  0.00  0.00    +0.000 C 
ENDBRANCH  20  21
ENDBRANCH   4  20
TORSDOF 3
ENDMDL
MODEL 6
REMARK VINA RESULT:      -8.2      0.872      1.371
REMARK  Name = 
REMARK  4 active torsions:
REMARK  status: ('A' for Active; 'I' for Inactive)
REMARK    1  A    between atoms: C_1  and  C_2
REMARK    2  A    between atoms: C_3  and  C_4
REMARK    3  A    between atoms: C_7  and  O_8
REMARK    4  A    between atoms: O_8  and  C_9
REMARK                            x       y       z     vdW  Elec       q    Type
REMARK                         _______ _______ _______ _____ _____    ______ ____
ROOT
ATOM      1  C   UNL     1       1.494   9.709  18.970  0.00  0.00    +0.000 A 
ATOM      2  C   UNL     1       1.373   8.943  20.131  0.00  0.00    +0.000 A 
ATOM      3  C   UNL     1       1.911   7.643  20.197  0.00  0.00    +0.000 A 
ATOM      4  C   UNL     1       2.565   7.080  19.103  0.00  0.00    +0.000 A 
ATOM      5  C   UNL     1       2.731   7.862  17.952  0.00  0.00    +0.000 A 
ATOM      6  C   UNL     1       2.192   9.160  17.883  0.00  0.00    +0.000 A 
ENDROOT
BRANCH   1   9
ATOM      7  C   UNL     1      -1.518  10.148  18.677  0.00  0.00    +0.000 C 
ATOM      8  C   UNL     1      -0.471  11.214  18.771  0.00  0.00    +0.000 A 
ATOM      9  C   UNL     1       0.865  11.050  18.878  0.00  0.00    +0.000 A 
ATOM     10  N   UNL     1       1.752  12.108  18.900  0.00  0.00    +0.000 N 
ATOM     11  C   UNL     1       1.332  13.442  18.821  0.00  0.00    +0.000 A 
ATOM     12  C   UNL     1       2.253  14.495  18.836  0.00  0.00    +0.000 A 
ATOM     13  C   UNL     1       1.813  15.823  18.799  0.00  0.00    +0.000 A 
ATOM     14  C   UNL     1       0.449  16.111  18.758  0.00  0.00    +0.000 A 
ATOM     15  C   UNL     1      -0.481  15.070  18.740  0.00  0.00    +0.000 A 
ATOM     16  C   UNL     1      -0.035  13.743  18.765  0.00  0.00    +0.000 A 
ATOM     17  C   UNL     1      -1.010  12.623  18.724  0.00  0.00    +0.000 A 
ATOM     18  O   UNL     1      -2.214  12.846  18.656  0.00  0.00    +0.000 OA
ATOM     19  H   UNL     1       2.742  11.900  18.874  0.00  0.00    +0.000 HD
ENDBRANCH   1   9
BRANCH   4  20
ATOM     20  O   UNL     1       3.096   5.806  19.078  0.00  0.00    +0.000 OA
BRANCH  20  21
ATOM     21  C   UNL     1       2.941   5.095  17.831  0.00  0.00    +0.000 C 
ATOM     22  C   UNL     1       1.537   4.484  17.708  0.00  0.00    +0.000 C 
ATOM     23  C   UNL     1       1.311   3.206  18.513  0.00  0.00    +0.000 C 
ATOM     24  C   UNL     1       2.417   2.186  18.334  0.00  0.00    +0.000 C 
ATOM     25  F   UNL     1       2.323   1.648  17.089  0.00  0.00    +0.000 F 
ATOM     26  F   UNL     1       2.230   1.162  19.206  0.00  0.00    +0.000 F 
ATOM     27  C   UNL     1       3.809   2.757  18.520  0.00  0.00    +0.000 C 
ATOM     28  C   UNL     1       4.036   4.022  17.696  0.00  0.00    +0.000 C 
ENDBRANCH  20  21
ENDBRANCH   4  20
TORSDOF 3
ENDMDL
MODEL 7
REMARK VINA RESULT:      -8.2      4.428      8.760
REMARK  Name = 
REMARK  4 active torsions:
REMARK  status: ('A' for Active; 'I' for Inactive)
REMARK    1  A    between atoms: C_1  and  C_2
REMARK    2  A    between atoms: C_3  and  C_4
REMARK    3  A    between atoms: C_7  and  O_8
REMARK    4  A    between atoms: O_8  and  C_9
REMARK                            x       y       z     vdW  Elec       q    Type
REMARK                         _______ _______ _______ _____ _____    ______ ____
ROOT
ATOM      1  C   UNL     1       2.204   7.590  18.667  0.00  0.00    +0.000 A 
ATOM      2  C   UNL     1       1.711   8.612  17.853  0.00  0.00    +0.000 A 
ATOM      3  C   UNL     1       0.909   9.639  18.388  0.00  0.00    +0.000 A 
ATOM      4  C   UNL     1       0.574   9.656  19.741  0.00  0.00    +0.000 A 
ATOM      5  C   UNL     1       1.105   8.661  20.571  0.00  0.00    +0.000 A 
ATOM      6  C   UNL     1       1.904   7.632  20.038  0.00  0.00    +0.000 A 
ENDROOT
BRANCH   1   9
ATOM      7  C   UNL     1       1.475   4.644  19.039  0.00  0.00    +0.000 C 
ATOM      8  C   UNL     1       2.629   5.180  18.251  0.00  0.00    +0.000 A 
ATOM      9  C   UNL     1       2.988   6.472  18.089  0.00  0.00    +0.000 A 
ATOM     10  N   UNL     1       4.112   6.856  17.384  0.00  0.00    +0.000 N 
ATOM     11  C   UNL     1       4.968   5.930  16.773  0.00  0.00    +0.000 A 
ATOM     12  C   UNL     1       6.105   6.347  16.073  0.00  0.00    +0.000 A 
ATOM     13  C   UNL     1       6.926   5.412  15.432  0.00  0.00    +0.000 A 
ATOM     14  C   UNL     1       6.612   4.053  15.476  0.00  0.00    +0.000 A 
ATOM     15  C   UNL     1       5.482   3.624  16.174  0.00  0.00    +0.000 A 
ATOM     16  C   UNL     1       4.670   4.562  16.822  0.00  0.00    +0.000 A 
ATOM     17  C   UNL     1       3.476   4.121  17.587  0.00  0.00    +0.000 A 
ATOM     18  O   UNL     1       3.193   2.931  17.669  0.00  0.00    +0.000 OA
ATOM     19  H   UNL     1       4.371   7.834  17.398  0.00  0.00    +0.000 HD
ENDBRANCH   1   9
BRANCH   4  20
ATOM     20  O   UNL     1      -0.226  10.610  20.337  0.00  0.00    +0.000 OA
BRANCH  20  21
ATOM     21  C   UNL     1       0.307  11.200  21.542  0.00  0.00    +0.000 C 
ATOM     22  C   UNL     1      -0.563  10.858  22.762  0.00  0.00    +0.000 C 
ATOM     23  C   UNL     1      -1.854  11.666  22.887  0.00  0.00    +0.000 C 
ATOM     24  C   UNL     1      -1.643  13.155  22.711  0.00  0.00    +0.000 C 
ATOM     25  F   UNL     1      -1.004  13.643  23.807  0.00  0.00    +0.000 F 
ATOM     26  F   UNL     1      -2.849  13.778  22.665  0.00  0.00    +0.000 F 
ATOM     27  C   UNL     1      -0.843  13.516  21.473  0.00  0.00    +0.000 C 
ATOM     28  C   UNL     1       0.456  12.721  21.365  0.00  0.00    +0.000 C 
ENDBRANCH  20  21
ENDBRANCH   4  20
TORSDOF 3
ENDMDL
MODEL 8
REMARK VINA RESULT:      -8.2      1.262      1.484
REMARK  Name = 
REMARK  4 active torsions:
REMARK  status: ('A' for Active; 'I' for Inactive)
REMARK    1  A    between atoms: C_1  and  C_2
REMARK    2  A    between atoms: C_3  and  C_4
REMARK    3  A    between atoms: C_7  and  O_8
REMARK    4  A    between atoms: O_8  and  C_9
REMARK                            x       y       z     vdW  Elec       q    Type
REMARK                         _______ _______ _______ _____ _____    ______ ____
ROOT
ATOM      1  C   UNL     1       1.433   9.989  19.033  0.00  0.00    +0.000 A 
ATOM      2  C   UNL     1       1.900   9.339  17.889  0.00  0.00    +0.000 A 
ATOM      3  C   UNL     1       2.294   7.987  17.936  0.00  0.00    +0.000 A 
ATOM      4  C   UNL     1       2.243   7.267  19.128  0.00  0.00    +0.000 A 
ATOM      5  C   UNL     1       1.730   7.900  20.268  0.00  0.00    +0.000 A 
ATOM      6  C   UNL     1       1.338   9.250  20.223  0.00  0.00    +0.000 A 
ENDROOT
BRANCH   1   9
ATOM      7  C   UNL     1      -1.359  11.072  19.649  0.00  0.00    +0.000 C 
ATOM      8  C   UNL     1      -0.152  11.882  19.296  0.00  0.00    +0.000 A 
ATOM      9  C   UNL     1       1.086  11.431  18.997  0.00  0.00    +0.000 A 
ATOM     10  N   UNL     1       2.121  12.267  18.626  0.00  0.00    +0.000 N 
ATOM     11  C   UNL     1       1.969  13.657  18.538  0.00  0.00    +0.000 A 
ATOM     12  C   UNL     1       3.031  14.479  18.150  0.00  0.00    +0.000 A 
ATOM     13  C   UNL     1       2.874  15.870  18.109  0.00  0.00    +0.000 A 
ATOM     14  C   UNL     1       1.657  16.450  18.464  0.00  0.00    +0.000 A 
ATOM     15  C   UNL     1       0.588  15.641  18.850  0.00  0.00    +0.000 A 
ATOM     16  C   UNL     1       0.746  14.250  18.879  0.00  0.00    +0.000 A 
ATOM     17  C   UNL     1      -0.387  13.373  19.267  0.00  0.00    +0.000 A 
ATOM     18  O   UNL     1      -1.478  13.854  19.554  0.00  0.00    +0.000 OA
ATOM     19  H   UNL     1       2.985  11.844  18.315  0.00  0.00    +0.000 HD
ENDBRANCH   1   9
BRANCH   4  20
ATOM     20  O   UNL     1       2.635   5.950  19.264  0.00  0.00    +0.000 OA
BRANCH  20  21
ATOM     21  C   UNL     1       2.252   5.076  18.180  0.00  0.00    +0.000 C 
ATOM     22  C   UNL     1       1.405   3.897  18.686  0.00  0.00    +0.000 C 
ATOM     23  C   UNL     1       2.190   2.778  19.369  0.00  0.00    +0.000 C 
ATOM     24  C   UNL     1       3.405   2.336  18.580  0.00  0.00    +0.000 C 
ATOM     25  F   UNL     1       2.991   1.642  17.486  0.00  0.00    +0.000 F 
ATOM     26  F   UNL     1       4.135   1.469  19.327  0.00  0.00    +0.000 F 
ATOM     27  C   UNL     1       4.290   3.482  18.130  0.00  0.00    +0.000 C 
ATOM     28  C   UNL     1       3.504   4.587  17.429  0.00  0.00    +0.000 C 
ENDBRANCH  20  21
ENDBRANCH   4  20
TORSDOF 3
ENDMDL
MODEL 9
REMARK VINA RESULT:      -8.1      1.574      1.905
REMARK  Name = 
REMARK  4 active torsions:
REMARK  status: ('A' for Active; 'I' for Inactive)
REMARK    1  A    between atoms: C_1  and  C_2
REMARK    2  A    between atoms: C_3  and  C_4
REMARK    3  A    between atoms: C_7  and  O_8
REMARK    4  A    between atoms: O_8  and  C_9
REMARK                            x       y       z     vdW  Elec       q    Type
REMARK                         _______ _______ _______ _____ _____    ______ ____
ROOT
ATOM      1  C   UNL     1       1.251   9.391  19.169  0.00  0.00    +0.000 A 
ATOM      2  C   UNL     1       1.318   8.427  20.177  0.00  0.00    +0.000 A 
ATOM      3  C   UNL     1       2.111   7.273  20.021  0.00  0.00    +0.000 A 
ATOM      4  C   UNL     1       2.839   7.056  18.853  0.00  0.00    +0.000 A 
ATOM      5  C   UNL     1       2.814   8.042  17.859  0.00  0.00    +0.000 A 
ATOM      6  C   UNL     1       2.020   9.194  18.011  0.00  0.00    +0.000 A 
ENDROOT
BRANCH   1   9
ATOM      7  C   UNL     1      -1.342   9.742  17.588  0.00  0.00    +0.000 C 
ATOM      8  C   UNL     1      -0.791  10.687  18.610  0.00  0.00    +0.000 A 
ATOM      9  C   UNL     1       0.361  10.569  19.306  0.00  0.00    +0.000 A 
ATOM     10  N   UNL     1       0.806  11.534  20.188  0.00  0.00    +0.000 N 
ATOM     11  C   UNL     1       0.091  12.712  20.438  0.00  0.00    +0.000 A 
ATOM     12  C   UNL     1       0.571  13.676  21.330  0.00  0.00    +0.000 A 
ATOM     13  C   UNL     1      -0.178  14.828  21.600  0.00  0.00    +0.000 A 
ATOM     14  C   UNL     1      -1.417  15.021  20.988  0.00  0.00    +0.000 A 
ATOM     15  C   UNL     1      -1.906  14.067  20.094  0.00  0.00    +0.000 A 
ATOM     16  C   UNL     1      -1.149  12.922  19.819  0.00  0.00    +0.000 A 
ATOM     17  C   UNL     1      -1.644  11.909  18.854  0.00  0.00    +0.000 A 
ATOM     18  O   UNL     1      -2.714  12.067  18.277  0.00  0.00    +0.000 OA
ATOM     19  H   UNL     1       1.728  11.422  20.589  0.00  0.00    +0.000 HD
ENDBRANCH   1   9
BRANCH   4  20
ATOM     20  O   UNL     1       3.618   5.942  18.612  0.00  0.00    +0.000 OA
BRANCH  20  21
ATOM     21  C   UNL     1       3.222   5.143  17.476  0.00  0.00    +0.000 C 
ATOM     22  C   UNL     1       1.769   4.659  17.615  0.00  0.00    +0.000 C 
ATOM     23  C   UNL     1       1.563   3.483  18.568  0.00  0.00    +0.000 C 
ATOM     24  C   UNL     1       2.543   2.351  18.337  0.00  0.00    +0.000 C 
ATOM     25  F   UNL     1       2.221   1.718  17.178  0.00  0.00    +0.000 F 
ATOM     26  F   UNL     1       2.406   1.429  19.324  0.00  0.00    +0.000 F 
ATOM     27  C   UNL     1       3.990   2.801  18.266  0.00  0.00    +0.000 C 
ATOM     28  C   UNL     1       4.193   3.963  17.296  0.00  0.00    +0.000 C 
ENDBRANCH  20  21
ENDBRANCH   4  20
TORSDOF 3
ENDMDL
