MODEL 1
REMARK VINA RESULT:      -7.6      0.000      0.000
REMARK  Name = 
REMARK  1 active torsions:
REMARK  status: ('A' for Active; 'I' for Inactive)
REMARK    1  A    between atoms: C_1  and  N_2
REMARK                            x       y       z     vdW  Elec       q    Type
REMARK                         _______ _______ _______ _____ _____    ______ ____
ROOT
ATOM      1  C   UNK A   2       6.593   5.393  15.003  0.00  0.00    +0.000 C 
ATOM      2  N   UNK A   2       5.900   5.522  16.246  0.00  0.00    +0.000 N 
ATOM      3  C   UNK A   2       4.884   4.599  16.615  0.00  0.00    +0.000 C 
ATOM      4  O   UNK A   2       4.255   3.841  15.898  0.00  0.00    +0.000 OA
ATOM      5  C   UNK A   2       4.672   4.856  18.147  0.00  0.00    +0.000 C 
ATOM      6  S   UNK A   2       4.242   3.371  19.104  0.00  0.00    +0.000 S 
ATOM      7  C   UNK A   2       3.159   4.298  20.232  0.00  0.00    +0.000 C 
ATOM      8  C   UNK A   2       2.526   5.350  19.336  0.00  0.00    +0.000 C 
ATOM      9  C   UNK A   2       1.987   6.538  20.166  0.00  0.00    +0.000 C 
ATOM     10  O   UNK A   2       1.603   6.439  21.327  0.00  0.00    +0.000 OA
ATOM     11  N   PRO A   1       1.882   7.702  19.434  0.00  0.00    +0.000 N 
ATOM     12  CD  PRO A   1       1.432   8.979  19.943  0.00  0.00    +0.000 C 
ATOM     13  CG  PRO A   1       1.342   9.886  18.721  0.00  0.00    +0.000 C 
ATOM     14  CB  PRO A   1       2.178   9.191  17.654  0.00  0.00    +0.000 C 
ATOM     15  CA  PRO A   1       2.040   7.711  17.994  0.00  0.00    +0.000 C 
ATOM     16  C   PRO A   1       3.277   6.915  17.574  0.00  0.00    +0.000 C 
ATOM     17  O   PRO A   1       3.875   7.222  16.547  0.00  0.00    +0.000 OA
ATOM     18  N   UNK A   2       3.539   5.796  18.368  0.00  0.00    +0.000 N 
ATOM     19  C   UNK A   2       6.017   5.442  18.503  0.00  0.00    +0.000 A 
ATOM     20  C   UNK A   2       6.919   5.253  19.534  0.00  0.00    +0.000 A 
ATOM     21  C   UNK A   2       8.067   6.056  19.569  0.00  0.00    +0.000 A 
ATOM     22  C   UNK A   2       8.254   7.064  18.613  0.00  0.00    +0.000 A 
ATOM     23  C   UNK A   2       7.478   7.059  17.463  0.00  0.00    +0.000 A 
ATOM     24  C   UNK A   2       6.485   6.108  17.382  0.00  0.00    +0.000 A 
ENDROOT
TORSDOF 0
ENDMDL
MODEL 2
REMARK VINA RESULT:      -7.3     10.010     12.701
REMARK  Name = 
REMARK  1 active torsions:
REMARK  status: ('A' for Active; 'I' for Inactive)
REMARK    1  A    between atoms: C_1  and  N_2
REMARK                            x       y       z     vdW  Elec       q    Type
REMARK                         _______ _______ _______ _____ _____    ______ ____
ROOT
ATOM      1  C   UNK A   2      -7.096  12.813  17.589  0.00  0.00    +0.000 C 
ATOM      2  N   UNK A   2      -6.745  12.550  18.949  0.00  0.00    +0.000 N 
ATOM      3  C   UNK A   2      -6.977  13.518  19.964  0.00  0.00    +0.000 C 
ATOM      4  O   UNK A   2      -7.164  14.715  19.837  0.00  0.00    +0.000 OA
ATOM      5  C   UNK A   2      -6.823  12.716  21.301  0.00  0.00    +0.000 C 
ATOM      6  S   UNK A   2      -7.912  13.280  22.645  0.00  0.00    +0.000 S 
ATOM      7  C   UNK A   2      -6.675  12.915  23.925  0.00  0.00    +0.000 C 
ATOM      8  C   UNK A   2      -5.354  13.255  23.254  0.00  0.00    +0.000 C 
ATOM      9  C   UNK A   2      -4.173  12.548  23.959  0.00  0.00    +0.000 C 
ATOM     10  O   UNK A   2      -4.172  12.242  25.147  0.00  0.00    +0.000 OA
ATOM     11  N   PRO A   1      -3.075  12.390  23.140  0.00  0.00    +0.000 N 
ATOM     12  CD  PRO A   1      -1.833  11.746  23.510  0.00  0.00    +0.000 C 
ATOM     13  CG  PRO A   1      -0.897  11.972  22.328  0.00  0.00    +0.000 C 
ATOM     14  CB  PRO A   1      -1.813  12.347  21.169  0.00  0.00    +0.000 C 
ATOM     15  CA  PRO A   1      -2.990  13.041  21.847  0.00  0.00    +0.000 C 
ATOM     16  C   PRO A   1      -4.287  12.858  21.057  0.00  0.00    +0.000 C 
ATOM     17  O   PRO A   1      -4.251  12.842  19.831  0.00  0.00    +0.000 OA
ATOM     18  N   UNK A   2      -5.443  12.856  21.841  0.00  0.00    +0.000 N 
ATOM     19  C   UNK A   2      -7.136  11.323  20.808  0.00  0.00    +0.000 A 
ATOM     20  C   UNK A   2      -7.914  10.279  21.271  0.00  0.00    +0.000 A 
ATOM     21  C   UNK A   2      -7.902   9.072  20.558  0.00  0.00    +0.000 A 
ATOM     22  C   UNK A   2      -7.070   8.921  19.440  0.00  0.00    +0.000 A 
ATOM     23  C   UNK A   2      -6.507  10.046  18.857  0.00  0.00    +0.000 A 
ATOM     24  C   UNK A   2      -6.723  11.252  19.488  0.00  0.00    +0.000 A 
ENDROOT
TORSDOF 0
ENDMDL
MODEL 3
REMARK VINA RESULT:      -6.7      7.945     10.129
REMARK  Name = 
REMARK  1 active torsions:
REMARK  status: ('A' for Active; 'I' for Inactive)
REMARK    1  A    between atoms: C_1  and  N_2
REMARK                            x       y       z     vdW  Elec       q    Type
REMARK                         _______ _______ _______ _____ _____    ______ ____
ROOT
ATOM      1  C   UNK A   2      -0.824  14.157  23.029  0.00  0.00    +0.000 C 
ATOM      2  N   UNK A   2      -1.327  13.318  21.988  0.00  0.00    +0.000 N 
ATOM      3  C   UNK A   2      -1.341  13.759  20.637  0.00  0.00    +0.000 C 
ATOM      4  O   UNK A   2      -1.268  14.899  20.213  0.00  0.00    +0.000 OA
ATOM      5  C   UNK A   2      -1.589  12.451  19.809  0.00  0.00    +0.000 C 
ATOM      6  S   UNK A   2      -0.761  12.419  18.190  0.00  0.00    +0.000 S 
ATOM      7  C   UNK A   2      -2.115  11.488  17.412  0.00  0.00    +0.000 C 
ATOM      8  C   UNK A   2      -3.361  12.034  18.092  0.00  0.00    +0.000 C 
ATOM      9  C   UNK A   2      -4.544  11.047  17.962  0.00  0.00    +0.000 C 
ATOM     10  O   UNK A   2      -4.674  10.257  17.033  0.00  0.00    +0.000 OA
ATOM     11  N   PRO A   1      -5.496  11.217  18.945  0.00  0.00    +0.000 N 
ATOM     12  CD  PRO A   1      -6.701  10.430  19.096  0.00  0.00    +0.000 C 
ATOM     13  CG  PRO A   1      -7.485  11.110  20.213  0.00  0.00    +0.000 C 
ATOM     14  CB  PRO A   1      -6.465  11.984  20.933  0.00  0.00    +0.000 C 
ATOM     15  CA  PRO A   1      -5.474  12.360  19.836  0.00  0.00    +0.000 C 
ATOM     16  C   PRO A   1      -4.069  12.588  20.397  0.00  0.00    +0.000 C 
ATOM     17  O   PRO A   1      -3.934  13.103  21.502  0.00  0.00    +0.000 OA
ATOM     18  N   UNK A   2      -3.037  12.291  19.504  0.00  0.00    +0.000 N 
ATOM     19  C   UNK A   2      -1.063  11.422  20.782  0.00  0.00    +0.000 A 
ATOM     20  C   UNK A   2      -0.248  10.311  20.678  0.00  0.00    +0.000 A 
ATOM     21  C   UNK A   2      -0.033   9.533  21.824  0.00  0.00    +0.000 A 
ATOM     22  C   UNK A   2      -0.684   9.849  23.024  0.00  0.00    +0.000 A 
ATOM     23  C   UNK A   2      -1.280  11.094  23.165  0.00  0.00    +0.000 A 
ATOM     24  C   UNK A   2      -1.282  11.914  22.058  0.00  0.00    +0.000 A 
ENDROOT
TORSDOF 0
ENDMDL
MODEL 4
REMARK VINA RESULT:      -6.4      7.902     10.077
REMARK  Name = 
REMARK  1 active torsions:
REMARK  status: ('A' for Active; 'I' for Inactive)
REMARK    1  A    between atoms: C_1  and  N_2
REMARK                            x       y       z     vdW  Elec       q    Type
REMARK                         _______ _______ _______ _____ _____    ______ ____
ROOT
ATOM      1  C   UNK A   2       0.406  14.027  21.945  0.00  0.00    +0.000 C 
ATOM      2  N   UNK A   2      -0.591  13.233  21.298  0.00  0.00    +0.000 N 
ATOM      3  C   UNK A   2      -1.000  13.516  19.967  0.00  0.00    +0.000 C 
ATOM      4  O   UNK A   2      -0.860  14.549  19.337  0.00  0.00    +0.000 OA
ATOM      5  C   UNK A   2      -1.780  12.230  19.524  0.00  0.00    +0.000 C 
ATOM      6  S   UNK A   2      -1.610  11.819  17.761  0.00  0.00    +0.000 S 
ATOM      7  C   UNK A   2      -3.307  11.178  17.651  0.00  0.00    +0.000 C 
ATOM      8  C   UNK A   2      -4.094  12.088  18.581  0.00  0.00    +0.000 C 
ATOM      9  C   UNK A   2      -5.414  11.420  19.027  0.00  0.00    +0.000 C 
ATOM     10  O   UNK A   2      -6.021  10.593  18.355  0.00  0.00    +0.000 OA
ATOM     11  N   PRO A   1      -5.899  11.927  20.215  0.00  0.00    +0.000 N 
ATOM     12  CD  PRO A   1      -7.100  11.487  20.891  0.00  0.00    +0.000 C 
ATOM     13  CG  PRO A   1      -7.282  12.457  22.053  0.00  0.00    +0.000 C 
ATOM     14  CB  PRO A   1      -5.922  13.120  22.228  0.00  0.00    +0.000 C 
ATOM     15  CA  PRO A   1      -5.335  13.117  20.820  0.00  0.00    +0.000 C 
ATOM     16  C   PRO A   1      -3.807  13.045  20.844  0.00  0.00    +0.000 C 
ATOM     17  O   PRO A   1      -3.187  13.626  21.730  0.00  0.00    +0.000 OA
ATOM     18  N   UNK A   2      -3.243  12.406  19.738  0.00  0.00    +0.000 N 
ATOM     19  C   UNK A   2      -1.156  11.214  20.450  0.00  0.00    +0.000 A 
ATOM     20  C   UNK A   2      -0.667   9.929  20.298  0.00  0.00    +0.000 A 
ATOM     21  C   UNK A   2      -0.215   9.250  21.438  0.00  0.00    +0.000 A 
ATOM     22  C   UNK A   2      -0.318   9.846  22.702  0.00  0.00    +0.000 A 
ATOM     23  C   UNK A   2      -0.566  11.208  22.792  0.00  0.00    +0.000 A 
ATOM     24  C   UNK A   2      -0.802  11.879  21.612  0.00  0.00    +0.000 A 
ENDROOT
TORSDOF 0
ENDMDL
MODEL 5
REMARK VINA RESULT:      -6.2      6.371      8.706
REMARK  Name = 
REMARK  1 active torsions:
REMARK  status: ('A' for Active; 'I' for Inactive)
REMARK    1  A    between atoms: C_1  and  N_2
REMARK                            x       y       z     vdW  Elec       q    Type
REMARK                         _______ _______ _______ _____ _____    ______ ____
ROOT
ATOM      1  C   UNK A   2      -1.715  10.044  17.687  0.00  0.00    +0.000 C 
ATOM      2  N   UNK A   2      -1.178  10.810  18.768  0.00  0.00    +0.000 N 
ATOM      3  C   UNK A   2      -1.978  11.758  19.460  0.00  0.00    +0.000 C 
ATOM      4  O   UNK A   2      -3.017  12.280  19.095  0.00  0.00    +0.000 OA
ATOM      5  C   UNK A   2      -1.162  12.073  20.761  0.00  0.00    +0.000 C 
ATOM      6  S   UNK A   2      -2.184  12.419  22.224  0.00  0.00    +0.000 S 
ATOM      7  C   UNK A   2      -1.003  13.637  22.876  0.00  0.00    +0.000 C 
ATOM      8  C   UNK A   2      -0.460  14.313  21.628  0.00  0.00    +0.000 C 
ATOM      9  C   UNK A   2       0.898  14.997  21.910  0.00  0.00    +0.000 C 
ATOM     10  O   UNK A   2       1.226  15.431  23.009  0.00  0.00    +0.000 OA
ATOM     11  N   PRO A   1       1.662  15.166  20.774  0.00  0.00    +0.000 N 
ATOM     12  CD  PRO A   1       2.983  15.753  20.728  0.00  0.00    +0.000 C 
ATOM     13  CG  PRO A   1       3.321  15.858  19.245  0.00  0.00    +0.000 C 
ATOM     14  CB  PRO A   1       2.350  14.909  18.553  0.00  0.00    +0.000 C 
ATOM     15  CA  PRO A   1       1.118  14.934  19.451  0.00  0.00    +0.000 C 
ATOM     16  C   PRO A   1       0.352  13.611  19.398  0.00  0.00    +0.000 C 
ATOM     17  O   PRO A   1       0.288  12.990  18.342  0.00  0.00    +0.000 OA
ATOM     18  N   UNK A   2      -0.331  13.294  20.575  0.00  0.00    +0.000 N 
ATOM     19  C   UNK A   2      -0.349  10.805  20.872  0.00  0.00    +0.000 A 
ATOM     20  C   UNK A   2      -0.023   9.945  21.904  0.00  0.00    +0.000 A 
ATOM     21  C   UNK A   2       0.841   8.875  21.632  0.00  0.00    +0.000 A 
ATOM     22  C   UNK A   2       1.404   8.729  20.357  0.00  0.00    +0.000 A 
ATOM     23  C   UNK A   2       0.867   9.440  19.294  0.00  0.00    +0.000 A 
ATOM     24  C   UNK A   2      -0.135  10.339  19.585  0.00  0.00    +0.000 A 
ENDROOT
TORSDOF 0
ENDMDL
MODEL 6
REMARK VINA RESULT:      -6.1      8.839     12.539
REMARK  Name = 
REMARK  1 active torsions:
REMARK  status: ('A' for Active; 'I' for Inactive)
REMARK    1  A    between atoms: C_1  and  N_2
REMARK                            x       y       z     vdW  Elec       q    Type
REMARK                         _______ _______ _______ _____ _____    ______ ____
ROOT
ATOM      1  C   UNK A   2      -7.213  14.371  22.259  0.00  0.00    +0.000 C 
ATOM      2  N   UNK A   2      -6.482  13.910  21.121  0.00  0.00    +0.000 N 
ATOM      3  C   UNK A   2      -6.433  12.527  20.795  0.00  0.00    +0.000 C 
ATOM      4  O   UNK A   2      -6.674  11.573  21.513  0.00  0.00    +0.000 OA
ATOM      5  C   UNK A   2      -5.887  12.499  19.326  0.00  0.00    +0.000 C 
ATOM      6  S   UNK A   2      -6.556  11.154  18.302  0.00  0.00    +0.000 S 
ATOM      7  C   UNK A   2      -4.997  10.946  17.391  0.00  0.00    +0.000 C 
ATOM      8  C   UNK A   2      -3.931  11.213  18.441  0.00  0.00    +0.000 C 
ATOM      9  C   UNK A   2      -2.583  11.591  17.784  0.00  0.00    +0.000 C 
ATOM     10  O   UNK A   2      -2.236  11.208  16.672  0.00  0.00    +0.000 OA
ATOM     11  N   PRO A   1      -1.763  12.319  18.621  0.00  0.00    +0.000 N 
ATOM     12  CD  PRO A   1      -0.454  12.832  18.279  0.00  0.00    +0.000 C 
ATOM     13  CG  PRO A   1       0.099  13.412  19.576  0.00  0.00    +0.000 C 
ATOM     14  CB  PRO A   1      -1.118  13.592  20.475  0.00  0.00    +0.000 C 
ATOM     15  CA  PRO A   1      -2.065  12.483  20.028  0.00  0.00    +0.000 C 
ATOM     16  C   PRO A   1      -3.530  12.873  20.231  0.00  0.00    +0.000 C 
ATOM     17  O   PRO A   1      -3.847  13.550  21.204  0.00  0.00    +0.000 OA
ATOM     18  N   UNK A   2      -4.413  12.290  19.320  0.00  0.00    +0.000 N 
ATOM     19  C   UNK A   2      -6.299  13.877  18.867  0.00  0.00    +0.000 A 
ATOM     20  C   UNK A   2      -6.891  14.386  17.726  0.00  0.00    +0.000 A 
ATOM     21  C   UNK A   2      -7.058  15.775  17.626  0.00  0.00    +0.000 A 
ATOM     22  C   UNK A   2      -6.578  16.619  18.636  0.00  0.00    +0.000 A 
ATOM     23  C   UNK A   2      -6.229  16.076  19.864  0.00  0.00    +0.000 A 
ATOM     24  C   UNK A   2      -6.280  14.704  19.978  0.00  0.00    +0.000 A 
ENDROOT
TORSDOF 0
ENDMDL
MODEL 7
REMARK VINA RESULT:      -6.1      7.950      9.465
REMARK  Name = 
REMARK  1 active torsions:
REMARK  status: ('A' for Active; 'I' for Inactive)
REMARK    1  A    between atoms: C_1  and  N_2
REMARK                            x       y       z     vdW  Elec       q    Type
REMARK                         _______ _______ _______ _____ _____    ______ ____
ROOT
ATOM      1  C   UNK A   2      12.333  11.900  20.036  0.00  0.00    +0.000 C 
ATOM      2  N   UNK A   2      11.025  12.469  19.951  0.00  0.00    +0.000 N 
ATOM      3  C   UNK A   2      10.847  13.860  19.718  0.00  0.00    +0.000 C 
ATOM      4  O   UNK A   2      11.651  14.761  19.874  0.00  0.00    +0.000 OA
ATOM      5  C   UNK A   2       9.337  13.991  19.319  0.00  0.00    +0.000 C 
ATOM      6  S   UNK A   2       8.993  15.297  18.101  0.00  0.00    +0.000 S 
ATOM      7  C   UNK A   2       7.378  15.688  18.838  0.00  0.00    +0.000 C 
ATOM      8  C   UNK A   2       7.609  15.494  20.328  0.00  0.00    +0.000 C 
ATOM      9  C   UNK A   2       6.273  15.273  21.074  0.00  0.00    +0.000 C 
ATOM     10  O   UNK A   2       5.198  15.726  20.696  0.00  0.00    +0.000 OA
ATOM     11  N   PRO A   1       6.429  14.603  22.270  0.00  0.00    +0.000 N 
ATOM     12  CD  PRO A   1       5.362  14.233  23.174  0.00  0.00    +0.000 C 
ATOM     13  CG  PRO A   1       6.059  13.668  24.406  0.00  0.00    +0.000 C 
ATOM     14  CB  PRO A   1       7.472  13.339  23.940  0.00  0.00    +0.000 C 
ATOM     15  CA  PRO A   1       7.739  14.363  22.841  0.00  0.00    +0.000 C 
ATOM     16  C   PRO A   1       8.705  13.822  21.786  0.00  0.00    +0.000 C 
ATOM     17  O   PRO A   1       9.625  13.085  22.128  0.00  0.00    +0.000 OA
ATOM     18  N   UNK A   2       8.511  14.346  20.506  0.00  0.00    +0.000 N 
ATOM     19  C   UNK A   2       9.080  12.595  18.804  0.00  0.00    +0.000 A 
ATOM     20  C   UNK A   2       8.440  12.068  17.698  0.00  0.00    +0.000 A 
ATOM     21  C   UNK A   2       8.337  10.674  17.590  0.00  0.00    +0.000 A 
ATOM     22  C   UNK A   2       8.819   9.848  18.615  0.00  0.00    +0.000 A 
ATOM     23  C   UNK A   2       9.671  10.382  19.571  0.00  0.00    +0.000 A 
ATOM     24  C   UNK A   2       9.908  11.737  19.509  0.00  0.00    +0.000 A 
ENDROOT
TORSDOF 0
ENDMDL
MODEL 8
REMARK VINA RESULT:      -6.1      8.385     10.162
REMARK  Name = 
REMARK  1 active torsions:
REMARK  status: ('A' for Active; 'I' for Inactive)
REMARK    1  A    between atoms: C_1  and  N_2
REMARK                            x       y       z     vdW  Elec       q    Type
REMARK                         _______ _______ _______ _____ _____    ______ ____
ROOT
ATOM      1  C   UNK A   2       2.137  13.395  20.422  0.00  0.00    +0.000 C 
ATOM      2  N   UNK A   2       0.719  13.501  20.277  0.00  0.00    +0.000 N 
ATOM      3  C   UNK A   2      -0.158  12.920  21.231  0.00  0.00    +0.000 C 
ATOM      4  O   UNK A   2       0.082  12.047  22.046  0.00  0.00    +0.000 OA
ATOM      5  C   UNK A   2      -1.548  13.578  20.925  0.00  0.00    +0.000 C 
ATOM      6  S   UNK A   2      -2.592  13.844  22.389  0.00  0.00    +0.000 S 
ATOM      7  C   UNK A   2      -4.126  13.515  21.470  0.00  0.00    +0.000 C 
ATOM      8  C   UNK A   2      -3.727  12.427  20.486  0.00  0.00    +0.000 C 
ATOM      9  C   UNK A   2      -4.708  12.368  19.293  0.00  0.00    +0.000 C 
ATOM     10  O   UNK A   2      -5.887  12.700  19.363  0.00  0.00    +0.000 OA
ATOM     11  N   PRO A   1      -4.151  11.803  18.165  0.00  0.00    +0.000 N 
ATOM     12  CD  PRO A   1      -4.815  11.634  16.891  0.00  0.00    +0.000 C 
ATOM     13  CG  PRO A   1      -3.844  10.825  16.038  0.00  0.00    +0.000 C 
ATOM     14  CB  PRO A   1      -2.496  10.970  16.735  0.00  0.00    +0.000 C 
ATOM     15  CA  PRO A   1      -2.866  11.134  18.206  0.00  0.00    +0.000 C 
ATOM     16  C   PRO A   1      -1.834  11.977  18.957  0.00  0.00    +0.000 C 
ATOM     17  O   PRO A   1      -0.646  11.884  18.664  0.00  0.00    +0.000 OA
ATOM     18  N   UNK A   2      -2.355  12.703  20.031  0.00  0.00    +0.000 N 
ATOM     19  C   UNK A   2      -1.092  14.856  20.262  0.00  0.00    +0.000 A 
ATOM     20  C   UNK A   2      -1.448  16.187  20.366  0.00  0.00    +0.000 A 
ATOM     21  C   UNK A   2      -0.833  17.111  19.509  0.00  0.00    +0.000 A 
ATOM     22  C   UNK A   2       0.072  16.673  18.532  0.00  0.00    +0.000 A 
ATOM     23  C   UNK A   2       0.596  15.391  18.619  0.00  0.00    +0.000 A 
ATOM     24  C   UNK A   2       0.104  14.582  19.619  0.00  0.00    +0.000 A 
ENDROOT
TORSDOF 0
ENDMDL
MODEL 9
REMARK VINA RESULT:      -6.0      7.752     10.112
REMARK  Name = 
REMARK  1 active torsions:
REMARK  status: ('A' for Active; 'I' for Inactive)
REMARK    1  A    between atoms: C_1  and  N_2
REMARK                            x       y       z     vdW  Elec       q    Type
REMARK                         _______ _______ _______ _____ _____    ______ ____
ROOT
ATOM      1  C   UNK A   2       3.412  16.698  17.385  0.00  0.00    +0.000 C 
ATOM      2  N   UNK A   2       4.200  15.994  18.347  0.00  0.00    +0.000 N 
ATOM      3  C   UNK A   2       5.079  16.689  19.220  0.00  0.00    +0.000 C 
ATOM      4  O   UNK A   2       5.530  17.814  19.100  0.00  0.00    +0.000 OA
ATOM      5  C   UNK A   2       5.433  15.635  20.325  0.00  0.00    +0.000 C 
ATOM      6  S   UNK A   2       5.687  16.341  21.982  0.00  0.00    +0.000 S 
ATOM      7  C   UNK A   2       6.977  15.131  22.402  0.00  0.00    +0.000 C 
ATOM      8  C   UNK A   2       7.706  14.915  21.086  0.00  0.00    +0.000 C 
ATOM      9  C   UNK A   2       8.482  13.578  21.092  0.00  0.00    +0.000 C 
ATOM     10  O   UNK A   2       8.924  13.050  22.108  0.00  0.00    +0.000 OA
ATOM     11  N   PRO A   1       8.720  13.088  19.825  0.00  0.00    +0.000 N 
ATOM     12  CD  PRO A   1       9.400  11.850  19.514  0.00  0.00    +0.000 C 
ATOM     13  CG  PRO A   1       9.550  11.846  17.997  0.00  0.00    +0.000 C 
ATOM     14  CB  PRO A   1       8.543  12.877  17.501  0.00  0.00    +0.000 C 
ATOM     15  CA  PRO A   1       8.468  13.886  18.642  0.00  0.00    +0.000 C 
ATOM     16  C   PRO A   1       7.094  14.555  18.716  0.00  0.00    +0.000 C 
ATOM     17  O   PRO A   1       6.485  14.803  17.680  0.00  0.00    +0.000 OA
ATOM     18  N   UNK A   2       6.713  14.947  20.001  0.00  0.00    +0.000 N 
ATOM     19  C   UNK A   2       4.226  14.734  20.225  0.00  0.00    +0.000 A 
ATOM     20  C   UNK A   2       3.378  14.138  21.140  0.00  0.00    +0.000 A 
ATOM     21  C   UNK A   2       2.376  13.283  20.660  0.00  0.00    +0.000 A 
ATOM     22  C   UNK A   2       2.287  12.998  19.290  0.00  0.00    +0.000 A 
ATOM     23  C   UNK A   2       2.972  13.797  18.386  0.00  0.00    +0.000 A 
ATOM     24  C   UNK A   2       3.794  14.771  18.910  0.00  0.00    +0.000 A 
ENDROOT
TORSDOF 0
ENDMDL
