MODEL 1
REMARK VINA RESULT:      -6.2      0.000      0.000
REMARK  Name = 
REMARK  11 active torsions:
REMARK  status: ('A' for Active; 'I' for Inactive)
REMARK    1  A    between atoms: C_1  and  C_2
REMARK    2  A    between atoms: C_2  and  C_3
REMARK    3  A    between atoms: C_3  and  C_4
REMARK    4  A    between atoms: C_4  and  C_5
REMARK    5  A    between atoms: C_4  and  N_13
REMARK    6  A    between atoms: N_7  and  C_8
REMARK    7  A    between atoms: N_13  and  C_14
REMARK    8  A    between atoms: C_14  and  C_15
REMARK    9  A    between atoms: C_21  and  C_23
REMARK   10  A    between atoms: C_26  and  C_27
REMARK   11  A    between atoms: C_30  and  N_31
REMARK                            x       y       z     vdW  Elec       q    Type
REMARK                         _______ _______ _______ _____ _____    ______ ____
ROOT
ATOM      1  N   UNL     1      -0.539  11.223  20.137  0.00  0.00    +0.000 N 
ATOM      2  C   UNL     1       0.794  10.771  20.281  0.00  0.00    +0.000 C 
ATOM      3  O   UNL     1       1.560  11.404  21.011  0.00  0.00    +0.000 OA
ENDROOT
BRANCH   2   4
ATOM      4  C   UNL     1       1.284   9.585  19.591  0.00  0.00    +0.000 A 
ATOM      5  S   UNL     1       1.833   9.581  17.974  0.00  0.00    +0.000 S 
ATOM      6  N   UNL     1       2.290   8.004  17.905  0.00  0.00    +0.000 NA
ATOM      7  C   UNL     1       2.197   7.481  19.135  0.00  0.00    +0.000 A 
ATOM      8  C   UNL     1       1.603   8.350  20.128  0.00  0.00    +0.000 A 
BRANCH   7   9
ATOM      9  C   UNL     1       2.723   6.133  19.387  0.00  0.00    +0.000 C 
ATOM     10  N   UNL     1       3.472   5.583  18.376  0.00  0.00    +0.000 N 
ATOM     11  O   UNL     1       2.582   5.530  20.444  0.00  0.00    +0.000 OA
ATOM     12  H   UNL     1       3.693   6.139  17.568  0.00  0.00    +0.000 HD
ATOM     13  H   UNL     1       3.969   4.728  18.575  0.00  0.00    +0.000 HD
ENDBRANCH   7   9
BRANCH   8  14
ATOM     14  N   UNL     1       1.415   8.014  21.431  0.00  0.00    +0.000 N 
ATOM     15  H   UNL     1       2.184   7.597  21.962  0.00  0.00    +0.000 HD
ATOM     16  H   UNL     1       0.756   8.530  22.018  0.00  0.00    +0.000 HD
ENDBRANCH   8  14
ENDBRANCH   2   4
BRANCH   1  17
ATOM     17  C   UNL     1      -0.925  12.513  20.845  0.00  0.00    +0.000 C 
BRANCH  17  18
ATOM     18  C   UNL     1      -2.097  12.277  21.857  0.00  0.00    +0.000 C 
ATOM     19  O   UNL     1      -2.014  11.529  22.830  0.00  0.00    +0.000 OA
ATOM     20  N   UNL     1      -3.297  12.863  21.491  0.00  0.00    +0.000 N 
ATOM     21  H   UNL     1      -3.248  13.609  20.813  0.00  0.00    +0.000 HD
BRANCH  20  22
ATOM     22  C   UNL     1      -4.454  12.793  22.365  0.00  0.00    +0.000 C 
ATOM     23  C   UNL     1      -4.659  14.073  23.168  0.00  0.00    +0.000 C 
ATOM     24  C   UNL     1      -6.104  13.975  23.641  0.00  0.00    +0.000 C 
ATOM     25  C   UNL     1      -6.838  13.167  22.570  0.00  0.00    +0.000 C 
ATOM     26  C   UNL     1      -5.768  12.669  21.599  0.00  0.00    +0.000 C 
ENDBRANCH  20  22
ENDBRANCH  17  18
BRANCH  17  27
ATOM     27  C   UNL     1      -1.223  13.694  19.891  0.00  0.00    +0.000 C 
BRANCH  27  29
ATOM     28  C   UNL     1       1.022  14.226  18.723  0.00  0.00    +0.000 C 
ATOM     29  C   UNL     1      -0.113  14.724  19.601  0.00  0.00    +0.000 C 
ENDBRANCH  27  29
ENDBRANCH  17  27
ENDBRANCH   1  17
BRANCH   1  30
ATOM     30  C   UNL     1      -1.620  10.351  19.628  0.00  0.00    +0.000 C 
BRANCH  30  31
ATOM     31  C   UNL     1      -2.234  10.670  18.274  0.00  0.00    +0.000 A 
ATOM     32  C   UNL     1      -1.747  10.154  17.070  0.00  0.00    +0.000 A 
ATOM     33  C   UNL     1      -2.519  10.201  15.905  0.00  0.00    +0.000 A 
ATOM     34  C   UNL     1      -3.754  10.841  15.906  0.00  0.00    +0.000 A 
ATOM     35  C   UNL     1      -4.184  11.498  17.053  0.00  0.00    +0.000 A 
ATOM     36  C   UNL     1      -3.429  11.417  18.228  0.00  0.00    +0.000 A 
ENDBRANCH  30  31
ENDBRANCH   1  30
TORSDOF 10
ENDMDL
MODEL 2
REMARK VINA RESULT:      -6.1      0.998      1.352
REMARK  Name = 
REMARK  11 active torsions:
REMARK  status: ('A' for Active; 'I' for Inactive)
REMARK    1  A    between atoms: C_1  and  C_2
REMARK    2  A    between atoms: C_2  and  C_3
REMARK    3  A    between atoms: C_3  and  C_4
REMARK    4  A    between atoms: C_4  and  C_5
REMARK    5  A    between atoms: C_4  and  N_13
REMARK    6  A    between atoms: N_7  and  C_8
REMARK    7  A    between atoms: N_13  and  C_14
REMARK    8  A    between atoms: C_14  and  C_15
REMARK    9  A    between atoms: C_21  and  C_23
REMARK   10  A    between atoms: C_26  and  C_27
REMARK   11  A    between atoms: C_30  and  N_31
REMARK                            x       y       z     vdW  Elec       q    Type
REMARK                         _______ _______ _______ _____ _____    ______ ____
ROOT
ATOM      1  N   UNL     1      -0.463  11.200  19.602  0.00  0.00    +0.000 N 
ATOM      2  C   UNL     1       0.872  10.769  19.786  0.00  0.00    +0.000 C 
ATOM      3  O   UNL     1       1.687  11.552  20.279  0.00  0.00    +0.000 OA
ENDROOT
BRANCH   2   4
ATOM      4  C   UNL     1       1.309   9.431  19.407  0.00  0.00    +0.000 A 
ATOM      5  S   UNL     1       1.845   9.011  17.841  0.00  0.00    +0.000 S 
ATOM      6  N   UNL     1       2.238   7.447  18.161  0.00  0.00    +0.000 NA
ATOM      7  C   UNL     1       2.133   7.244  19.480  0.00  0.00    +0.000 A 
ATOM      8  C   UNL     1       1.582   8.353  20.230  0.00  0.00    +0.000 A 
BRANCH   7   9
ATOM      9  C   UNL     1       2.605   5.978  20.055  0.00  0.00    +0.000 C 
ATOM     10  N   UNL     1       3.899   5.628  19.752  0.00  0.00    +0.000 N 
ATOM     11  O   UNL     1       1.944   5.282  20.815  0.00  0.00    +0.000 OA
ATOM     12  H   UNL     1       4.475   6.271  19.237  0.00  0.00    +0.000 HD
ATOM     13  H   UNL     1       4.300   4.847  20.249  0.00  0.00    +0.000 HD
ENDBRANCH   7   9
BRANCH   8  14
ATOM     14  N   UNL     1       1.390   8.352  21.574  0.00  0.00    +0.000 N 
ATOM     15  H   UNL     1       2.179   8.538  22.199  0.00  0.00    +0.000 HD
ATOM     16  H   UNL     1       0.489   8.619  21.978  0.00  0.00    +0.000 HD
ENDBRANCH   8  14
ENDBRANCH   2   4
BRANCH   1  17
ATOM     17  C   UNL     1      -0.793  12.640  19.965  0.00  0.00    +0.000 C 
BRANCH  17  18
ATOM     18  C   UNL     1      -2.070  12.720  20.868  0.00  0.00    +0.000 C 
ATOM     19  O   UNL     1      -2.172  12.148  21.952  0.00  0.00    +0.000 OA
ATOM     20  N   UNL     1      -3.146  13.366  20.285  0.00  0.00    +0.000 N 
ATOM     21  H   UNL     1      -2.941  13.972  19.503  0.00  0.00    +0.000 HD
BRANCH  20  22
ATOM     22  C   UNL     1      -4.375  13.582  21.027  0.00  0.00    +0.000 C 
ATOM     23  C   UNL     1      -5.116  14.837  20.579  0.00  0.00    +0.000 C 
ATOM     24  C   UNL     1      -6.525  14.638  21.123  0.00  0.00    +0.000 C 
ATOM     25  C   UNL     1      -6.750  13.125  21.151  0.00  0.00    +0.000 C 
ATOM     26  C   UNL     1      -5.410  12.486  20.792  0.00  0.00    +0.000 C 
ENDBRANCH  20  22
ENDBRANCH  17  18
BRANCH  17  27
ATOM     27  C   UNL     1      -0.894  13.592  18.749  0.00  0.00    +0.000 C 
BRANCH  27  29
ATOM     28  C   UNL     1       1.354  14.869  18.813  0.00  0.00    +0.000 C 
ATOM     29  C   UNL     1      -0.163  14.949  18.795  0.00  0.00    +0.000 C 
ENDBRANCH  27  29
ENDBRANCH  17  27
ENDBRANCH   1  17
BRANCH   1  30
ATOM     30  C   UNL     1      -1.580  10.252  19.402  0.00  0.00    +0.000 C 
BRANCH  30  31
ATOM     31  C   UNL     1      -2.388  10.341  18.116  0.00  0.00    +0.000 A 
ATOM     32  C   UNL     1      -3.594  11.039  18.015  0.00  0.00    +0.000 A 
ATOM     33  C   UNL     1      -4.129  11.370  16.767  0.00  0.00    +0.000 A 
ATOM     34  C   UNL     1      -3.509  10.936  15.599  0.00  0.00    +0.000 A 
ATOM     35  C   UNL     1      -2.397  10.106  15.682  0.00  0.00    +0.000 A 
ATOM     36  C   UNL     1      -1.841   9.808  16.931  0.00  0.00    +0.000 A 
ENDBRANCH  30  31
ENDBRANCH   1  30
TORSDOF 10
ENDMDL
MODEL 3
REMARK VINA RESULT:      -6.0      2.981      7.695
REMARK  Name = 
REMARK  11 active torsions:
REMARK  status: ('A' for Active; 'I' for Inactive)
REMARK    1  A    between atoms: C_1  and  C_2
REMARK    2  A    between atoms: C_2  and  C_3
REMARK    3  A    between atoms: C_3  and  C_4
REMARK    4  A    between atoms: C_4  and  C_5
REMARK    5  A    between atoms: C_4  and  N_13
REMARK    6  A    between atoms: N_7  and  C_8
REMARK    7  A    between atoms: N_13  and  C_14
REMARK    8  A    between atoms: C_14  and  C_15
REMARK    9  A    between atoms: C_21  and  C_23
REMARK   10  A    between atoms: C_26  and  C_27
REMARK   11  A    between atoms: C_30  and  N_31
REMARK                            x       y       z     vdW  Elec       q    Type
REMARK                         _______ _______ _______ _____ _____    ______ ____
ROOT
ATOM      1  N   UNL     1       0.639  11.311  19.542  0.00  0.00    +0.000 N 
ATOM      2  C   UNL     1       1.154  12.452  20.203  0.00  0.00    +0.000 C 
ATOM      3  O   UNL     1       2.022  12.297  21.065  0.00  0.00    +0.000 OA
ENDROOT
BRANCH   2   4
ATOM      4  C   UNL     1       0.686  13.797  19.896  0.00  0.00    +0.000 A 
ATOM      5  S   UNL     1      -0.584  14.578  20.729  0.00  0.00    +0.000 S 
ATOM      6  N   UNL     1      -0.503  16.019  19.942  0.00  0.00    +0.000 NA
ATOM      7  C   UNL     1       0.577  16.011  19.152  0.00  0.00    +0.000 A 
ATOM      8  C   UNL     1       1.276  14.745  19.079  0.00  0.00    +0.000 A 
BRANCH   7   9
ATOM      9  C   UNL     1       0.986  17.249  18.475  0.00  0.00    +0.000 C 
ATOM     10  N   UNL     1      -0.028  17.983  17.907  0.00  0.00    +0.000 N 
ATOM     11  O   UNL     1       2.136  17.670  18.451  0.00  0.00    +0.000 OA
ATOM     12  H   UNL     1      -0.981  17.697  18.047  0.00  0.00    +0.000 HD
ATOM     13  H   UNL     1       0.199  18.906  17.568  0.00  0.00    +0.000 HD
ENDBRANCH   7   9
BRANCH   8  14
ATOM     14  N   UNL     1       2.391  14.523  18.336  0.00  0.00    +0.000 N 
ATOM     15  H   UNL     1       2.335  14.565  17.315  0.00  0.00    +0.000 HD
ATOM     16  H   UNL     1       3.319  14.757  18.696  0.00  0.00    +0.000 HD
ENDBRANCH   8  14
ENDBRANCH   2   4
BRANCH   1  17
ATOM     17  C   UNL     1       1.147   9.949  19.992  0.00  0.00    +0.000 C 
BRANCH  17  18
ATOM     18  C   UNL     1       1.663   9.106  18.778  0.00  0.00    +0.000 C 
ATOM     19  O   UNL     1       1.677   9.521  17.620  0.00  0.00    +0.000 OA
ATOM     20  N   UNL     1       1.969   7.790  19.081  0.00  0.00    +0.000 N 
ATOM     21  H   UNL     1       2.127   7.575  20.055  0.00  0.00    +0.000 HD
BRANCH  20  22
ATOM     22  C   UNL     1       2.528   6.906  18.074  0.00  0.00    +0.000 C 
ATOM     23  C   UNL     1       4.053   6.927  18.060  0.00  0.00    +0.000 C 
ATOM     24  C   UNL     1       4.424   5.660  17.301  0.00  0.00    +0.000 C 
ATOM     25  C   UNL     1       3.296   4.665  17.577  0.00  0.00    +0.000 C 
ATOM     26  C   UNL     1       2.220   5.436  18.340  0.00  0.00    +0.000 C 
ENDBRANCH  20  22
ENDBRANCH  17  18
BRANCH  17  27
ATOM     27  C   UNL     1       0.138   9.151  20.854  0.00  0.00    +0.000 C 
BRANCH  27  29
ATOM     28  C   UNL     1      -0.730  10.440  22.920  0.00  0.00    +0.000 C 
ATOM     29  C   UNL     1       0.155   9.328  22.385  0.00  0.00    +0.000 C 
ENDBRANCH  27  29
ENDBRANCH  17  27
ENDBRANCH   1  17
BRANCH   1  30
ATOM     30  C   UNL     1      -0.086  11.401  18.256  0.00  0.00    +0.000 C 
BRANCH  30  31
ATOM     31  C   UNL     1      -1.565  11.051  18.230  0.00  0.00    +0.000 A 
ATOM     32  C   UNL     1      -2.546  11.815  18.870  0.00  0.00    +0.000 A 
ATOM     33  C   UNL     1      -3.898  11.654  18.556  0.00  0.00    +0.000 A 
ATOM     34  C   UNL     1      -4.299  10.669  17.659  0.00  0.00    +0.000 A 
ATOM     35  C   UNL     1      -3.354   9.795  17.134  0.00  0.00    +0.000 A 
ATOM     36  C   UNL     1      -1.997   9.982  17.419  0.00  0.00    +0.000 A 
ENDBRANCH  30  31
ENDBRANCH   1  30
TORSDOF 10
ENDMDL
MODEL 4
REMARK VINA RESULT:      -6.0      2.870      7.337
REMARK  Name = 
REMARK  11 active torsions:
REMARK  status: ('A' for Active; 'I' for Inactive)
REMARK    1  A    between atoms: C_1  and  C_2
REMARK    2  A    between atoms: C_2  and  C_3
REMARK    3  A    between atoms: C_3  and  C_4
REMARK    4  A    between atoms: C_4  and  C_5
REMARK    5  A    between atoms: C_4  and  N_13
REMARK    6  A    between atoms: N_7  and  C_8
REMARK    7  A    between atoms: N_13  and  C_14
REMARK    8  A    between atoms: C_14  and  C_15
REMARK    9  A    between atoms: C_21  and  C_23
REMARK   10  A    between atoms: C_26  and  C_27
REMARK   11  A    between atoms: C_30  and  N_31
REMARK                            x       y       z     vdW  Elec       q    Type
REMARK                         _______ _______ _______ _____ _____    ______ ____
ROOT
ATOM      1  N   UNL     1       0.719  11.160  19.789  0.00  0.00    +0.000 N 
ATOM      2  C   UNL     1       1.311  12.345  20.287  0.00  0.00    +0.000 C 
ATOM      3  O   UNL     1       2.025  12.275  21.291  0.00  0.00    +0.000 OA
ENDROOT
BRANCH   2   4
ATOM      4  C   UNL     1       1.100  13.639  19.651  0.00  0.00    +0.000 A 
ATOM      5  S   UNL     1      -0.408  14.438  19.595  0.00  0.00    +0.000 S 
ATOM      6  N   UNL     1       0.102  15.808  18.842  0.00  0.00    +0.000 NA
ATOM      7  C   UNL     1       1.438  15.774  18.760  0.00  0.00    +0.000 A 
ATOM      8  C   UNL     1       2.049  14.536  19.195  0.00  0.00    +0.000 A 
BRANCH   7   9
ATOM      9  C   UNL     1       2.163  16.964  18.295  0.00  0.00    +0.000 C 
ATOM     10  N   UNL     1       2.783  16.848  17.075  0.00  0.00    +0.000 N 
ATOM     11  O   UNL     1       2.182  18.032  18.894  0.00  0.00    +0.000 OA
ATOM     12  H   UNL     1       2.650  16.013  16.532  0.00  0.00    +0.000 HD
ATOM     13  H   UNL     1       3.160  17.688  16.661  0.00  0.00    +0.000 HD
ENDBRANCH   7   9
BRANCH   8  14
ATOM     14  N   UNL     1       3.386  14.295  19.190  0.00  0.00    +0.000 N 
ATOM     15  H   UNL     1       3.941  14.502  20.025  0.00  0.00    +0.000 HD
ATOM     16  H   UNL     1       3.784  13.544  18.622  0.00  0.00    +0.000 HD
ENDBRANCH   8  14
ENDBRANCH   2   4
BRANCH   1  17
ATOM     17  C   UNL     1       0.948   9.876  20.572  0.00  0.00    +0.000 C 
BRANCH  17  18
ATOM     18  C   UNL     1       1.681   8.802  19.700  0.00  0.00    +0.000 C 
ATOM     19  O   UNL     1       1.984   8.976  18.520  0.00  0.00    +0.000 OA
ATOM     20  N   UNL     1       1.836   7.572  20.315  0.00  0.00    +0.000 N 
ATOM     21  H   UNL     1       1.755   7.555  21.322  0.00  0.00    +0.000 HD
BRANCH  20  22
ATOM     22  C   UNL     1       2.562   6.499  19.659  0.00  0.00    +0.000 C 
ATOM     23  C   UNL     1       2.440   5.172  20.401  0.00  0.00    +0.000 C 
ATOM     24  C   UNL     1       2.856   4.139  19.362  0.00  0.00    +0.000 C 
ATOM     25  C   UNL     1       2.466   4.731  18.007  0.00  0.00    +0.000 C 
ATOM     26  C   UNL     1       2.000   6.160  18.282  0.00  0.00    +0.000 C 
ENDBRANCH  20  22
ENDBRANCH  17  18
BRANCH  17  27
ATOM     27  C   UNL     1      -0.329   9.301  21.231  0.00  0.00    +0.000 C 
BRANCH  27  29
ATOM     28  C   UNL     1      -1.177  10.958  23.026  0.00  0.00    +0.000 C 
ATOM     29  C   UNL     1      -0.598   9.588  22.722  0.00  0.00    +0.000 C 
ENDBRANCH  27  29
ENDBRANCH  17  27
ENDBRANCH   1  17
BRANCH   1  30
ATOM     30  C   UNL     1       0.192  11.059  18.410  0.00  0.00    +0.000 C 
BRANCH  30  31
ATOM     31  C   UNL     1      -1.297  10.819  18.218  0.00  0.00    +0.000 A 
ATOM     32  C   UNL     1      -2.284  11.545  18.889  0.00  0.00    +0.000 A 
ATOM     33  C   UNL     1      -3.612  11.526  18.452  0.00  0.00    +0.000 A 
ATOM     34  C   UNL     1      -3.989  10.713  17.387  0.00  0.00    +0.000 A 
ATOM     35  C   UNL     1      -3.053   9.864  16.809  0.00  0.00    +0.000 A 
ATOM     36  C   UNL     1      -1.717   9.913  17.222  0.00  0.00    +0.000 A 
ENDBRANCH  30  31
ENDBRANCH   1  30
TORSDOF 10
ENDMDL
MODEL 5
REMARK VINA RESULT:      -5.9      1.529      1.981
REMARK  Name = 
REMARK  11 active torsions:
REMARK  status: ('A' for Active; 'I' for Inactive)
REMARK    1  A    between atoms: C_1  and  C_2
REMARK    2  A    between atoms: C_2  and  C_3
REMARK    3  A    between atoms: C_3  and  C_4
REMARK    4  A    between atoms: C_4  and  C_5
REMARK    5  A    between atoms: C_4  and  N_13
REMARK    6  A    between atoms: N_7  and  C_8
REMARK    7  A    between atoms: N_13  and  C_14
REMARK    8  A    between atoms: C_14  and  C_15
REMARK    9  A    between atoms: C_21  and  C_23
REMARK   10  A    between atoms: C_26  and  C_27
REMARK   11  A    between atoms: C_30  and  N_31
REMARK                            x       y       z     vdW  Elec       q    Type
REMARK                         _______ _______ _______ _____ _____    ______ ____
ROOT
ATOM      1  N   UNL     1      -0.291  11.784  19.579  0.00  0.00    +0.000 N 
ATOM      2  C   UNL     1       1.032  11.284  19.618  0.00  0.00    +0.000 C 
ATOM      3  O   UNL     1       1.947  12.050  19.928  0.00  0.00    +0.000 OA
ENDROOT
BRANCH   2   4
ATOM      4  C   UNL     1       1.341   9.896  19.302  0.00  0.00    +0.000 A 
ATOM      5  S   UNL     1       1.930   9.372  17.787  0.00  0.00    +0.000 S 
ATOM      6  N   UNL     1       2.123   7.784  18.169  0.00  0.00    +0.000 NA
ATOM      7  C   UNL     1       1.908   7.635  19.482  0.00  0.00    +0.000 A 
ATOM      8  C   UNL     1       1.436   8.820  20.166  0.00  0.00    +0.000 A 
BRANCH   7   9
ATOM      9  C   UNL     1       2.197   6.343  20.117  0.00  0.00    +0.000 C 
ATOM     10  N   UNL     1       3.460   5.843  19.912  0.00  0.00    +0.000 N 
ATOM     11  O   UNL     1       1.413   5.747  20.846  0.00  0.00    +0.000 OA
ATOM     12  H   UNL     1       4.137   6.402  19.424  0.00  0.00    +0.000 HD
ATOM     13  H   UNL     1       3.737   5.038  20.454  0.00  0.00    +0.000 HD
ENDBRANCH   7   9
BRANCH   8  14
ATOM     14  N   UNL     1       1.155   8.881  21.494  0.00  0.00    +0.000 N 
ATOM     15  H   UNL     1       1.917   8.832  22.175  0.00  0.00    +0.000 HD
ATOM     16  H   UNL     1       0.344   9.400  21.837  0.00  0.00    +0.000 HD
ENDBRANCH   8  14
ENDBRANCH   2   4
BRANCH   1  17
ATOM     17  C   UNL     1      -0.492  13.266  19.857  0.00  0.00    +0.000 C 
BRANCH  17  18
ATOM     18  C   UNL     1      -1.809  13.520  20.664  0.00  0.00    +0.000 C 
ATOM     19  O   UNL     1      -2.847  13.941  20.155  0.00  0.00    +0.000 OA
ATOM     20  N   UNL     1      -1.680  13.376  22.035  0.00  0.00    +0.000 N 
ATOM     21  H   UNL     1      -0.885  12.847  22.361  0.00  0.00    +0.000 HD
BRANCH  20  22
ATOM     22  C   UNL     1      -2.833  13.509  22.908  0.00  0.00    +0.000 C 
ATOM     23  C   UNL     1      -3.252  12.180  23.527  0.00  0.00    +0.000 C 
ATOM     24  C   UNL     1      -4.131  12.591  24.702  0.00  0.00    +0.000 C 
ATOM     25  C   UNL     1      -3.601  13.950  25.161  0.00  0.00    +0.000 C 
ATOM     26  C   UNL     1      -2.551  14.371  24.135  0.00  0.00    +0.000 C 
ENDBRANCH  20  22
ENDBRANCH  17  18
BRANCH  17  27
ATOM     27  C   UNL     1      -0.411  14.163  18.598  0.00  0.00    +0.000 C 
BRANCH  27  29
ATOM     28  C   UNL     1      -0.605  16.738  18.457  0.00  0.00    +0.000 C 
ATOM     29  C   UNL     1       0.289  15.534  18.696  0.00  0.00    +0.000 C 
ENDBRANCH  27  29
ENDBRANCH  17  27
ENDBRANCH   1  17
BRANCH   1  30
ATOM     30  C   UNL     1      -1.474  10.897  19.614  0.00  0.00    +0.000 C 
BRANCH  30  31
ATOM     31  C   UNL     1      -2.305  10.744  18.350  0.00  0.00    +0.000 A 
ATOM     32  C   UNL     1      -3.526  11.394  18.151  0.00  0.00    +0.000 A 
ATOM     33  C   UNL     1      -4.088  11.490  16.875  0.00  0.00    +0.000 A 
ATOM     34  C   UNL     1      -3.481  10.864  15.791  0.00  0.00    +0.000 A 
ATOM     35  C   UNL     1      -2.352  10.080  15.997  0.00  0.00    +0.000 A 
ATOM     36  C   UNL     1      -1.769  10.016  17.267  0.00  0.00    +0.000 A 
ENDBRANCH  30  31
ENDBRANCH   1  30
TORSDOF 10
ENDMDL
MODEL 6
REMARK VINA RESULT:      -5.9      1.730      4.274
REMARK  Name = 
REMARK  11 active torsions:
REMARK  status: ('A' for Active; 'I' for Inactive)
REMARK    1  A    between atoms: C_1  and  C_2
REMARK    2  A    between atoms: C_2  and  C_3
REMARK    3  A    between atoms: C_3  and  C_4
REMARK    4  A    between atoms: C_4  and  C_5
REMARK    5  A    between atoms: C_4  and  N_13
REMARK    6  A    between atoms: N_7  and  C_8
REMARK    7  A    between atoms: N_13  and  C_14
REMARK    8  A    between atoms: C_14  and  C_15
REMARK    9  A    between atoms: C_21  and  C_23
REMARK   10  A    between atoms: C_26  and  C_27
REMARK   11  A    between atoms: C_30  and  N_31
REMARK                            x       y       z     vdW  Elec       q    Type
REMARK                         _______ _______ _______ _____ _____    ______ ____
ROOT
ATOM      1  N   UNL     1      -0.524  10.960  19.674  0.00  0.00    +0.000 N 
ATOM      2  C   UNL     1       0.813  10.564  19.914  0.00  0.00    +0.000 C 
ATOM      3  O   UNL     1       1.566  11.341  20.504  0.00  0.00    +0.000 OA
ENDROOT
BRANCH   2   4
ATOM      4  C   UNL     1       1.322   9.268  19.482  0.00  0.00    +0.000 A 
ATOM      5  S   UNL     1       1.871   8.939  17.899  0.00  0.00    +0.000 S 
ATOM      6  N   UNL     1       2.353   7.388  18.157  0.00  0.00    +0.000 NA
ATOM      7  C   UNL     1       2.268   7.130  19.467  0.00  0.00    +0.000 A 
ATOM      8  C   UNL     1       1.660   8.176  20.262  0.00  0.00    +0.000 A 
BRANCH   7   9
ATOM      9  C   UNL     1       2.814   5.871  19.991  0.00  0.00    +0.000 C 
ATOM     10  N   UNL     1       4.116   5.595  19.649  0.00  0.00    +0.000 N 
ATOM     11  O   UNL     1       2.206   5.120  20.743  0.00  0.00    +0.000 OA
ATOM     12  H   UNL     1       4.648   6.281  19.143  0.00  0.00    +0.000 HD
ATOM     13  H   UNL     1       4.566   4.819  20.112  0.00  0.00    +0.000 HD
ENDBRANCH   7   9
BRANCH   8  14
ATOM     14  N   UNL     1       1.477   8.113  21.606  0.00  0.00    +0.000 N 
ATOM     15  H   UNL     1       1.497   7.205  22.078  0.00  0.00    +0.000 HD
ATOM     16  H   UNL     1       1.761   8.886  22.213  0.00  0.00    +0.000 HD
ENDBRANCH   8  14
ENDBRANCH   2   4
BRANCH   1  17
ATOM     17  C   UNL     1      -0.929  12.362  20.103  0.00  0.00    +0.000 C 
BRANCH  17  18
ATOM     18  C   UNL     1      -0.402  13.439  19.097  0.00  0.00    +0.000 C 
ATOM     19  O   UNL     1      -0.682  13.443  17.899  0.00  0.00    +0.000 OA
ATOM     20  N   UNL     1       0.533  14.311  19.627  0.00  0.00    +0.000 N 
ATOM     21  H   UNL     1       0.565  14.383  20.634  0.00  0.00    +0.000 HD
BRANCH  20  22
ATOM     22  C   UNL     1       1.059  15.409  18.835  0.00  0.00    +0.000 C 
ATOM     23  C   UNL     1       1.078  16.726  19.602  0.00  0.00    +0.000 C 
ATOM     24  C   UNL     1       2.041  17.595  18.803  0.00  0.00    +0.000 C 
ATOM     25  C   UNL     1       3.040  16.628  18.163  0.00  0.00    +0.000 C 
ATOM     26  C   UNL     1       2.526  15.221  18.463  0.00  0.00    +0.000 C 
ENDBRANCH  20  22
ENDBRANCH  17  18
BRANCH  17  27
ATOM     27  C   UNL     1      -0.551  12.712  21.564  0.00  0.00    +0.000 C 
BRANCH  27  29
ATOM     28  C   UNL     1      -2.931  12.396  22.524  0.00  0.00    +0.000 C 
ATOM     29  C   UNL     1      -1.438  12.193  22.713  0.00  0.00    +0.000 C 
ENDBRANCH  27  29
ENDBRANCH  17  27
ENDBRANCH   1  17
BRANCH   1  30
ATOM     30  C   UNL     1      -1.591   9.989  19.347  0.00  0.00    +0.000 C 
BRANCH  30  31
ATOM     31  C   UNL     1      -2.440  10.232  18.110  0.00  0.00    +0.000 A 
ATOM     32  C   UNL     1      -3.617  10.986  18.123  0.00  0.00    +0.000 A 
ATOM     33  C   UNL     1      -4.182  11.455  16.934  0.00  0.00    +0.000 A 
ATOM     34  C   UNL     1      -3.626  11.108  15.707  0.00  0.00    +0.000 A 
ATOM     35  C   UNL     1      -2.550  10.229  15.667  0.00  0.00    +0.000 A 
ATOM     36  C   UNL     1      -1.962   9.791  16.859  0.00  0.00    +0.000 A 
ENDBRANCH  30  31
ENDBRANCH   1  30
TORSDOF 10
ENDMDL
MODEL 7
REMARK VINA RESULT:      -5.8      1.678      4.124
REMARK  Name = 
REMARK  11 active torsions:
REMARK  status: ('A' for Active; 'I' for Inactive)
REMARK    1  A    between atoms: C_1  and  C_2
REMARK    2  A    between atoms: C_2  and  C_3
REMARK    3  A    between atoms: C_3  and  C_4
REMARK    4  A    between atoms: C_4  and  C_5
REMARK    5  A    between atoms: C_4  and  N_13
REMARK    6  A    between atoms: N_7  and  C_8
REMARK    7  A    between atoms: N_13  and  C_14
REMARK    8  A    between atoms: C_14  and  C_15
REMARK    9  A    between atoms: C_21  and  C_23
REMARK   10  A    between atoms: C_26  and  C_27
REMARK   11  A    between atoms: C_30  and  N_31
REMARK                            x       y       z     vdW  Elec       q    Type
REMARK                         _______ _______ _______ _____ _____    ______ ____
ROOT
ATOM      1  N   UNL     1      -0.491  10.881  20.273  0.00  0.00    +0.000 N 
ATOM      2  C   UNL     1       0.849  10.438  20.382  0.00  0.00    +0.000 C 
ATOM      3  O   UNL     1       1.594  10.992  21.193  0.00  0.00    +0.000 OA
ENDROOT
BRANCH   2   4
ATOM      4  C   UNL     1       1.370   9.350  19.563  0.00  0.00    +0.000 A 
ATOM      5  S   UNL     1       1.838   9.526  17.930  0.00  0.00    +0.000 S 
ATOM      6  N   UNL     1       2.378   7.991  17.695  0.00  0.00    +0.000 NA
ATOM      7  C   UNL     1       2.374   7.355  18.873  0.00  0.00    +0.000 A 
ATOM      8  C   UNL     1       1.782   8.093  19.969  0.00  0.00    +0.000 A 
BRANCH   7   9
ATOM      9  C   UNL     1       2.985   6.023  18.976  0.00  0.00    +0.000 C 
ATOM     10  N   UNL     1       2.785   5.188  17.903  0.00  0.00    +0.000 N 
ATOM     11  O   UNL     1       3.691   5.663  19.910  0.00  0.00    +0.000 OA
ATOM     12  H   UNL     1       2.318   5.539  17.086  0.00  0.00    +0.000 HD
ATOM     13  H   UNL     1       3.312   4.328  17.877  0.00  0.00    +0.000 HD
ENDBRANCH   7   9
BRANCH   8  14
ATOM     14  N   UNL     1       1.677   7.630  21.241  0.00  0.00    +0.000 N 
ATOM     15  H   UNL     1       2.256   8.038  21.978  0.00  0.00    +0.000 HD
ATOM     16  H   UNL     1       0.796   7.247  21.590  0.00  0.00    +0.000 HD
ENDBRANCH   8  14
ENDBRANCH   2   4
BRANCH   1  17
ATOM     17  C   UNL     1      -0.909  12.071  21.123  0.00  0.00    +0.000 C 
BRANCH  17  18
ATOM     18  C   UNL     1       0.129  13.238  21.016  0.00  0.00    +0.000 C 
ATOM     19  O   UNL     1       0.579  13.838  21.991  0.00  0.00    +0.000 OA
ATOM     20  N   UNL     1       0.397  13.651  19.722  0.00  0.00    +0.000 N 
ATOM     21  H   UNL     1       0.162  13.005  18.983  0.00  0.00    +0.000 HD
BRANCH  20  22
ATOM     22  C   UNL     1       1.393  14.675  19.460  0.00  0.00    +0.000 C 
ATOM     23  C   UNL     1       2.410  14.244  18.408  0.00  0.00    +0.000 C 
ATOM     24  C   UNL     1       3.047  15.556  17.966  0.00  0.00    +0.000 C 
ATOM     25  C   UNL     1       1.966  16.623  18.142  0.00  0.00    +0.000 C 
ATOM     26  C   UNL     1       0.797  15.938  18.846  0.00  0.00    +0.000 C 
ENDBRANCH  20  22
ENDBRANCH  17  18
BRANCH  17  27
ATOM     27  C   UNL     1      -1.220  11.717  22.598  0.00  0.00    +0.000 C 
BRANCH  27  29
ATOM     28  C   UNL     1      -2.883  13.370  23.688  0.00  0.00    +0.000 C 
ATOM     29  C   UNL     1      -2.638  11.972  23.148  0.00  0.00    +0.000 C 
ENDBRANCH  27  29
ENDBRANCH  17  27
ENDBRANCH   1  17
BRANCH   1  30
ATOM     30  C   UNL     1      -1.548  10.057  19.648  0.00  0.00    +0.000 C 
BRANCH  30  31
ATOM     31  C   UNL     1      -2.165  10.534  18.342  0.00  0.00    +0.000 A 
ATOM     32  C   UNL     1      -1.781  10.048  17.090  0.00  0.00    +0.000 A 
ATOM     33  C   UNL     1      -2.579  10.260  15.962  0.00  0.00    +0.000 A 
ATOM     34  C   UNL     1      -3.731  11.035  16.053  0.00  0.00    +0.000 A 
ATOM     35  C   UNL     1      -4.044  11.659  17.255  0.00  0.00    +0.000 A 
ATOM     36  C   UNL     1      -3.266  11.414  18.391  0.00  0.00    +0.000 A 
ENDBRANCH  30  31
ENDBRANCH   1  30
TORSDOF 10
ENDMDL
MODEL 8
REMARK VINA RESULT:      -5.8      3.011      7.090
REMARK  Name = 
REMARK  11 active torsions:
REMARK  status: ('A' for Active; 'I' for Inactive)
REMARK    1  A    between atoms: C_1  and  C_2
REMARK    2  A    between atoms: C_2  and  C_3
REMARK    3  A    between atoms: C_3  and  C_4
REMARK    4  A    between atoms: C_4  and  C_5
REMARK    5  A    between atoms: C_4  and  N_13
REMARK    6  A    between atoms: N_7  and  C_8
REMARK    7  A    between atoms: N_13  and  C_14
REMARK    8  A    between atoms: C_14  and  C_15
REMARK    9  A    between atoms: C_21  and  C_23
REMARK   10  A    between atoms: C_26  and  C_27
REMARK   11  A    between atoms: C_30  and  N_31
REMARK                            x       y       z     vdW  Elec       q    Type
REMARK                         _______ _______ _______ _____ _____    ______ ____
ROOT
ATOM      1  N   UNL     1       0.209  12.104  20.518  0.00  0.00    +0.000 N 
ATOM      2  C   UNL     1       0.742  13.376  20.834  0.00  0.00    +0.000 C 
ATOM      3  O   UNL     1       1.333  13.523  21.906  0.00  0.00    +0.000 OA
ENDROOT
BRANCH   2   4
ATOM      4  C   UNL     1       0.610  14.513  19.932  0.00  0.00    +0.000 A 
ATOM      5  S   UNL     1      -0.804  15.462  19.796  0.00  0.00    +0.000 S 
ATOM      6  N   UNL     1      -0.224  16.556  18.713  0.00  0.00    +0.000 NA
ATOM      7  C   UNL     1       1.086  16.338  18.550  0.00  0.00    +0.000 A 
ATOM      8  C   UNL     1       1.601  15.160  19.216  0.00  0.00    +0.000 A 
BRANCH   7   9
ATOM      9  C   UNL     1       1.886  17.294  17.774  0.00  0.00    +0.000 C 
ATOM     10  N   UNL     1       1.176  18.252  17.091  0.00  0.00    +0.000 N 
ATOM     11  O   UNL     1       3.110  17.313  17.761  0.00  0.00    +0.000 OA
ATOM     12  H   UNL     1       0.181  18.309  17.214  0.00  0.00    +0.000 HD
ATOM     13  H   UNL     1       1.697  19.009  16.672  0.00  0.00    +0.000 HD
ENDBRANCH   7   9
BRANCH   8  14
ATOM     14  N   UNL     1       2.898  14.758  19.176  0.00  0.00    +0.000 N 
ATOM     15  H   UNL     1       3.623  15.417  18.881  0.00  0.00    +0.000 HD
ATOM     16  H   UNL     1       3.246  14.039  19.814  0.00  0.00    +0.000 HD
ENDBRANCH   8  14
ENDBRANCH   2   4
BRANCH   1  17
ATOM     17  C   UNL     1       0.341  11.007  21.563  0.00  0.00    +0.000 C 
BRANCH  17  18
ATOM     18  C   UNL     1       0.346   9.588  20.900  0.00  0.00    +0.000 C 
ATOM     19  O   UNL     1      -0.516   8.737  21.112  0.00  0.00    +0.000 OA
ATOM     20  N   UNL     1       1.483   9.303  20.164  0.00  0.00    +0.000 N 
ATOM     21  H   UNL     1       2.041  10.090  19.869  0.00  0.00    +0.000 HD
BRANCH  20  22
ATOM     22  C   UNL     1       1.600   8.055  19.432  0.00  0.00    +0.000 C 
ATOM     23  C   UNL     1       2.527   8.170  18.227  0.00  0.00    +0.000 C 
ATOM     24  C   UNL     1       2.861   6.722  17.889  0.00  0.00    +0.000 C 
ATOM     25  C   UNL     1       2.797   5.961  19.215  0.00  0.00    +0.000 C 
ATOM     26  C   UNL     1       2.257   6.946  20.249  0.00  0.00    +0.000 C 
ENDBRANCH  20  22
ENDBRANCH  17  18
BRANCH  17  27
ATOM     27  C   UNL     1      -0.695  11.097  22.711  0.00  0.00    +0.000 C 
BRANCH  27  29
ATOM     28  C   UNL     1      -1.998  13.242  23.333  0.00  0.00    +0.000 C 
ATOM     29  C   UNL     1      -1.956  11.963  22.516  0.00  0.00    +0.000 C 
ENDBRANCH  27  29
ENDBRANCH  17  27
ENDBRANCH   1  17
BRANCH   1  30
ATOM     30  C   UNL     1      -0.154  11.719  19.137  0.00  0.00    +0.000 C 
BRANCH  30  31
ATOM     31  C   UNL     1      -1.590  11.309  18.850  0.00  0.00    +0.000 A 
ATOM     32  C   UNL     1      -2.697  12.072  19.233  0.00  0.00    +0.000 A 
ATOM     33  C   UNL     1      -3.957  11.837  18.676  0.00  0.00    +0.000 A 
ATOM     34  C   UNL     1      -4.148  10.781  17.791  0.00  0.00    +0.000 A 
ATOM     35  C   UNL     1      -3.096   9.914  17.521  0.00  0.00    +0.000 A 
ATOM     36  C   UNL     1      -1.826  10.173  18.049  0.00  0.00    +0.000 A 
ENDBRANCH  30  31
ENDBRANCH   1  30
TORSDOF 10
ENDMDL
MODEL 9
REMARK VINA RESULT:      -5.8      3.638      5.932
REMARK  Name = 
REMARK  11 active torsions:
REMARK  status: ('A' for Active; 'I' for Inactive)
REMARK    1  A    between atoms: C_1  and  C_2
REMARK    2  A    between atoms: C_2  and  C_3
REMARK    3  A    between atoms: C_3  and  C_4
REMARK    4  A    between atoms: C_4  and  C_5
REMARK    5  A    between atoms: C_4  and  N_13
REMARK    6  A    between atoms: N_7  and  C_8
REMARK    7  A    between atoms: N_13  and  C_14
REMARK    8  A    between atoms: C_14  and  C_15
REMARK    9  A    between atoms: C_21  and  C_23
REMARK   10  A    between atoms: C_26  and  C_27
REMARK   11  A    between atoms: C_30  and  N_31
REMARK                            x       y       z     vdW  Elec       q    Type
REMARK                         _______ _______ _______ _____ _____    ______ ____
ROOT
ATOM      1  N   UNL     1      -0.330  13.780  19.995  0.00  0.00    +0.000 N 
ATOM      2  C   UNL     1       0.325  14.716  19.160  0.00  0.00    +0.000 C 
ATOM      3  O   UNL     1      -0.349  15.385  18.374  0.00  0.00    +0.000 OA
ENDROOT
BRANCH   2   4
ATOM      4  C   UNL     1       1.769  14.908  19.204  0.00  0.00    +0.000 A 
ATOM      5  S   UNL     1       2.901  13.759  18.643  0.00  0.00    +0.000 S 
ATOM      6  N   UNL     1       4.259  14.645  18.912  0.00  0.00    +0.000 NA
ATOM      7  C   UNL     1       3.894  15.882  19.273  0.00  0.00    +0.000 A 
ATOM      8  C   UNL     1       2.472  16.069  19.473  0.00  0.00    +0.000 A 
BRANCH   7   9
ATOM      9  C   UNL     1       4.916  16.929  19.394  0.00  0.00    +0.000 C 
ATOM     10  N   UNL     1       6.083  16.711  18.702  0.00  0.00    +0.000 N 
ATOM     11  O   UNL     1       4.754  17.977  20.007  0.00  0.00    +0.000 OA
ATOM     12  H   UNL     1       6.153  15.912  18.096  0.00  0.00    +0.000 HD
ATOM     13  H   UNL     1       6.740  17.474  18.643  0.00  0.00    +0.000 HD
ENDBRANCH   7   9
BRANCH   8  14
ATOM     14  N   UNL     1       1.895  17.241  19.843  0.00  0.00    +0.000 N 
ATOM     15  H   UNL     1       1.129  17.237  20.521  0.00  0.00    +0.000 HD
ATOM     16  H   UNL     1       2.431  18.113  19.849  0.00  0.00    +0.000 HD
ENDBRANCH   8  14
ENDBRANCH   2   4
BRANCH   1  17
ATOM     17  C   UNL     1      -1.831  13.609  19.816  0.00  0.00    +0.000 C 
BRANCH  17  18
ATOM     18  C   UNL     1      -2.609  14.035  21.106  0.00  0.00    +0.000 C 
ATOM     19  O   UNL     1      -2.505  15.145  21.627  0.00  0.00    +0.000 OA
ATOM     20  N   UNL     1      -3.318  13.012  21.713  0.00  0.00    +0.000 N 
ATOM     21  H   UNL     1      -3.524  12.204  21.144  0.00  0.00    +0.000 HD
BRANCH  20  22
ATOM     22  C   UNL     1      -4.147  13.271  22.877  0.00  0.00    +0.000 C 
ATOM     23  C   UNL     1      -5.611  12.916  22.642  0.00  0.00    +0.000 C 
ATOM     24  C   UNL     1      -6.190  12.825  24.049  0.00  0.00    +0.000 C 
ATOM     25  C   UNL     1      -5.034  12.379  24.946  0.00  0.00    +0.000 C 
ATOM     26  C   UNL     1      -3.781  12.395  24.072  0.00  0.00    +0.000 C 
ENDBRANCH  20  22
ENDBRANCH  17  18
BRANCH  17  27
ATOM     27  C   UNL     1      -2.255  12.200  19.333  0.00  0.00    +0.000 C 
BRANCH  27  29
ATOM     28  C   UNL     1      -1.861  10.187  17.759  0.00  0.00    +0.000 C 
ATOM     29  C   UNL     1      -1.736  11.685  17.976  0.00  0.00    +0.000 C 
ENDBRANCH  27  29
ENDBRANCH  17  27
ENDBRANCH   1  17
BRANCH   1  30
ATOM     30  C   UNL     1       0.299  13.230  21.215  0.00  0.00    +0.000 C 
BRANCH  30  31
ATOM     31  C   UNL     1       0.312  11.722  21.410  0.00  0.00    +0.000 A 
ATOM     32  C   UNL     1      -0.369  11.077  22.445  0.00  0.00    +0.000 A 
ATOM     33  C   UNL     1      -0.602   9.699  22.402  0.00  0.00    +0.000 A 
ATOM     34  C   UNL     1      -0.084   8.932  21.363  0.00  0.00    +0.000 A 
ATOM     35  C   UNL     1       0.730   9.531  20.409  0.00  0.00    +0.000 A 
ATOM     36  C   UNL     1       0.931  10.915  20.433  0.00  0.00    +0.000 A 
ENDBRANCH  30  31
ENDBRANCH   1  30
TORSDOF 10
ENDMDL
