MODEL 1
REMARK VINA RESULT:      -8.6      0.000      0.000
REMARK  Name = 
REMARK  10 active torsions:
REMARK  status: ('A' for Active; 'I' for Inactive)
REMARK    1  A    between atoms: C_1  and  C_2
REMARK    2  A    between atoms: C_2  and  C_10
REMARK    3  A    between atoms: C_3  and  C_4
REMARK    4  A    between atoms: C_7  and  C_8
REMARK    5  A    between atoms: C_18  and  C_19
REMARK    6  A    between atoms: C_20  and  O_21
REMARK    7  A    between atoms: C_22  and  C_23
REMARK    8  A    between atoms: C_26  and  C_27
REMARK    9  A    between atoms: C_26  and  C_28
REMARK   10  A    between atoms: C_29  and  O_30
REMARK                            x       y       z     vdW  Elec       q    Type
REMARK                         _______ _______ _______ _____ _____    ______ ____
ROOT
ATOM      1  C   UNL     1      -0.425  10.405  19.912  0.00  0.00    +0.000 C 
ATOM      2  C   UNL     1      -0.957  10.799  18.497  0.00  0.00    +0.000 C 
ATOM      3  C   UNL     1      -2.004   9.887  17.930  0.00  0.00    +0.000 C 
ATOM      4  O   UNL     1      -2.194  10.136  16.526  0.00  0.00    +0.000 OA
ATOM      5  C   UNL     1      -3.394  10.212  17.300  0.00  0.00    +0.000 C 
ATOM      6  C   UNL     1      -4.100  11.539  17.150  0.00  0.00    +0.000 C 
ATOM      7  C   UNL     1      -5.564  11.464  17.656  0.00  0.00    +0.000 C 
ATOM      8  C   UNL     1      -6.111  12.770  18.276  0.00  0.00    +0.000 C 
ATOM      9  C   UNL     1      -5.481  13.060  19.654  0.00  0.00    +0.000 C 
ATOM     10  C   UNL     1      -5.895  12.011  20.691  0.00  0.00    +0.000 C 
ATOM     11  C   UNL     1      -5.667  14.534  20.153  0.00  0.00    +0.000 C 
ATOM     12  C   UNL     1      -5.168  14.889  21.617  0.00  0.00    +0.000 C 
ATOM     13  C   UNL     1      -6.274  14.667  22.647  0.00  0.00    +0.000 C 
ATOM     14  C   UNL     1      -3.786  14.250  21.851  0.00  0.00    +0.000 C 
ATOM     15  O   UNL     1      -3.179  13.835  20.849  0.00  0.00    +0.000 OA
ATOM     16  C   UNL     1      -2.955  14.289  23.149  0.00  0.00    +0.000 C 
ATOM     17  C   UNL     1      -2.457  15.734  23.259  0.00  0.00    +0.000 C 
ATOM     18  C   UNL     1      -3.632  13.924  24.488  0.00  0.00    +0.000 C 
ATOM     19  C   UNL     1      -1.834  13.163  22.982  0.00  0.00    +0.000 C 
ATOM     20  C   UNL     1      -0.680  13.273  21.954  0.00  0.00    +0.000 C 
ATOM     21  C   UNL     1      -0.039  11.895  21.749  0.00  0.00    +0.000 C 
ATOM     22  O   UNL     1       0.222  11.103  22.644  0.00  0.00    +0.000 OA
ATOM     23  O   UNL     1       0.163  11.636  20.427  0.00  0.00    +0.000 OA
ENDROOT
BRANCH   1  25
ATOM     24  C   UNL     1       0.704   8.432  21.216  0.00  0.00    +0.000 C 
ATOM     25  C   UNL     1       0.583   9.233  19.939  0.00  0.00    +0.000 C 
ATOM     26  C   UNL     1       1.332   8.925  18.847  0.00  0.00    +0.000 C 
BRANCH  26  27
ATOM     27  C   UNL     1       2.313   7.887  18.710  0.00  0.00    +0.000 A 
ATOM     28  C   UNL     1       2.406   6.766  19.487  0.00  0.00    +0.000 A 
ATOM     29  S   UNL     1       3.671   5.756  18.919  0.00  0.00    +0.000 S 
ATOM     30  C   UNL     1       3.964   6.879  17.641  0.00  0.00    +0.000 A 
ATOM     31  C   UNL     1       5.001   6.600  16.607  0.00  0.00    +0.000 C 
ATOM     32  N   UNL     1       3.197   7.955  17.647  0.00  0.00    +0.000 NA
ENDBRANCH  26  27
ENDBRANCH   1  25
BRANCH  11  33
ATOM     33  O   UNL     1      -7.024  14.957  19.977  0.00  0.00    +0.000 OA
ATOM     34  H   UNL     1      -7.367  15.256  20.836  0.00  0.00    +0.000 HD
ENDBRANCH  11  33
BRANCH  19  35
ATOM     35  O   UNL     1      -2.559  11.932  22.734  0.00  0.00    +0.000 OA
ATOM     36  H   UNL     1      -3.349  11.952  23.309  0.00  0.00    +0.000 HD
ENDBRANCH  19  35
TORSDOF 4
ENDMDL
MODEL 2
REMARK VINA RESULT:      -8.1      0.903      1.051
REMARK  Name = 
REMARK  10 active torsions:
REMARK  status: ('A' for Active; 'I' for Inactive)
REMARK    1  A    between atoms: C_1  and  C_2
REMARK    2  A    between atoms: C_2  and  C_10
REMARK    3  A    between atoms: C_3  and  C_4
REMARK    4  A    between atoms: C_7  and  C_8
REMARK    5  A    between atoms: C_18  and  C_19
REMARK    6  A    between atoms: C_20  and  O_21
REMARK    7  A    between atoms: C_22  and  C_23
REMARK    8  A    between atoms: C_26  and  C_27
REMARK    9  A    between atoms: C_26  and  C_28
REMARK   10  A    between atoms: C_29  and  O_30
REMARK                            x       y       z     vdW  Elec       q    Type
REMARK                         _______ _______ _______ _____ _____    ______ ____
ROOT
ATOM      1  C   UNL     1      -0.207  10.450  19.415  0.00  0.00    +0.000 C 
ATOM      2  C   UNL     1      -0.910  10.808  18.066  0.00  0.00    +0.000 C 
ATOM      3  C   UNL     1      -2.018   9.883  17.656  0.00  0.00    +0.000 C 
ATOM      4  O   UNL     1      -2.380  10.097  16.281  0.00  0.00    +0.000 OA
ATOM      5  C   UNL     1      -3.475  10.195  17.194  0.00  0.00    +0.000 C 
ATOM      6  C   UNL     1      -4.197  11.518  17.099  0.00  0.00    +0.000 C 
ATOM      7  C   UNL     1      -5.587  11.458  17.783  0.00  0.00    +0.000 C 
ATOM      8  C   UNL     1      -6.057  12.779  18.433  0.00  0.00    +0.000 C 
ATOM      9  C   UNL     1      -5.262  13.104  19.715  0.00  0.00    +0.000 C 
ATOM     10  C   UNL     1      -5.542  12.083  20.821  0.00  0.00    +0.000 C 
ATOM     11  C   UNL     1      -5.388  14.591  20.194  0.00  0.00    +0.000 C 
ATOM     12  C   UNL     1      -4.712  14.983  21.576  0.00  0.00    +0.000 C 
ATOM     13  C   UNL     1      -5.682  14.789  22.740  0.00  0.00    +0.000 C 
ATOM     14  C   UNL     1      -3.311  14.348  21.654  0.00  0.00    +0.000 C 
ATOM     15  O   UNL     1      -2.832  13.907  20.595  0.00  0.00    +0.000 OA
ATOM     16  C   UNL     1      -2.326  14.420  22.838  0.00  0.00    +0.000 C 
ATOM     17  C   UNL     1      -1.821  15.867  22.848  0.00  0.00    +0.000 C 
ATOM     18  C   UNL     1      -2.832  14.090  24.259  0.00  0.00    +0.000 C 
ATOM     19  C   UNL     1      -1.232  13.288  22.563  0.00  0.00    +0.000 C 
ATOM     20  C   UNL     1      -0.214  13.370  21.397  0.00  0.00    +0.000 C 
ATOM     21  C   UNL     1       0.400  11.987  21.151  0.00  0.00    +0.000 C 
ATOM     22  O   UNL     1       0.771  11.218  22.026  0.00  0.00    +0.000 OA
ATOM     23  O   UNL     1       0.438  11.694  19.821  0.00  0.00    +0.000 OA
ENDROOT
BRANCH   1  25
ATOM     24  C   UNL     1       1.089   8.519  20.622  0.00  0.00    +0.000 C 
ATOM     25  C   UNL     1       0.799   9.279  19.346  0.00  0.00    +0.000 C 
ATOM     26  C   UNL     1       1.398   8.934  18.176  0.00  0.00    +0.000 C 
BRANCH  26  27
ATOM     27  C   UNL     1       2.355   7.890  17.945  0.00  0.00    +0.000 A 
ATOM     28  C   UNL     1       3.650   8.065  17.545  0.00  0.00    +0.000 A 
ATOM     29  S   UNL     1       4.458   6.553  17.475  0.00  0.00    +0.000 S 
ATOM     30  C   UNL     1       3.018   5.783  18.036  0.00  0.00    +0.000 A 
ATOM     31  C   UNL     1       2.993   4.316  18.294  0.00  0.00    +0.000 C 
ATOM     32  N   UNL     1       1.988   6.587  18.235  0.00  0.00    +0.000 NA
ENDBRANCH  26  27
ENDBRANCH   1  25
BRANCH  11  33
ATOM     33  O   UNL     1      -6.756  15.011  20.176  0.00  0.00    +0.000 OA
ATOM     34  H   UNL     1      -6.795  15.949  20.430  0.00  0.00    +0.000 HD
ENDBRANCH  11  33
BRANCH  19  35
ATOM     35  O   UNL     1      -1.980  12.052  22.438  0.00  0.00    +0.000 OA
ATOM     36  H   UNL     1      -1.659  11.612  21.627  0.00  0.00    +0.000 HD
ENDBRANCH  19  35
TORSDOF 4
ENDMDL
MODEL 3
REMARK VINA RESULT:      -7.9      1.523      2.034
REMARK  Name = 
REMARK  10 active torsions:
REMARK  status: ('A' for Active; 'I' for Inactive)
REMARK    1  A    between atoms: C_1  and  C_2
REMARK    2  A    between atoms: C_2  and  C_10
REMARK    3  A    between atoms: C_3  and  C_4
REMARK    4  A    between atoms: C_7  and  C_8
REMARK    5  A    between atoms: C_18  and  C_19
REMARK    6  A    between atoms: C_20  and  O_21
REMARK    7  A    between atoms: C_22  and  C_23
REMARK    8  A    between atoms: C_26  and  C_27
REMARK    9  A    between atoms: C_26  and  C_28
REMARK   10  A    between atoms: C_29  and  O_30
REMARK                            x       y       z     vdW  Elec       q    Type
REMARK                         _______ _______ _______ _____ _____    ______ ____
ROOT
ATOM      1  C   UNL     1       0.008  10.531  19.210  0.00  0.00    +0.000 C 
ATOM      2  C   UNL     1      -0.956  10.832  18.018  0.00  0.00    +0.000 C 
ATOM      3  C   UNL     1      -2.160   9.942  17.927  0.00  0.00    +0.000 C 
ATOM      4  O   UNL     1      -2.803  10.079  16.648  0.00  0.00    +0.000 OA
ATOM      5  C   UNL     1      -3.670  10.299  17.762  0.00  0.00    +0.000 C 
ATOM      6  C   UNL     1      -4.344  11.650  17.718  0.00  0.00    +0.000 C 
ATOM      7  C   UNL     1      -5.555  11.713  18.684  0.00  0.00    +0.000 C 
ATOM      8  C   UNL     1      -5.822  13.100  19.312  0.00  0.00    +0.000 C 
ATOM      9  C   UNL     1      -4.758  13.469  20.365  0.00  0.00    +0.000 C 
ATOM     10  C   UNL     1      -4.831  12.544  21.584  0.00  0.00    +0.000 C 
ATOM     11  C   UNL     1      -4.721  14.991  20.741  0.00  0.00    +0.000 C 
ATOM     12  C   UNL     1      -3.748  15.440  21.912  0.00  0.00    +0.000 C 
ATOM     13  C   UNL     1      -4.451  15.381  23.267  0.00  0.00    +0.000 C 
ATOM     14  C   UNL     1      -2.388  14.737  21.741  0.00  0.00    +0.000 C 
ATOM     15  O   UNL     1      -2.166  14.198  20.643  0.00  0.00    +0.000 OA
ATOM     16  C   UNL     1      -1.169  14.838  22.679  0.00  0.00    +0.000 C 
ATOM     17  C   UNL     1      -0.619  16.252  22.467  0.00  0.00    +0.000 C 
ATOM     18  C   UNL     1      -1.368  14.635  24.197  0.00  0.00    +0.000 C 
ATOM     19  C   UNL     1      -0.204  13.632  22.268  0.00  0.00    +0.000 C 
ATOM     20  C   UNL     1       0.540  13.577  20.911  0.00  0.00    +0.000 C 
ATOM     21  C   UNL     1       1.033  12.149  20.650  0.00  0.00    +0.000 C 
ATOM     22  O   UNL     1       1.555  11.423  21.485  0.00  0.00    +0.000 OA
ATOM     23  O   UNL     1       0.772  11.762  19.370  0.00  0.00    +0.000 OA
ENDROOT
BRANCH   1  25
ATOM     24  C   UNL     1       1.726   9.206  17.740  0.00  0.00    +0.000 C 
ATOM     25  C   UNL     1       0.930   9.304  19.023  0.00  0.00    +0.000 C 
ATOM     26  C   UNL     1       1.032   8.348  19.983  0.00  0.00    +0.000 C 
BRANCH  26  27
ATOM     27  C   UNL     1       1.826   7.153  19.963  0.00  0.00    +0.000 A 
ATOM     28  C   UNL     1       3.001   6.984  19.285  0.00  0.00    +0.000 A 
ATOM     29  S   UNL     1       3.652   5.430  19.607  0.00  0.00    +0.000 S 
ATOM     30  C   UNL     1       2.329   5.122  20.673  0.00  0.00    +0.000 A 
ATOM     31  C   UNL     1       2.253   3.846  21.440  0.00  0.00    +0.000 C 
ATOM     32  N   UNL     1       1.439   6.093  20.765  0.00  0.00    +0.000 NA
ENDBRANCH  26  27
ENDBRANCH   1  25
BRANCH  11  33
ATOM     33  O   UNL     1      -6.043  15.482  20.981  0.00  0.00    +0.000 OA
ATOM     34  H   UNL     1      -6.529  15.486  20.139  0.00  0.00    +0.000 HD
ENDBRANCH  11  33
BRANCH  19  35
ATOM     35  O   UNL     1      -1.008  12.432  22.404  0.00  0.00    +0.000 OA
ATOM     36  H   UNL     1      -1.930  12.728  22.534  0.00  0.00    +0.000 HD
ENDBRANCH  19  35
TORSDOF 4
ENDMDL
MODEL 4
REMARK VINA RESULT:      -7.7      1.323      1.568
REMARK  Name = 
REMARK  10 active torsions:
REMARK  status: ('A' for Active; 'I' for Inactive)
REMARK    1  A    between atoms: C_1  and  C_2
REMARK    2  A    between atoms: C_2  and  C_10
REMARK    3  A    between atoms: C_3  and  C_4
REMARK    4  A    between atoms: C_7  and  C_8
REMARK    5  A    between atoms: C_18  and  C_19
REMARK    6  A    between atoms: C_20  and  O_21
REMARK    7  A    between atoms: C_22  and  C_23
REMARK    8  A    between atoms: C_26  and  C_27
REMARK    9  A    between atoms: C_26  and  C_28
REMARK   10  A    between atoms: C_29  and  O_30
REMARK                            x       y       z     vdW  Elec       q    Type
REMARK                         _______ _______ _______ _____ _____    ______ ____
ROOT
ATOM      1  C   UNL     1      -0.083  10.612  19.229  0.00  0.00    +0.000 C 
ATOM      2  C   UNL     1      -1.051  10.908  18.040  0.00  0.00    +0.000 C 
ATOM      3  C   UNL     1      -2.252  10.012  17.953  0.00  0.00    +0.000 C 
ATOM      4  O   UNL     1      -2.898  10.146  16.676  0.00  0.00    +0.000 OA
ATOM      5  C   UNL     1      -3.764  10.362  17.792  0.00  0.00    +0.000 C 
ATOM      6  C   UNL     1      -4.445  11.709  17.750  0.00  0.00    +0.000 C 
ATOM      7  C   UNL     1      -5.653  11.767  18.719  0.00  0.00    +0.000 C 
ATOM      8  C   UNL     1      -5.926  13.152  19.348  0.00  0.00    +0.000 C 
ATOM      9  C   UNL     1      -4.860  13.527  20.398  0.00  0.00    +0.000 C 
ATOM     10  C   UNL     1      -4.925  12.601  21.617  0.00  0.00    +0.000 C 
ATOM     11  C   UNL     1      -4.829  15.048  20.773  0.00  0.00    +0.000 C 
ATOM     12  C   UNL     1      -3.855  15.503  21.941  0.00  0.00    +0.000 C 
ATOM     13  C   UNL     1      -4.554  15.440  23.299  0.00  0.00    +0.000 C 
ATOM     14  C   UNL     1      -2.493  14.807  21.767  0.00  0.00    +0.000 C 
ATOM     15  O   UNL     1      -2.271  14.268  20.668  0.00  0.00    +0.000 OA
ATOM     16  C   UNL     1      -1.271  14.913  22.702  0.00  0.00    +0.000 C 
ATOM     17  C   UNL     1      -0.729  16.331  22.487  0.00  0.00    +0.000 C 
ATOM     18  C   UNL     1      -1.465  14.710  24.220  0.00  0.00    +0.000 C 
ATOM     19  C   UNL     1      -0.301  13.712  22.288  0.00  0.00    +0.000 C 
ATOM     20  C   UNL     1       0.439  13.661  20.928  0.00  0.00    +0.000 C 
ATOM     21  C   UNL     1       0.939  12.236  20.666  0.00  0.00    +0.000 C 
ATOM     22  O   UNL     1       1.467  11.512  21.500  0.00  0.00    +0.000 OA
ATOM     23  O   UNL     1       0.676  11.847  19.388  0.00  0.00    +0.000 OA
ENDROOT
BRANCH   1  25
ATOM     24  C   UNL     1       1.581   9.257  17.725  0.00  0.00    +0.000 C 
ATOM     25  C   UNL     1       0.845   9.390  19.040  0.00  0.00    +0.000 C 
ATOM     26  C   UNL     1       1.004   8.468  20.026  0.00  0.00    +0.000 C 
BRANCH  26  27
ATOM     27  C   UNL     1       1.811   7.282  20.007  0.00  0.00    +0.000 A 
ATOM     28  C   UNL     1       1.576   6.143  20.725  0.00  0.00    +0.000 A 
ATOM     29  S   UNL     1       2.742   4.946  20.336  0.00  0.00    +0.000 S 
ATOM     30  C   UNL     1       3.444   6.035  19.194  0.00  0.00    +0.000 A 
ATOM     31  C   UNL     1       4.593   5.609  18.347  0.00  0.00    +0.000 C 
ATOM     32  N   UNL     1       2.875   7.224  19.124  0.00  0.00    +0.000 NA
ENDBRANCH  26  27
ENDBRANCH   1  25
BRANCH  11  33
ATOM     33  O   UNL     1      -6.154  15.533  21.017  0.00  0.00    +0.000 OA
ATOM     34  H   UNL     1      -6.788  14.914  20.618  0.00  0.00    +0.000 HD
ENDBRANCH  11  33
BRANCH  19  35
ATOM     35  O   UNL     1      -1.099  12.509  22.426  0.00  0.00    +0.000 OA
ATOM     36  H   UNL     1      -0.924  11.965  21.633  0.00  0.00    +0.000 HD
ENDBRANCH  19  35
TORSDOF 4
ENDMDL
MODEL 5
REMARK VINA RESULT:      -7.7      0.927      1.127
REMARK  Name = 
REMARK  10 active torsions:
REMARK  status: ('A' for Active; 'I' for Inactive)
REMARK    1  A    between atoms: C_1  and  C_2
REMARK    2  A    between atoms: C_2  and  C_10
REMARK    3  A    between atoms: C_3  and  C_4
REMARK    4  A    between atoms: C_7  and  C_8
REMARK    5  A    between atoms: C_18  and  C_19
REMARK    6  A    between atoms: C_20  and  O_21
REMARK    7  A    between atoms: C_22  and  C_23
REMARK    8  A    between atoms: C_26  and  C_27
REMARK    9  A    between atoms: C_26  and  C_28
REMARK   10  A    between atoms: C_29  and  O_30
REMARK                            x       y       z     vdW  Elec       q    Type
REMARK                         _______ _______ _______ _____ _____    ______ ____
ROOT
ATOM      1  C   UNL     1      -0.567  11.381  19.193  0.00  0.00    +0.000 C 
ATOM      2  C   UNL     1      -1.368  11.757  17.905  0.00  0.00    +0.000 C 
ATOM      3  C   UNL     1      -2.287  10.690  17.387  0.00  0.00    +0.000 C 
ATOM      4  O   UNL     1      -2.726  10.996  16.053  0.00  0.00    +0.000 OA
ATOM      5  C   UNL     1      -3.790  10.762  16.978  0.00  0.00    +0.000 C 
ATOM      6  C   UNL     1      -4.758  11.919  17.056  0.00  0.00    +0.000 C 
ATOM      7  C   UNL     1      -6.088  11.502  17.735  0.00  0.00    +0.000 C 
ATOM      8  C   UNL     1      -6.786  12.614  18.551  0.00  0.00    +0.000 C 
ATOM      9  C   UNL     1      -6.030  12.928  19.859  0.00  0.00    +0.000 C 
ATOM     10  C   UNL     1      -6.072  11.743  20.828  0.00  0.00    +0.000 C 
ATOM     11  C   UNL     1      -6.429  14.290  20.524  0.00  0.00    +0.000 C 
ATOM     12  C   UNL     1      -5.800  14.634  21.940  0.00  0.00    +0.000 C 
ATOM     13  C   UNL     1      -6.677  14.110  23.076  0.00  0.00    +0.000 C 
ATOM     14  C   UNL     1      -4.300  14.283  21.929  0.00  0.00    +0.000 C 
ATOM     15  O   UNL     1      -3.777  14.079  20.820  0.00  0.00    +0.000 OA
ATOM     16  C   UNL     1      -3.312  14.401  23.107  0.00  0.00    +0.000 C 
ATOM     17  C   UNL     1      -3.098  15.906  23.298  0.00  0.00    +0.000 C 
ATOM     18  C   UNL     1      -3.699  13.804  24.477  0.00  0.00    +0.000 C 
ATOM     19  C   UNL     1      -2.027  13.550  22.683  0.00  0.00    +0.000 C 
ATOM     20  C   UNL     1      -1.082  13.974  21.531  0.00  0.00    +0.000 C 
ATOM     21  C   UNL     1      -0.218  12.781  21.107  0.00  0.00    +0.000 C 
ATOM     22  O   UNL     1       0.323  11.997  21.875  0.00  0.00    +0.000 OA
ATOM     23  O   UNL     1      -0.164  12.667  19.750  0.00  0.00    +0.000 OA
ENDROOT
BRANCH   1  25
ATOM     24  C   UNL     1       1.839  11.005  18.225  0.00  0.00    +0.000 C 
ATOM     25  C   UNL     1       0.645  10.448  18.970  0.00  0.00    +0.000 C 
ATOM     26  C   UNL     1       0.646   9.171  19.436  0.00  0.00    +0.000 C 
BRANCH  26  27
ATOM     27  C   UNL     1       1.675   8.181  19.305  0.00  0.00    +0.000 A 
ATOM     28  C   UNL     1       1.924   7.165  20.185  0.00  0.00    +0.000 A 
ATOM     29  S   UNL     1       3.190   6.168  19.595  0.00  0.00    +0.000 S 
ATOM     30  C   UNL     1       3.273   7.151  18.178  0.00  0.00    +0.000 A 
ATOM     31  C   UNL     1       4.215   6.813  17.073  0.00  0.00    +0.000 C 
ATOM     32  N   UNL     1       2.439   8.175  18.151  0.00  0.00    +0.000 NA
ENDBRANCH  26  27
ENDBRANCH   1  25
BRANCH  11  33
ATOM     33  O   UNL     1      -7.852  14.431  20.568  0.00  0.00    +0.000 OA
ATOM     34  H   UNL     1      -8.070  15.379  20.553  0.00  0.00    +0.000 HD
ENDBRANCH  11  33
BRANCH  19  35
ATOM     35  O   UNL     1      -2.524  12.215  22.406  0.00  0.00    +0.000 OA
ATOM     36  H   UNL     1      -2.320  11.673  23.193  0.00  0.00    +0.000 HD
ENDBRANCH  19  35
TORSDOF 4
ENDMDL
MODEL 6
REMARK VINA RESULT:      -7.3      1.588      2.051
REMARK  Name = 
REMARK  10 active torsions:
REMARK  status: ('A' for Active; 'I' for Inactive)
REMARK    1  A    between atoms: C_1  and  C_2
REMARK    2  A    between atoms: C_2  and  C_10
REMARK    3  A    between atoms: C_3  and  C_4
REMARK    4  A    between atoms: C_7  and  C_8
REMARK    5  A    between atoms: C_18  and  C_19
REMARK    6  A    between atoms: C_20  and  O_21
REMARK    7  A    between atoms: C_22  and  C_23
REMARK    8  A    between atoms: C_26  and  C_27
REMARK    9  A    between atoms: C_26  and  C_28
REMARK   10  A    between atoms: C_29  and  O_30
REMARK                            x       y       z     vdW  Elec       q    Type
REMARK                         _______ _______ _______ _____ _____    ______ ____
ROOT
ATOM      1  C   UNL     1       0.063  11.699  19.132  0.00  0.00    +0.000 C 
ATOM      2  C   UNL     1      -1.076  11.933  18.088  0.00  0.00    +0.000 C 
ATOM      3  C   UNL     1      -2.125  10.862  18.034  0.00  0.00    +0.000 C 
ATOM      4  O   UNL     1      -2.933  10.997  16.852  0.00  0.00    +0.000 OA
ATOM      5  C   UNL     1      -3.681  10.969  18.070  0.00  0.00    +0.000 C 
ATOM      6  C   UNL     1      -4.562  12.183  18.241  0.00  0.00    +0.000 C 
ATOM      7  C   UNL     1      -5.639  11.955  19.333  0.00  0.00    +0.000 C 
ATOM      8  C   UNL     1      -6.045  13.216  20.128  0.00  0.00    +0.000 C 
ATOM      9  C   UNL     1      -4.931  13.670  21.095  0.00  0.00    +0.000 C 
ATOM     10  C   UNL     1      -4.706  12.644  22.210  0.00  0.00    +0.000 C 
ATOM     11  C   UNL     1      -5.091  15.137  21.623  0.00  0.00    +0.000 C 
ATOM     12  C   UNL     1      -4.066  15.643  22.723  0.00  0.00    +0.000 C 
ATOM     13  C   UNL     1      -4.578  15.348  24.132  0.00  0.00    +0.000 C 
ATOM     14  C   UNL     1      -2.643  15.200  22.335  0.00  0.00    +0.000 C 
ATOM     15  O   UNL     1      -2.475  14.803  21.169  0.00  0.00    +0.000 OA
ATOM     16  C   UNL     1      -1.349  15.426  23.142  0.00  0.00    +0.000 C 
ATOM     17  C   UNL     1      -1.062  16.927  23.022  0.00  0.00    +0.000 C 
ATOM     18  C   UNL     1      -1.325  15.062  24.643  0.00  0.00    +0.000 C 
ATOM     19  C   UNL     1      -0.262  14.442  22.505  0.00  0.00    +0.000 C 
ATOM     20  C   UNL     1       0.308  14.633  21.078  0.00  0.00    +0.000 C 
ATOM     21  C   UNL     1       0.987  13.338  20.616  0.00  0.00    +0.000 C 
ATOM     22  O   UNL     1       1.716  12.643  21.309  0.00  0.00    +0.000 OA
ATOM     23  O   UNL     1       0.635  13.024  19.338  0.00  0.00    +0.000 OA
ENDROOT
BRANCH   1  25
ATOM     24  C   UNL     1       2.317  11.162  17.907  0.00  0.00    +0.000 C 
ATOM     25  C   UNL     1       1.139  10.669  18.718  0.00  0.00    +0.000 C 
ATOM     26  C   UNL     1       1.037   9.362  19.079  0.00  0.00    +0.000 C 
BRANCH  26  27
ATOM     27  C   UNL     1       1.934   8.286  18.771  0.00  0.00    +0.000 A 
ATOM     28  C   UNL     1       2.784   8.233  17.701  0.00  0.00    +0.000 A 
ATOM     29  S   UNL     1       3.731   6.805  17.768  0.00  0.00    +0.000 S 
ATOM     30  C   UNL     1       2.961   6.390  19.257  0.00  0.00    +0.000 A 
ATOM     31  C   UNL     1       3.366   5.168  20.006  0.00  0.00    +0.000 C 
ATOM     32  N   UNL     1       2.036   7.237  19.669  0.00  0.00    +0.000 NA
ENDBRANCH  26  27
ENDBRANCH   1  25
BRANCH  11  33
ATOM     33  O   UNL     1      -6.436  15.373  22.054  0.00  0.00    +0.000 OA
ATOM     34  H   UNL     1      -6.510  16.299  22.340  0.00  0.00    +0.000 HD
ENDBRANCH  11  33
BRANCH  19  35
ATOM     35  O   UNL     1      -0.842  13.116  22.599  0.00  0.00    +0.000 OA
ATOM     36  H   UNL     1      -0.103  12.500  22.768  0.00  0.00    +0.000 HD
ENDBRANCH  19  35
TORSDOF 4
ENDMDL
MODEL 7
REMARK VINA RESULT:      -7.1      1.117      1.524
REMARK  Name = 
REMARK  10 active torsions:
REMARK  status: ('A' for Active; 'I' for Inactive)
REMARK    1  A    between atoms: C_1  and  C_2
REMARK    2  A    between atoms: C_2  and  C_10
REMARK    3  A    between atoms: C_3  and  C_4
REMARK    4  A    between atoms: C_7  and  C_8
REMARK    5  A    between atoms: C_18  and  C_19
REMARK    6  A    between atoms: C_20  and  O_21
REMARK    7  A    between atoms: C_22  and  C_23
REMARK    8  A    between atoms: C_26  and  C_27
REMARK    9  A    between atoms: C_26  and  C_28
REMARK   10  A    between atoms: C_29  and  O_30
REMARK                            x       y       z     vdW  Elec       q    Type
REMARK                         _______ _______ _______ _____ _____    ______ ____
ROOT
ATOM      1  C   UNL     1      -0.498  10.347  20.487  0.00  0.00    +0.000 C 
ATOM      2  C   UNL     1      -0.795  10.710  18.997  0.00  0.00    +0.000 C 
ATOM      3  C   UNL     1      -1.722   9.772  18.282  0.00  0.00    +0.000 C 
ATOM      4  O   UNL     1      -1.682   9.996  16.862  0.00  0.00    +0.000 OA
ATOM      5  C   UNL     1      -2.993  10.064  17.426  0.00  0.00    +0.000 C 
ATOM      6  C   UNL     1      -3.684  11.376  17.139  0.00  0.00    +0.000 C 
ATOM      7  C   UNL     1      -5.210  11.284  17.399  0.00  0.00    +0.000 C 
ATOM      8  C   UNL     1      -5.871  12.589  17.897  0.00  0.00    +0.000 C 
ATOM      9  C   UNL     1      -5.480  12.911  19.354  0.00  0.00    +0.000 C 
ATOM     10  C   UNL     1      -6.044  11.872  20.328  0.00  0.00    +0.000 C 
ATOM     11  C   UNL     1      -5.767  14.390  19.789  0.00  0.00    +0.000 C 
ATOM     12  C   UNL     1      -5.520  14.776  21.308  0.00  0.00    +0.000 C 
ATOM     13  C   UNL     1      -6.777  14.551  22.147  0.00  0.00    +0.000 C 
ATOM     14  C   UNL     1      -4.187  14.164  21.778  0.00  0.00    +0.000 C 
ATOM     15  O   UNL     1      -3.417  13.744  20.896  0.00  0.00    +0.000 OA
ATOM     16  C   UNL     1      -3.581  14.238  23.194  0.00  0.00    +0.000 C 
ATOM     17  C   UNL     1      -3.128  15.693  23.358  0.00  0.00    +0.000 C 
ATOM     18  C   UNL     1      -4.464  13.882  24.410  0.00  0.00    +0.000 C 
ATOM     19  C   UNL     1      -2.432  13.128  23.233  0.00  0.00    +0.000 C 
ATOM     20  C   UNL     1      -1.126  13.242  22.407  0.00  0.00    +0.000 C 
ATOM     21  C   UNL     1      -0.441  11.872  22.335  0.00  0.00    +0.000 C 
ATOM     22  O   UNL     1      -0.319  11.098  23.275  0.00  0.00    +0.000 OA
ATOM     23  O   UNL     1      -0.020  11.596  21.070  0.00  0.00    +0.000 OA
ENDROOT
BRANCH   1  25
ATOM     24  C   UNL     1       1.184   9.083  22.049  0.00  0.00    +0.000 C 
ATOM     25  C   UNL     1       0.509   9.194  20.700  0.00  0.00    +0.000 C 
ATOM     26  C   UNL     1       0.774   8.300  19.711  0.00  0.00    +0.000 C 
BRANCH  26  27
ATOM     27  C   UNL     1       1.682   7.189  19.740  0.00  0.00    +0.000 A 
ATOM     28  C   UNL     1       2.878   7.115  19.084  0.00  0.00    +0.000 A 
ATOM     29  S   UNL     1       3.674   5.644  19.467  0.00  0.00    +0.000 S 
ATOM     30  C   UNL     1       2.370   5.242  20.526  0.00  0.00    +0.000 A 
ATOM     31  C   UNL     1       2.408   3.990  21.334  0.00  0.00    +0.000 C 
ATOM     32  N   UNL     1       1.388   6.123  20.573  0.00  0.00    +0.000 NA
ENDBRANCH  26  27
ENDBRANCH   1  25
BRANCH  11  33
ATOM     33  O   UNL     1      -7.081  14.787  19.385  0.00  0.00    +0.000 OA
ATOM     34  H   UNL     1      -7.232  15.701  19.679  0.00  0.00    +0.000 HD
ENDBRANCH  11  33
BRANCH  19  35
ATOM     35  O   UNL     1      -3.089  11.881  22.892  0.00  0.00    +0.000 OA
ATOM     36  H   UNL     1      -2.402  11.298  22.513  0.00  0.00    +0.000 HD
ENDBRANCH  19  35
TORSDOF 4
ENDMDL
MODEL 8
REMARK VINA RESULT:      -6.9      4.975      6.321
REMARK  Name = 
REMARK  10 active torsions:
REMARK  status: ('A' for Active; 'I' for Inactive)
REMARK    1  A    between atoms: C_1  and  C_2
REMARK    2  A    between atoms: C_2  and  C_10
REMARK    3  A    between atoms: C_3  and  C_4
REMARK    4  A    between atoms: C_7  and  C_8
REMARK    5  A    between atoms: C_18  and  C_19
REMARK    6  A    between atoms: C_20  and  O_21
REMARK    7  A    between atoms: C_22  and  C_23
REMARK    8  A    between atoms: C_26  and  C_27
REMARK    9  A    between atoms: C_26  and  C_28
REMARK   10  A    between atoms: C_29  and  O_30
REMARK                            x       y       z     vdW  Elec       q    Type
REMARK                         _______ _______ _______ _____ _____    ______ ____
ROOT
ATOM      1  C   UNL     1       1.626  15.188  19.084  0.00  0.00    +0.000 C 
ATOM      2  C   UNL     1       1.103  13.724  18.927  0.00  0.00    +0.000 C 
ATOM      3  C   UNL     1       1.694  12.727  19.880  0.00  0.00    +0.000 C 
ATOM      4  O   UNL     1       1.403  11.383  19.459  0.00  0.00    +0.000 OA
ATOM      5  C   UNL     1       1.001  11.674  20.799  0.00  0.00    +0.000 C 
ATOM      6  C   UNL     1      -0.468  11.416  21.036  0.00  0.00    +0.000 C 
ATOM      7  C   UNL     1      -0.798  11.349  22.549  0.00  0.00    +0.000 C 
ATOM      8  C   UNL     1      -2.203  11.859  22.939  0.00  0.00    +0.000 C 
ATOM      9  C   UNL     1      -2.311  13.394  22.821  0.00  0.00    +0.000 C 
ATOM     10  C   UNL     1      -1.416  14.098  23.845  0.00  0.00    +0.000 C 
ATOM     11  C   UNL     1      -3.780  13.939  22.800  0.00  0.00    +0.000 C 
ATOM     12  C   UNL     1      -3.986  15.513  22.814  0.00  0.00    +0.000 C 
ATOM     13  C   UNL     1      -4.076  16.045  24.243  0.00  0.00    +0.000 C 
ATOM     14  C   UNL     1      -2.993  16.163  21.832  0.00  0.00    +0.000 C 
ATOM     15  O   UNL     1      -2.427  15.411  21.020  0.00  0.00    +0.000 OA
ATOM     16  C   UNL     1      -2.805  17.671  21.568  0.00  0.00    +0.000 C 
ATOM     17  C   UNL     1      -4.059  18.100  20.798  0.00  0.00    +0.000 C 
ATOM     18  C   UNL     1      -2.639  18.630  22.767  0.00  0.00    +0.000 C 
ATOM     19  C   UNL     1      -1.414  17.806  20.792  0.00  0.00    +0.000 C 
ATOM     20  C   UNL     1      -1.204  17.280  19.350  0.00  0.00    +0.000 C 
ATOM     21  C   UNL     1       0.296  17.182  19.051  0.00  0.00    +0.000 C 
ATOM     22  O   UNL     1       1.130  18.025  19.355  0.00  0.00    +0.000 OA
ATOM     23  O   UNL     1       0.603  16.003  18.440  0.00  0.00    +0.000 OA
ENDROOT
BRANCH   1  25
ATOM     24  C   UNL     1       3.110  16.008  17.086  0.00  0.00    +0.000 C 
ATOM     25  C   UNL     1       3.028  15.457  18.492  0.00  0.00    +0.000 C 
ATOM     26  C   UNL     1       4.155  15.216  19.214  0.00  0.00    +0.000 C 
BRANCH  26  27
ATOM     27  C   UNL     1       5.520  15.399  18.813  0.00  0.00    +0.000 A 
ATOM     28  C   UNL     1       6.261  14.520  18.074  0.00  0.00    +0.000 A 
ATOM     29  S   UNL     1       7.814  15.177  17.755  0.00  0.00    +0.000 S 
ATOM     30  C   UNL     1       7.352  16.614  18.594  0.00  0.00    +0.000 A 
ATOM     31  C   UNL     1       8.283  17.775  18.681  0.00  0.00    +0.000 C 
ATOM     32  N   UNL     1       6.136  16.602  19.109  0.00  0.00    +0.000 NA
ENDBRANCH  26  27
ENDBRANCH   1  25
BRANCH  11  33
ATOM     33  O   UNL     1      -4.558  13.329  23.835  0.00  0.00    +0.000 OA
ATOM     34  H   UNL     1      -4.685  12.391  23.615  0.00  0.00    +0.000 HD
ENDBRANCH  11  33
BRANCH  19  35
ATOM     35  O   UNL     1      -0.429  17.188  21.658  0.00  0.00    +0.000 OA
ATOM     36  H   UNL     1      -0.915  16.839  22.430  0.00  0.00    +0.000 HD
ENDBRANCH  19  35
TORSDOF 4
ENDMDL
MODEL 9
REMARK VINA RESULT:      -6.9      1.195      1.600
REMARK  Name = 
REMARK  10 active torsions:
REMARK  status: ('A' for Active; 'I' for Inactive)
REMARK    1  A    between atoms: C_1  and  C_2
REMARK    2  A    between atoms: C_2  and  C_10
REMARK    3  A    between atoms: C_3  and  C_4
REMARK    4  A    between atoms: C_7  and  C_8
REMARK    5  A    between atoms: C_18  and  C_19
REMARK    6  A    between atoms: C_20  and  O_21
REMARK    7  A    between atoms: C_22  and  C_23
REMARK    8  A    between atoms: C_26  and  C_27
REMARK    9  A    between atoms: C_26  and  C_28
REMARK   10  A    between atoms: C_29  and  O_30
REMARK                            x       y       z     vdW  Elec       q    Type
REMARK                         _______ _______ _______ _____ _____    ______ ____
ROOT
ATOM      1  C   UNL     1      -1.407  11.239  19.314  0.00  0.00    +0.000 C 
ATOM      2  C   UNL     1      -2.334  11.685  18.138  0.00  0.00    +0.000 C 
ATOM      3  C   UNL     1      -3.495  10.777  17.857  0.00  0.00    +0.000 C 
ATOM      4  O   UNL     1      -4.090  11.086  16.585  0.00  0.00    +0.000 OA
ATOM      5  C   UNL     1      -5.010  11.100  17.679  0.00  0.00    +0.000 C 
ATOM      6  C   UNL     1      -5.740  12.416  17.809  0.00  0.00    +0.000 C 
ATOM      7  C   UNL     1      -6.990  12.286  18.717  0.00  0.00    +0.000 C 
ATOM      8  C   UNL     1      -7.342  13.549  19.535  0.00  0.00    +0.000 C 
ATOM      9  C   UNL     1      -6.337  13.790  20.681  0.00  0.00    +0.000 C 
ATOM     10  C   UNL     1      -6.420  12.686  21.740  0.00  0.00    +0.000 C 
ATOM     11  C   UNL     1      -6.381  15.236  21.285  0.00  0.00    +0.000 C 
ATOM     12  C   UNL     1      -5.476  15.534  22.555  0.00  0.00    +0.000 C 
ATOM     13  C   UNL     1      -6.230  15.241  23.851  0.00  0.00    +0.000 C 
ATOM     14  C   UNL     1      -4.082  14.916  22.343  0.00  0.00    +0.000 C 
ATOM     15  O   UNL     1      -3.793  14.561  21.187  0.00  0.00    +0.000 OA
ATOM     16  C   UNL     1      -2.907  14.915  23.341  0.00  0.00    +0.000 C 
ATOM     17  C   UNL     1      -2.410  16.364  23.372  0.00  0.00    +0.000 C 
ATOM     18  C   UNL     1      -3.158  14.474  24.799  0.00  0.00    +0.000 C 
ATOM     19  C   UNL     1      -1.875  13.822  22.796  0.00  0.00    +0.000 C 
ATOM     20  C   UNL     1      -1.075  14.005  21.482  0.00  0.00    +0.000 C 
ATOM     21  C   UNL     1      -0.511  12.653  21.030  0.00  0.00    +0.000 C 
ATOM     22  O   UNL     1       0.007  11.826  21.768  0.00  0.00    +0.000 OA
ATOM     23  O   UNL     1      -0.703  12.458  19.696  0.00  0.00    +0.000 OA
ENDROOT
BRANCH   1  25
ATOM     24  C   UNL     1      -0.353   9.610  17.553  0.00  0.00    +0.000 C 
ATOM     25  C   UNL     1      -0.426  10.091  18.985  0.00  0.00    +0.000 C 
ATOM     26  C   UNL     1       0.354   9.535  19.949  0.00  0.00    +0.000 C 
BRANCH  26  27
ATOM     27  C   UNL     1       1.300   8.464  19.815  0.00  0.00    +0.000 A 
ATOM     28  C   UNL     1       1.445   7.412  20.676  0.00  0.00    +0.000 A 
ATOM     29  S   UNL     1       2.634   6.325  20.087  0.00  0.00    +0.000 S 
ATOM     30  C   UNL     1       2.828   7.327  18.694  0.00  0.00    +0.000 A 
ATOM     31  C   UNL     1       3.759   6.934  17.600  0.00  0.00    +0.000 C 
ATOM     32  N   UNL     1       2.083   8.418  18.675  0.00  0.00    +0.000 NA
ENDBRANCH  26  27
ENDBRANCH   1  25
BRANCH  11  33
ATOM     33  O   UNL     1      -7.732  15.636  21.536  0.00  0.00    +0.000 OA
ATOM     34  H   UNL     1      -7.767  16.607  21.559  0.00  0.00    +0.000 HD
ENDBRANCH  11  33
BRANCH  19  35
ATOM     35  O   UNL     1      -2.632  12.588  22.710  0.00  0.00    +0.000 OA
ATOM     36  H   UNL     1      -3.538  12.794  23.012  0.00  0.00    +0.000 HD
ENDBRANCH  19  35
TORSDOF 4
ENDMDL
