MODEL 1
REMARK VINA RESULT:      -8.8      0.000      0.000
REMARK  Name = 
REMARK  8 active torsions:
REMARK  status: ('A' for Active; 'I' for Inactive)
REMARK    1  A    between atoms: C_1  and  O_2
REMARK    2  A    between atoms: O_2  and  C_3
REMARK    3  A    between atoms: C_8  and  C_9
REMARK    4  A    between atoms: C_9  and  N_10
REMARK    5  A    between atoms: C_11  and  C_13
REMARK    6  A    between atoms: C_13  and  S_14
REMARK    7  A    between atoms: S_14  and  C_15
REMARK    8  A    between atoms: C_27  and  C_28
REMARK                            x       y       z     vdW  Elec       q    Type
REMARK                         _______ _______ _______ _____ _____    ______ ____
ROOT
ATOM      1  C   UNL     1       3.132   6.326  18.425  0.00  0.00    +0.000 A 
ATOM      2  N   UNL     1       3.808   6.736  17.393  0.00  0.00    +0.000 NA
ATOM      3  C   UNL     1       4.614   5.791  16.733  0.00  0.00    +0.000 A 
ATOM      4  C   UNL     1       5.281   6.181  15.570  0.00  0.00    +0.000 A 
ATOM      5  C   UNL     1       6.009   5.251  14.818  0.00  0.00    +0.000 A 
ATOM      6  C   UNL     1       6.069   3.917  15.215  0.00  0.00    +0.000 A 
ATOM      7  C   UNL     1       5.447   3.518  16.397  0.00  0.00    +0.000 A 
ATOM      8  C   UNL     1       4.744   4.460  17.157  0.00  0.00    +0.000 A 
ATOM      9  C   UNL     1       4.115   4.100  18.454  0.00  0.00    +0.000 A 
ATOM     10  N   UNL     1       4.448   2.960  18.993  0.00  0.00    +0.000 NA
ATOM     11  C   UNL     1       3.895   2.756  20.229  0.00  0.00    +0.000 A 
ATOM     12  O   UNL     1       4.350   1.959  21.042  0.00  0.00    +0.000 OA
ATOM     13  C   UNL     1       2.680   3.564  20.651  0.00  0.00    +0.000 A 
ATOM     14  C   UNL     1       1.799   2.986  21.719  0.00  0.00    +0.000 C 
ATOM     15  N   UNL     1       2.376   4.675  20.054  0.00  0.00    +0.000 NA
ATOM     16  N   UNL     1       3.223   5.041  18.993  0.00  0.00    +0.000 N 
ENDROOT
BRANCH   1  17
ATOM     17  S   UNL     1       2.034   7.508  19.166  0.00  0.00    +0.000 S 
BRANCH  17  18
ATOM     18  C   UNL     1       2.398   8.976  18.156  0.00  0.00    +0.000 C 
BRANCH  18  20
ATOM     19  N   UNL     1       0.228   9.850  18.928  0.00  0.00    +0.000 N 
ATOM     20  C   UNL     1       1.474  10.158  18.425  0.00  0.00    +0.000 C 
ATOM     21  O   UNL     1       1.855  11.315  18.260  0.00  0.00    +0.000 OA
ATOM     22  H   UNL     1       0.004   8.883  19.127  0.00  0.00    +0.000 HD
BRANCH  19  23
ATOM     23  C   UNL     1      -0.768  10.858  19.223  0.00  0.00    +0.000 C 
BRANCH  23  29
ATOM     24  C   UNL     1      -3.104  11.580  18.467  0.00  0.00    +0.000 A 
ATOM     25  C   UNL     1      -4.140  11.521  17.519  0.00  0.00    +0.000 A 
ATOM     26  C   UNL     1      -4.023  10.711  16.389  0.00  0.00    +0.000 A 
ATOM     27  C   UNL     1      -2.871   9.970  16.186  0.00  0.00    +0.000 A 
ATOM     28  C   UNL     1      -1.819  10.044  17.100  0.00  0.00    +0.000 A 
ATOM     29  C   UNL     1      -1.923  10.850  18.251  0.00  0.00    +0.000 A 
BRANCH  24  31
ATOM     30  C   UNL     1      -4.503  12.682  20.016  0.00  0.00    +0.000 C 
ATOM     31  O   UNL     1      -3.177  12.352  19.599  0.00  0.00    +0.000 OA
ENDBRANCH  24  31
ENDBRANCH  23  29
ENDBRANCH  19  23
ENDBRANCH  18  20
ENDBRANCH  17  18
ENDBRANCH   1  17
TORSDOF 6
ENDMDL
MODEL 2
REMARK VINA RESULT:      -8.8      1.885      3.412
REMARK  Name = 
REMARK  8 active torsions:
REMARK  status: ('A' for Active; 'I' for Inactive)
REMARK    1  A    between atoms: C_1  and  O_2
REMARK    2  A    between atoms: O_2  and  C_3
REMARK    3  A    between atoms: C_8  and  C_9
REMARK    4  A    between atoms: C_9  and  N_10
REMARK    5  A    between atoms: C_11  and  C_13
REMARK    6  A    between atoms: C_13  and  S_14
REMARK    7  A    between atoms: S_14  and  C_15
REMARK    8  A    between atoms: C_27  and  C_28
REMARK                            x       y       z     vdW  Elec       q    Type
REMARK                         _______ _______ _______ _____ _____    ______ ____
ROOT
ATOM      1  C   UNL     1       3.014   6.574  17.862  0.00  0.00    +0.000 A 
ATOM      2  N   UNL     1       1.985   5.799  18.037  0.00  0.00    +0.000 NA
ATOM      3  C   UNL     1       2.236   4.436  18.270  0.00  0.00    +0.000 A 
ATOM      4  C   UNL     1       1.154   3.597  18.549  0.00  0.00    +0.000 A 
ATOM      5  C   UNL     1       1.361   2.256  18.894  0.00  0.00    +0.000 A 
ATOM      6  C   UNL     1       2.653   1.741  18.975  0.00  0.00    +0.000 A 
ATOM      7  C   UNL     1       3.742   2.550  18.657  0.00  0.00    +0.000 A 
ATOM      8  C   UNL     1       3.525   3.882  18.287  0.00  0.00    +0.000 A 
ATOM      9  C   UNL     1       4.646   4.769  17.881  0.00  0.00    +0.000 A 
ATOM     10  N   UNL     1       5.798   4.212  17.629  0.00  0.00    +0.000 NA
ATOM     11  C   UNL     1       6.743   5.092  17.170  0.00  0.00    +0.000 A 
ATOM     12  O   UNL     1       7.735   4.739  16.543  0.00  0.00    +0.000 OA
ATOM     13  C   UNL     1       6.561   6.581  17.407  0.00  0.00    +0.000 A 
ATOM     14  C   UNL     1       7.790   7.441  17.389  0.00  0.00    +0.000 C 
ATOM     15  N   UNL     1       5.395   7.075  17.690  0.00  0.00    +0.000 NA
ATOM     16  N   UNL     1       4.351   6.139  17.788  0.00  0.00    +0.000 N 
ENDROOT
BRANCH   1  17
ATOM     17  S   UNL     1       2.673   8.308  17.686  0.00  0.00    +0.000 S 
BRANCH  17  18
ATOM     18  C   UNL     1       1.739   8.618  19.216  0.00  0.00    +0.000 C 
BRANCH  18  20
ATOM     19  N   UNL     1      -0.424   9.769  19.466  0.00  0.00    +0.000 N 
ATOM     20  C   UNL     1       0.920   9.903  19.193  0.00  0.00    +0.000 C 
ATOM     21  O   UNL     1       1.452  10.994  19.002  0.00  0.00    +0.000 OA
ATOM     22  H   UNL     1      -0.789   8.855  19.704  0.00  0.00    +0.000 HD
BRANCH  19  23
ATOM     23  C   UNL     1      -1.338  10.892  19.469  0.00  0.00    +0.000 C 
BRANCH  23  29
ATOM     24  C   UNL     1      -3.510  11.561  18.291  0.00  0.00    +0.000 A 
ATOM     25  C   UNL     1      -4.330  11.518  17.151  0.00  0.00    +0.000 A 
ATOM     26  C   UNL     1      -3.944  10.785  16.027  0.00  0.00    +0.000 A 
ATOM     27  C   UNL     1      -2.737  10.107  16.024  0.00  0.00    +0.000 A 
ATOM     28  C   UNL     1      -1.896  10.168  17.136  0.00  0.00    +0.000 A 
ATOM     29  C   UNL     1      -2.273  10.896  18.283  0.00  0.00    +0.000 A 
BRANCH  24  31
ATOM     30  C   UNL     1      -5.221  12.652  19.497  0.00  0.00    +0.000 C 
ATOM     31  O   UNL     1      -3.850  12.257  19.424  0.00  0.00    +0.000 OA
ENDBRANCH  24  31
ENDBRANCH  23  29
ENDBRANCH  19  23
ENDBRANCH  18  20
ENDBRANCH  17  18
ENDBRANCH   1  17
TORSDOF 6
ENDMDL
MODEL 3
REMARK VINA RESULT:      -8.8      2.079      2.836
REMARK  Name = 
REMARK  8 active torsions:
REMARK  status: ('A' for Active; 'I' for Inactive)
REMARK    1  A    between atoms: C_1  and  O_2
REMARK    2  A    between atoms: O_2  and  C_3
REMARK    3  A    between atoms: C_8  and  C_9
REMARK    4  A    between atoms: C_9  and  N_10
REMARK    5  A    between atoms: C_11  and  C_13
REMARK    6  A    between atoms: C_13  and  S_14
REMARK    7  A    between atoms: S_14  and  C_15
REMARK    8  A    between atoms: C_27  and  C_28
REMARK                            x       y       z     vdW  Elec       q    Type
REMARK                         _______ _______ _______ _____ _____    ______ ____
ROOT
ATOM      1  C   UNL     1       3.256   6.353  18.502  0.00  0.00    +0.000 A 
ATOM      2  N   UNL     1       3.924   6.777  17.470  0.00  0.00    +0.000 NA
ATOM      3  C   UNL     1       4.672   5.827  16.752  0.00  0.00    +0.000 A 
ATOM      4  C   UNL     1       5.328   6.238  15.589  0.00  0.00    +0.000 A 
ATOM      5  C   UNL     1       5.996   5.310  14.781  0.00  0.00    +0.000 A 
ATOM      6  C   UNL     1       6.007   3.959  15.122  0.00  0.00    +0.000 A 
ATOM      7  C   UNL     1       5.397   3.538  16.302  0.00  0.00    +0.000 A 
ATOM      8  C   UNL     1       4.754   4.476  17.117  0.00  0.00    +0.000 A 
ATOM      9  C   UNL     1       4.141   4.088  18.414  0.00  0.00    +0.000 A 
ATOM     10  N   UNL     1       4.437   2.913  18.897  0.00  0.00    +0.000 NA
ATOM     11  C   UNL     1       3.905   2.681  20.138  0.00  0.00    +0.000 A 
ATOM     12  O   UNL     1       4.344   1.832  20.905  0.00  0.00    +0.000 OA
ATOM     13  C   UNL     1       2.737   3.522  20.623  0.00  0.00    +0.000 A 
ATOM     14  C   UNL     1       1.857   2.937  21.689  0.00  0.00    +0.000 C 
ATOM     15  N   UNL     1       2.467   4.669  20.080  0.00  0.00    +0.000 NA
ATOM     16  N   UNL     1       3.304   5.043  19.014  0.00  0.00    +0.000 N 
ENDROOT
BRANCH   1  17
ATOM     17  S   UNL     1       2.228   7.549  19.319  0.00  0.00    +0.000 S 
BRANCH  17  18
ATOM     18  C   UNL     1       1.719   8.570  17.903  0.00  0.00    +0.000 C 
BRANCH  18  20
ATOM     19  N   UNL     1       0.659  10.403  19.161  0.00  0.00    +0.000 N 
ATOM     20  C   UNL     1       1.604  10.056  18.220  0.00  0.00    +0.000 C 
ATOM     21  O   UNL     1       2.360  10.877  17.706  0.00  0.00    +0.000 OA
ATOM     22  H   UNL     1       0.127   9.671  19.616  0.00  0.00    +0.000 HD
BRANCH  19  23
ATOM     23  C   UNL     1       0.419  11.774  19.562  0.00  0.00    +0.000 C 
BRANCH  23  29
ATOM     24  C   UNL     1      -0.347  11.273  21.952  0.00  0.00    +0.000 A 
ATOM     25  C   UNL     1      -1.301  11.425  22.973  0.00  0.00    +0.000 A 
ATOM     26  C   UNL     1      -2.472  12.148  22.747  0.00  0.00    +0.000 A 
ATOM     27  C   UNL     1      -2.694  12.739  21.515  0.00  0.00    +0.000 A 
ATOM     28  C   UNL     1      -1.741  12.626  20.502  0.00  0.00    +0.000 A 
ATOM     29  C   UNL     1      -0.556  11.892  20.708  0.00  0.00    +0.000 A 
BRANCH  24  31
ATOM     30  C   UNL     1       0.642   9.255  22.674  0.00  0.00    +0.000 C 
ATOM     31  O   UNL     1       0.814  10.561  22.121  0.00  0.00    +0.000 OA
ENDBRANCH  24  31
ENDBRANCH  23  29
ENDBRANCH  19  23
ENDBRANCH  18  20
ENDBRANCH  17  18
ENDBRANCH   1  17
TORSDOF 6
ENDMDL
MODEL 4
REMARK VINA RESULT:      -8.7      1.132      1.846
REMARK  Name = 
REMARK  8 active torsions:
REMARK  status: ('A' for Active; 'I' for Inactive)
REMARK    1  A    between atoms: C_1  and  O_2
REMARK    2  A    between atoms: O_2  and  C_3
REMARK    3  A    between atoms: C_8  and  C_9
REMARK    4  A    between atoms: C_9  and  N_10
REMARK    5  A    between atoms: C_11  and  C_13
REMARK    6  A    between atoms: C_13  and  S_14
REMARK    7  A    between atoms: S_14  and  C_15
REMARK    8  A    between atoms: C_27  and  C_28
REMARK                            x       y       z     vdW  Elec       q    Type
REMARK                         _______ _______ _______ _____ _____    ______ ____
ROOT
ATOM      1  C   UNL     1       2.899   6.565  18.979  0.00  0.00    +0.000 A 
ATOM      2  N   UNL     1       3.544   7.050  17.959  0.00  0.00    +0.000 NA
ATOM      3  C   UNL     1       4.293   6.147  17.182  0.00  0.00    +0.000 A 
ATOM      4  C   UNL     1       4.925   6.625  16.031  0.00  0.00    +0.000 A 
ATOM      5  C   UNL     1       5.591   5.748  15.167  0.00  0.00    +0.000 A 
ATOM      6  C   UNL     1       5.626   4.382  15.439  0.00  0.00    +0.000 A 
ATOM      7  C   UNL     1       5.040   3.894  16.606  0.00  0.00    +0.000 A 
ATOM      8  C   UNL     1       4.399   4.781  17.478  0.00  0.00    +0.000 A 
ATOM      9  C   UNL     1       3.812   4.320  18.763  0.00  0.00    +0.000 A 
ATOM     10  N   UNL     1       4.131   3.126  19.180  0.00  0.00    +0.000 NA
ATOM     11  C   UNL     1       3.622   2.825  20.416  0.00  0.00    +0.000 A 
ATOM     12  O   UNL     1       4.085   1.944  21.132  0.00  0.00    +0.000 OA
ATOM     13  C   UNL     1       2.451   3.624  20.962  0.00  0.00    +0.000 A 
ATOM     14  C   UNL     1       1.597   2.973  22.010  0.00  0.00    +0.000 C 
ATOM     15  N   UNL     1       2.158   4.793  20.482  0.00  0.00    +0.000 NA
ATOM     16  N   UNL     1       2.972   5.231  19.423  0.00  0.00    +0.000 N 
ENDROOT
BRANCH   1  17
ATOM     17  S   UNL     1       1.870   7.704  19.871  0.00  0.00    +0.000 S 
BRANCH  17  18
ATOM     18  C   UNL     1       1.425   8.861  18.540  0.00  0.00    +0.000 C 
BRANCH  18  20
ATOM     19  N   UNL     1      -0.075  10.770  18.124  0.00  0.00    +0.000 N 
ATOM     20  C   UNL     1       0.751  10.138  19.029  0.00  0.00    +0.000 C 
ATOM     21  O   UNL     1       0.895  10.533  20.183  0.00  0.00    +0.000 OA
ATOM     22  H   UNL     1      -0.224  10.347  17.216  0.00  0.00    +0.000 HD
BRANCH  19  23
ATOM     23  C   UNL     1      -0.777  11.998  18.431  0.00  0.00    +0.000 C 
BRANCH  23  29
ATOM     24  C   UNL     1      -2.960  11.311  17.285  0.00  0.00    +0.000 A 
ATOM     25  C   UNL     1      -4.361  11.204  17.317  0.00  0.00    +0.000 A 
ATOM     26  C   UNL     1      -5.082  11.665  18.418  0.00  0.00    +0.000 A 
ATOM     27  C   UNL     1      -4.417  12.218  19.499  0.00  0.00    +0.000 A 
ATOM     28  C   UNL     1      -3.024  12.300  19.497  0.00  0.00    +0.000 A 
ATOM     29  C   UNL     1      -2.279  11.847  18.390  0.00  0.00    +0.000 A 
BRANCH  24  31
ATOM     30  C   UNL     1      -2.941  10.207  15.198  0.00  0.00    +0.000 C 
ATOM     31  O   UNL     1      -2.206  10.883  16.220  0.00  0.00    +0.000 OA
ENDBRANCH  24  31
ENDBRANCH  23  29
ENDBRANCH  19  23
ENDBRANCH  18  20
ENDBRANCH  17  18
ENDBRANCH   1  17
TORSDOF 6
ENDMDL
MODEL 5
REMARK VINA RESULT:      -8.6      2.151      3.862
REMARK  Name = 
REMARK  8 active torsions:
REMARK  status: ('A' for Active; 'I' for Inactive)
REMARK    1  A    between atoms: C_1  and  O_2
REMARK    2  A    between atoms: O_2  and  C_3
REMARK    3  A    between atoms: C_8  and  C_9
REMARK    4  A    between atoms: C_9  and  N_10
REMARK    5  A    between atoms: C_11  and  C_13
REMARK    6  A    between atoms: C_13  and  S_14
REMARK    7  A    between atoms: S_14  and  C_15
REMARK    8  A    between atoms: C_27  and  C_28
REMARK                            x       y       z     vdW  Elec       q    Type
REMARK                         _______ _______ _______ _____ _____    ______ ____
ROOT
ATOM      1  C   UNL     1       2.926   6.627  17.909  0.00  0.00    +0.000 A 
ATOM      2  N   UNL     1       1.928   5.809  18.077  0.00  0.00    +0.000 NA
ATOM      3  C   UNL     1       2.233   4.446  18.243  0.00  0.00    +0.000 A 
ATOM      4  C   UNL     1       1.189   3.558  18.513  0.00  0.00    +0.000 A 
ATOM      5  C   UNL     1       1.451   2.212  18.791  0.00  0.00    +0.000 A 
ATOM      6  C   UNL     1       2.761   1.739  18.814  0.00  0.00    +0.000 A 
ATOM      7  C   UNL     1       3.813   2.600  18.503  0.00  0.00    +0.000 A 
ATOM      8  C   UNL     1       3.540   3.939  18.199  0.00  0.00    +0.000 A 
ATOM      9  C   UNL     1       4.618   4.881  17.802  0.00  0.00    +0.000 A 
ATOM     10  N   UNL     1       5.780   4.377  17.494  0.00  0.00    +0.000 NA
ATOM     11  C   UNL     1       6.681   5.309  17.050  0.00  0.00    +0.000 A 
ATOM     12  O   UNL     1       7.667   5.019  16.381  0.00  0.00    +0.000 OA
ATOM     13  C   UNL     1       6.455   6.779  17.358  0.00  0.00    +0.000 A 
ATOM     14  C   UNL     1       7.653   7.681  17.345  0.00  0.00    +0.000 C 
ATOM     15  N   UNL     1       5.282   7.218  17.695  0.00  0.00    +0.000 NA
ATOM     16  N   UNL     1       4.273   6.243  17.780  0.00  0.00    +0.000 N 
ENDROOT
BRANCH   1  17
ATOM     17  S   UNL     1       2.520   8.353  17.821  0.00  0.00    +0.000 S 
BRANCH  17  18
ATOM     18  C   UNL     1       1.512   8.534  19.325  0.00  0.00    +0.000 C 
BRANCH  18  20
ATOM     19  N   UNL     1       0.415  10.546  18.422  0.00  0.00    +0.000 N 
ATOM     20  C   UNL     1       0.958   9.938  19.534  0.00  0.00    +0.000 C 
ATOM     21  O   UNL     1       0.945  10.459  20.646  0.00  0.00    +0.000 OA
ATOM     22  H   UNL     1       0.373  10.031  17.551  0.00  0.00    +0.000 HD
BRANCH  19  23
ATOM     23  C   UNL     1      -0.139  11.883  18.454  0.00  0.00    +0.000 C 
BRANCH  23  29
ATOM     24  C   UNL     1      -2.562  11.271  17.900  0.00  0.00    +0.000 A 
ATOM     25  C   UNL     1      -3.929  11.334  18.221  0.00  0.00    +0.000 A 
ATOM     26  C   UNL     1      -4.363  12.051  19.337  0.00  0.00    +0.000 A 
ATOM     27  C   UNL     1      -3.443  12.694  20.147  0.00  0.00    +0.000 A 
ATOM     28  C   UNL     1      -2.080  12.614  19.860  0.00  0.00    +0.000 A 
ATOM     29  C   UNL     1      -1.623  11.902  18.733  0.00  0.00    +0.000 A 
BRANCH  24  31
ATOM     30  C   UNL     1      -2.761  10.876  15.581  0.00  0.00    +0.000 C 
ATOM     31  O   UNL     1      -2.086  10.590  16.808  0.00  0.00    +0.000 OA
ENDBRANCH  24  31
ENDBRANCH  23  29
ENDBRANCH  19  23
ENDBRANCH  18  20
ENDBRANCH  17  18
ENDBRANCH   1  17
TORSDOF 6
ENDMDL
MODEL 6
REMARK VINA RESULT:      -8.6      1.467      2.416
REMARK  Name = 
REMARK  8 active torsions:
REMARK  status: ('A' for Active; 'I' for Inactive)
REMARK    1  A    between atoms: C_1  and  O_2
REMARK    2  A    between atoms: O_2  and  C_3
REMARK    3  A    between atoms: C_8  and  C_9
REMARK    4  A    between atoms: C_9  and  N_10
REMARK    5  A    between atoms: C_11  and  C_13
REMARK    6  A    between atoms: C_13  and  S_14
REMARK    7  A    between atoms: S_14  and  C_15
REMARK    8  A    between atoms: C_27  and  C_28
REMARK                            x       y       z     vdW  Elec       q    Type
REMARK                         _______ _______ _______ _____ _____    ______ ____
ROOT
ATOM      1  C   UNL     1       3.297   6.317  18.350  0.00  0.00    +0.000 A 
ATOM      2  N   UNL     1       3.982   6.695  17.312  0.00  0.00    +0.000 NA
ATOM      3  C   UNL     1       4.757   5.719  16.661  0.00  0.00    +0.000 A 
ATOM      4  C   UNL     1       5.434   6.076  15.492  0.00  0.00    +0.000 A 
ATOM      5  C   UNL     1       6.131   5.116  14.749  0.00  0.00    +0.000 A 
ATOM      6  C   UNL     1       6.150   3.785  15.160  0.00  0.00    +0.000 A 
ATOM      7  C   UNL     1       5.519   3.418  16.347  0.00  0.00    +0.000 A 
ATOM      8  C   UNL     1       4.847   4.389  17.099  0.00  0.00    +0.000 A 
ATOM      9  C   UNL     1       4.210   4.062  18.400  0.00  0.00    +0.000 A 
ATOM     10  N   UNL     1       4.509   2.918  18.950  0.00  0.00    +0.000 NA
ATOM     11  C   UNL     1       3.952   2.744  20.190  0.00  0.00    +0.000 A 
ATOM     12  O   UNL     1       4.383   1.941  21.010  0.00  0.00    +0.000 OA
ATOM     13  C   UNL     1       2.763   3.594  20.606  0.00  0.00    +0.000 A 
ATOM     14  C   UNL     1       1.868   3.054  21.681  0.00  0.00    +0.000 C 
ATOM     15  N   UNL     1       2.493   4.708  19.997  0.00  0.00    +0.000 NA
ATOM     16  N   UNL     1       3.348   5.036  18.931  0.00  0.00    +0.000 N 
ENDROOT
BRANCH   1  17
ATOM     17  S   UNL     1       2.238   7.541  19.081  0.00  0.00    +0.000 S 
BRANCH  17  18
ATOM     18  C   UNL     1       2.199   8.782  17.752  0.00  0.00    +0.000 C 
BRANCH  18  20
ATOM     19  N   UNL     1       0.298  10.029  18.699  0.00  0.00    +0.000 N 
ATOM     20  C   UNL     1       1.564  10.106  18.158  0.00  0.00    +0.000 C 
ATOM     21  O   UNL     1       2.180  11.164  18.064  0.00  0.00    +0.000 OA
ATOM     22  H   UNL     1      -0.124   9.118  18.834  0.00  0.00    +0.000 HD
BRANCH  19  23
ATOM     23  C   UNL     1      -0.445  11.197  19.121  0.00  0.00    +0.000 C 
BRANCH  23  29
ATOM     24  C   UNL     1      -1.707  12.084  21.164  0.00  0.00    +0.000 A 
ATOM     25  C   UNL     1      -2.007  11.992  22.534  0.00  0.00    +0.000 A 
ATOM     26  C   UNL     1      -1.399  11.019  23.329  0.00  0.00    +0.000 A 
ATOM     27  C   UNL     1      -0.506  10.124  22.766  0.00  0.00    +0.000 A 
ATOM     28  C   UNL     1      -0.223  10.181  21.400  0.00  0.00    +0.000 A 
ATOM     29  C   UNL     1      -0.820  11.162  20.583  0.00  0.00    +0.000 A 
BRANCH  24  31
ATOM     30  C   UNL     1      -3.689  12.941  20.210  0.00  0.00    +0.000 C 
ATOM     31  O   UNL     1      -2.269  13.029  20.343  0.00  0.00    +0.000 OA
ENDBRANCH  24  31
ENDBRANCH  23  29
ENDBRANCH  19  23
ENDBRANCH  18  20
ENDBRANCH  17  18
ENDBRANCH   1  17
TORSDOF 6
ENDMDL
MODEL 7
REMARK VINA RESULT:      -8.5      0.981      1.015
REMARK  Name = 
REMARK  8 active torsions:
REMARK  status: ('A' for Active; 'I' for Inactive)
REMARK    1  A    between atoms: C_1  and  O_2
REMARK    2  A    between atoms: O_2  and  C_3
REMARK    3  A    between atoms: C_8  and  C_9
REMARK    4  A    between atoms: C_9  and  N_10
REMARK    5  A    between atoms: C_11  and  C_13
REMARK    6  A    between atoms: C_13  and  S_14
REMARK    7  A    between atoms: S_14  and  C_15
REMARK    8  A    between atoms: C_27  and  C_28
REMARK                            x       y       z     vdW  Elec       q    Type
REMARK                         _______ _______ _______ _____ _____    ______ ____
ROOT
ATOM      1  C   UNL     1       2.951   6.465  19.012  0.00  0.00    +0.000 A 
ATOM      2  N   UNL     1       3.575   6.989  18.000  0.00  0.00    +0.000 NA
ATOM      3  C   UNL     1       4.340   6.124  17.196  0.00  0.00    +0.000 A 
ATOM      4  C   UNL     1       4.950   6.644  16.052  0.00  0.00    +0.000 A 
ATOM      5  C   UNL     1       5.631   5.804  15.162  0.00  0.00    +0.000 A 
ATOM      6  C   UNL     1       5.701   4.434  15.402  0.00  0.00    +0.000 A 
ATOM      7  C   UNL     1       5.138   3.904  16.561  0.00  0.00    +0.000 A 
ATOM      8  C   UNL     1       4.481   4.754  17.459  0.00  0.00    +0.000 A 
ATOM      9  C   UNL     1       3.917   4.249  18.737  0.00  0.00    +0.000 A 
ATOM     10  N   UNL     1       4.269   3.055  19.125  0.00  0.00    +0.000 NA
ATOM     11  C   UNL     1       3.778   2.712  20.357  0.00  0.00    +0.000 A 
ATOM     12  O   UNL     1       4.268   1.827  21.049  0.00  0.00    +0.000 OA
ATOM     13  C   UNL     1       2.592   3.469  20.930  0.00  0.00    +0.000 A 
ATOM     14  C   UNL     1       1.763   2.774  21.969  0.00  0.00    +0.000 C 
ATOM     15  N   UNL     1       2.266   4.641  20.479  0.00  0.00    +0.000 NA
ATOM     16  N   UNL     1       3.060   5.124  19.425  0.00  0.00    +0.000 N 
ENDROOT
BRANCH   1  17
ATOM     17  S   UNL     1       1.900   7.557  19.939  0.00  0.00    +0.000 S 
BRANCH  17  18
ATOM     18  C   UNL     1       1.596   8.854  18.700  0.00  0.00    +0.000 C 
BRANCH  18  20
ATOM     19  N   UNL     1       0.387  10.956  18.266  0.00  0.00    +0.000 N 
ATOM     20  C   UNL     1       0.611   9.925  19.153  0.00  0.00    +0.000 C 
ATOM     21  O   UNL     1       0.012   9.829  20.221  0.00  0.00    +0.000 OA
ATOM     22  H   UNL     1       0.844  10.934  17.362  0.00  0.00    +0.000 HD
BRANCH  19  23
ATOM     23  C   UNL     1      -0.509  12.056  18.554  0.00  0.00    +0.000 C 
BRANCH  23  29
ATOM     24  C   UNL     1      -3.015  11.913  19.056  0.00  0.00    +0.000 A 
ATOM     25  C   UNL     1      -4.320  11.625  18.622  0.00  0.00    +0.000 A 
ATOM     26  C   UNL     1      -4.551  11.160  17.327  0.00  0.00    +0.000 A 
ATOM     27  C   UNL     1      -3.491  10.995  16.452  0.00  0.00    +0.000 A 
ATOM     28  C   UNL     1      -2.193  11.308  16.857  0.00  0.00    +0.000 A 
ATOM     29  C   UNL     1      -1.939  11.771  18.163  0.00  0.00    +0.000 A 
BRANCH  24  31
ATOM     30  C   UNL     1      -3.304  13.630  20.649  0.00  0.00    +0.000 C 
ATOM     31  O   UNL     1      -2.734  12.361  20.322  0.00  0.00    +0.000 OA
ENDBRANCH  24  31
ENDBRANCH  23  29
ENDBRANCH  19  23
ENDBRANCH  18  20
ENDBRANCH  17  18
ENDBRANCH   1  17
TORSDOF 6
ENDMDL
MODEL 8
REMARK VINA RESULT:      -8.4      1.732      3.610
REMARK  Name = 
REMARK  8 active torsions:
REMARK  status: ('A' for Active; 'I' for Inactive)
REMARK    1  A    between atoms: C_1  and  O_2
REMARK    2  A    between atoms: O_2  and  C_3
REMARK    3  A    between atoms: C_8  and  C_9
REMARK    4  A    between atoms: C_9  and  N_10
REMARK    5  A    between atoms: C_11  and  C_13
REMARK    6  A    between atoms: C_13  and  S_14
REMARK    7  A    between atoms: S_14  and  C_15
REMARK    8  A    between atoms: C_27  and  C_28
REMARK                            x       y       z     vdW  Elec       q    Type
REMARK                         _______ _______ _______ _____ _____    ______ ____
ROOT
ATOM      1  C   UNL     1       2.887   6.590  18.577  0.00  0.00    +0.000 A 
ATOM      2  N   UNL     1       1.887   5.941  19.097  0.00  0.00    +0.000 NA
ATOM      3  C   UNL     1       2.168   4.703  19.703  0.00  0.00    +0.000 A 
ATOM      4  C   UNL     1       1.129   4.026  20.347  0.00  0.00    +0.000 A 
ATOM      5  C   UNL     1       1.378   2.846  21.057  0.00  0.00    +0.000 A 
ATOM      6  C   UNL     1       2.671   2.334  21.141  0.00  0.00    +0.000 A 
ATOM      7  C   UNL     1       3.713   2.971  20.468  0.00  0.00    +0.000 A 
ATOM      8  C   UNL     1       3.450   4.136  19.738  0.00  0.00    +0.000 A 
ATOM      9  C   UNL     1       4.512   4.819  18.955  0.00  0.00    +0.000 A 
ATOM     10  N   UNL     1       5.626   4.171  18.753  0.00  0.00    +0.000 NA
ATOM     11  C   UNL     1       6.507   4.838  17.942  0.00  0.00    +0.000 A 
ATOM     12  O   UNL     1       7.418   4.278  17.342  0.00  0.00    +0.000 OA
ATOM     13  C   UNL     1       6.352   6.334  17.734  0.00  0.00    +0.000 A 
ATOM     14  C   UNL     1       7.569   7.105  17.314  0.00  0.00    +0.000 C 
ATOM     15  N   UNL     1       5.229   6.931  17.987  0.00  0.00    +0.000 NA
ATOM     16  N   UNL     1       4.206   6.106  18.485  0.00  0.00    +0.000 N 
ENDROOT
BRANCH   1  17
ATOM     17  S   UNL     1       2.524   8.200  17.923  0.00  0.00    +0.000 S 
BRANCH  17  18
ATOM     18  C   UNL     1       1.466   8.864  19.246  0.00  0.00    +0.000 C 
BRANCH  18  20
ATOM     19  N   UNL     1      -0.414  10.449  19.382  0.00  0.00    +0.000 N 
ATOM     20  C   UNL     1       0.872  10.232  18.936  0.00  0.00    +0.000 C 
ATOM     21  O   UNL     1       1.534  11.103  18.376  0.00  0.00    +0.000 OA
ATOM     22  H   UNL     1      -0.878   9.723  19.916  0.00  0.00    +0.000 HD
BRANCH  19  23
ATOM     23  C   UNL     1      -1.123  11.690  19.155  0.00  0.00    +0.000 C 
BRANCH  23  29
ATOM     24  C   UNL     1      -3.620  11.850  18.617  0.00  0.00    +0.000 A 
ATOM     25  C   UNL     1      -4.674  11.675  17.703  0.00  0.00    +0.000 A 
ATOM     26  C   UNL     1      -4.431  11.152  16.432  0.00  0.00    +0.000 A 
ATOM     27  C   UNL     1      -3.142  10.817  16.057  0.00  0.00    +0.000 A 
ATOM     28  C   UNL     1      -2.080  11.016  16.941  0.00  0.00    +0.000 A 
ATOM     29  C   UNL     1      -2.307  11.534  18.231  0.00  0.00    +0.000 A 
BRANCH  24  31
ATOM     30  C   UNL     1      -5.128  12.831  20.145  0.00  0.00    +0.000 C 
ATOM     31  O   UNL     1      -3.809  12.348  19.881  0.00  0.00    +0.000 OA
ENDBRANCH  24  31
ENDBRANCH  23  29
ENDBRANCH  19  23
ENDBRANCH  18  20
ENDBRANCH  17  18
ENDBRANCH   1  17
TORSDOF 6
ENDMDL
MODEL 9
REMARK VINA RESULT:      -8.4      2.541      4.450
REMARK  Name = 
REMARK  8 active torsions:
REMARK  status: ('A' for Active; 'I' for Inactive)
REMARK    1  A    between atoms: C_1  and  O_2
REMARK    2  A    between atoms: O_2  and  C_3
REMARK    3  A    between atoms: C_8  and  C_9
REMARK    4  A    between atoms: C_9  and  N_10
REMARK    5  A    between atoms: C_11  and  C_13
REMARK    6  A    between atoms: C_13  and  S_14
REMARK    7  A    between atoms: S_14  and  C_15
REMARK    8  A    between atoms: C_27  and  C_28
REMARK                            x       y       z     vdW  Elec       q    Type
REMARK                         _______ _______ _______ _____ _____    ______ ____
ROOT
ATOM      1  C   UNL     1       3.049   6.517  18.321  0.00  0.00    +0.000 A 
ATOM      2  N   UNL     1       2.071   5.779  18.756  0.00  0.00    +0.000 NA
ATOM      3  C   UNL     1       2.401   4.521  19.292  0.00  0.00    +0.000 A 
ATOM      4  C   UNL     1       1.380   3.745  19.847  0.00  0.00    +0.000 A 
ATOM      5  C   UNL     1       1.671   2.536  20.489  0.00  0.00    +0.000 A 
ATOM      6  C   UNL     1       2.988   2.094  20.594  0.00  0.00    +0.000 A 
ATOM      7  C   UNL     1       4.015   2.832  20.008  0.00  0.00    +0.000 A 
ATOM      8  C   UNL     1       3.712   4.027  19.344  0.00  0.00    +0.000 A 
ATOM      9  C   UNL     1       4.761   4.819  18.652  0.00  0.00    +0.000 A 
ATOM     10  N   UNL     1       5.918   4.251  18.455  0.00  0.00    +0.000 NA
ATOM     11  C   UNL     1       6.788   5.019  17.727  0.00  0.00    +0.000 A 
ATOM     12  O   UNL     1       7.753   4.553  17.131  0.00  0.00    +0.000 OA
ATOM     13  C   UNL     1       6.553   6.515  17.610  0.00  0.00    +0.000 A 
ATOM     14  C   UNL     1       7.737   7.380  17.292  0.00  0.00    +0.000 C 
ATOM     15  N   UNL     1       5.387   7.029  17.854  0.00  0.00    +0.000 NA
ATOM     16  N   UNL     1       4.397   6.116  18.254  0.00  0.00    +0.000 N 
ENDROOT
BRANCH   1  17
ATOM     17  S   UNL     1       2.616   8.144  17.758  0.00  0.00    +0.000 S 
BRANCH  17  18
ATOM     18  C   UNL     1       1.518   8.680  19.106  0.00  0.00    +0.000 C 
BRANCH  18  20
ATOM     19  N   UNL     1      -0.017  10.499  19.741  0.00  0.00    +0.000 N 
ATOM     20  C   UNL     1       1.107  10.145  19.025  0.00  0.00    +0.000 C 
ATOM     21  O   UNL     1       1.784  10.963  18.408  0.00  0.00    +0.000 OA
ATOM     22  H   UNL     1      -0.482   9.797  20.304  0.00  0.00    +0.000 HD
BRANCH  19  23
ATOM     23  C   UNL     1      -0.543  11.847  19.755  0.00  0.00    +0.000 C 
BRANCH  23  29
ATOM     24  C   UNL     1      -1.322  11.680  22.188  0.00  0.00    +0.000 A 
ATOM     25  C   UNL     1      -2.305  11.925  23.162  0.00  0.00    +0.000 A 
ATOM     26  C   UNL     1      -3.517  12.520  22.813  0.00  0.00    +0.000 A 
ATOM     27  C   UNL     1      -3.753  12.890  21.500  0.00  0.00    +0.000 A 
ATOM     28  C   UNL     1      -2.774  12.685  20.527  0.00  0.00    +0.000 A 
ATOM     29  C   UNL     1      -1.547  12.078  20.859  0.00  0.00    +0.000 A 
BRANCH  24  31
ATOM     30  C   UNL     1      -0.216   9.839  23.168  0.00  0.00    +0.000 C 
ATOM     31  O   UNL     1      -0.119  11.087  22.479  0.00  0.00    +0.000 OA
ENDBRANCH  24  31
ENDBRANCH  23  29
ENDBRANCH  19  23
ENDBRANCH  18  20
ENDBRANCH  17  18
ENDBRANCH   1  17
TORSDOF 6
ENDMDL
