MODEL 1
REMARK VINA RESULT:      -8.0      0.000      0.000
REMARK  Name = 
REMARK  8 active torsions:
REMARK  status: ('A' for Active; 'I' for Inactive)
REMARK    1  A    between atoms: C_1  and  C_2
REMARK    2  A    between atoms: C_4  and  C_5
REMARK    3  A    between atoms: N_7  and  C_8
REMARK    4  A    between atoms: C_12  and  C_13
REMARK    5  A    between atoms: C_13  and  C_14
REMARK    6  A    between atoms: C_13  and  N_15
REMARK    7  A    between atoms: C_18  and  C_19
REMARK    8  A    between atoms: N_21  and  C_22
REMARK                            x       y       z     vdW  Elec       q    Type
REMARK                         _______ _______ _______ _____ _____    ______ ____
ROOT
ATOM      1  C   UNL     1      -0.169  13.202  21.853  0.00  0.00    +0.000 C 
ATOM      2  C   UNL     1       0.038  14.624  21.306  0.00  0.00    +0.000 C 
ENDROOT
BRANCH   1   7
ATOM      3  C   UNL     1       0.305  10.120  19.490  0.00  0.00    +0.000 A 
ATOM      4  C   UNL     1      -0.705  10.403  18.569  0.00  0.00    +0.000 A 
ATOM      5  C   UNL     1      -1.504  11.542  18.691  0.00  0.00    +0.000 A 
ATOM      6  C   UNL     1      -1.308  12.421  19.749  0.00  0.00    +0.000 A 
ATOM      7  C   UNL     1      -0.330  12.166  20.722  0.00  0.00    +0.000 A 
ATOM      8  C   UNL     1       0.470  10.994  20.584  0.00  0.00    +0.000 A 
BRANCH   3  11
ATOM      9  C   UNL     1       1.962   8.733  18.251  0.00  0.00    +0.000 C 
ATOM     10  O   UNL     1       2.220   9.584  17.398  0.00  0.00    +0.000 OA
ATOM     11  N   UNL     1       1.134   8.958  19.351  0.00  0.00    +0.000 N 
ATOM     12  H   UNL     1       1.235   8.361  20.162  0.00  0.00    +0.000 HD
BRANCH   9  16
ATOM     13  C   UNL     1       2.066   3.651  18.040  0.00  0.00    +0.000 C 
ATOM     14  C   UNL     1       2.693   5.006  17.929  0.00  0.00    +0.000 A 
ATOM     15  C   UNL     1       2.014   6.173  18.314  0.00  0.00    +0.000 A 
ATOM     16  C   UNL     1       2.625   7.405  18.069  0.00  0.00    +0.000 A 
ATOM     17  C   UNL     1       3.898   7.414  17.474  0.00  0.00    +0.000 A 
ATOM     18  C   UNL     1       4.500   6.218  17.147  0.00  0.00    +0.000 A 
ATOM     19  N   UNL     1       3.930   5.024  17.369  0.00  0.00    +0.000 NA
ENDBRANCH   9  16
ENDBRANCH   3  11
ENDBRANCH   1   7
BRANCH   1  20
ATOM     20  N   UNL     1      -1.180  13.054  22.948  0.00  0.00    +0.000 NA
ATOM     21  C   UNL     1      -1.719  14.353  23.397  0.00  0.00    +0.000 C 
ATOM     22  C   UNL     1      -2.885  14.287  24.398  0.00  0.00    +0.000 C 
ATOM     23  C   UNL     1      -3.961  13.290  23.958  0.00  0.00    +0.000 C 
ATOM     24  C   UNL     1      -3.270  11.947  23.743  0.00  0.00    +0.000 C 
ATOM     25  C   UNL     1      -2.207  12.053  22.648  0.00  0.00    +0.000 C 
BRANCH  23  26
ATOM     26  C   UNL     1      -4.710  13.759  22.703  0.00  0.00    +0.000 C 
ATOM     27  O   UNL     1      -4.703  14.924  22.319  0.00  0.00    +0.000 OA
ATOM     28  N   UNL     1      -5.419  12.766  22.055  0.00  0.00    +0.000 N 
ATOM     29  H   UNL     1      -5.636  11.929  22.582  0.00  0.00    +0.000 HD
BRANCH  28  30
ATOM     30  C   UNL     1      -6.212  13.049  20.860  0.00  0.00    +0.000 C 
ATOM     31  C   UNL     1      -5.394  12.910  19.561  0.00  0.00    +0.000 C 
ATOM     32  C   UNL     1      -5.206  11.472  19.077  0.00  0.00    +0.000 C 
ATOM     33  C   UNL     1      -6.520  10.699  19.040  0.00  0.00    +0.000 C 
ATOM     34  C   UNL     1      -7.214  10.743  20.394  0.00  0.00    +0.000 C 
ATOM     35  C   UNL     1      -7.481  12.184  20.823  0.00  0.00    +0.000 C 
ENDBRANCH  28  30
ENDBRANCH  23  26
ENDBRANCH   1  20
TORSDOF 6
ENDMDL
MODEL 2
REMARK VINA RESULT:      -7.9      4.155     10.924
REMARK  Name = 
REMARK  8 active torsions:
REMARK  status: ('A' for Active; 'I' for Inactive)
REMARK    1  A    between atoms: C_1  and  C_2
REMARK    2  A    between atoms: C_4  and  C_5
REMARK    3  A    between atoms: N_7  and  C_8
REMARK    4  A    between atoms: C_12  and  C_13
REMARK    5  A    between atoms: C_13  and  C_14
REMARK    6  A    between atoms: C_13  and  N_15
REMARK    7  A    between atoms: C_18  and  C_19
REMARK    8  A    between atoms: N_21  and  C_22
REMARK                            x       y       z     vdW  Elec       q    Type
REMARK                         _______ _______ _______ _____ _____    ______ ____
ROOT
ATOM      1  C   UNL     1       2.009   7.515  18.335  0.00  0.00    +0.000 C 
ATOM      2  C   UNL     1       3.255   8.020  17.586  0.00  0.00    +0.000 C 
ENDROOT
BRANCH   1   7
ATOM      3  C   UNL     1       0.679  10.787  20.016  0.00  0.00    +0.000 A 
ATOM      4  C   UNL     1       0.619  10.336  21.337  0.00  0.00    +0.000 A 
ATOM      5  C   UNL     1       0.998   9.038  21.681  0.00  0.00    +0.000 A 
ATOM      6  C   UNL     1       1.442   8.158  20.701  0.00  0.00    +0.000 A 
ATOM      7  C   UNL     1       1.489   8.548  19.354  0.00  0.00    +0.000 A 
ATOM      8  C   UNL     1       1.091   9.876  19.022  0.00  0.00    +0.000 A 
BRANCH   3  11
ATOM      9  C   UNL     1       1.157  13.223  19.808  0.00  0.00    +0.000 C 
ATOM     10  O   UNL     1       2.364  13.132  20.043  0.00  0.00    +0.000 OA
ATOM     11  N   UNL     1       0.305  12.127  19.671  0.00  0.00    +0.000 N 
ATOM     12  H   UNL     1      -0.559  12.249  19.158  0.00  0.00    +0.000 HD
BRANCH   9  16
ATOM     13  C   UNL     1       0.989  17.833  17.665  0.00  0.00    +0.000 C 
ATOM     14  C   UNL     1       0.506  16.785  18.618  0.00  0.00    +0.000 A 
ATOM     15  C   UNL     1       1.208  15.586  18.822  0.00  0.00    +0.000 A 
ATOM     16  C   UNL     1       0.629  14.612  19.638  0.00  0.00    +0.000 A 
ATOM     17  C   UNL     1      -0.613  14.889  20.234  0.00  0.00    +0.000 A 
ATOM     18  C   UNL     1      -1.222  16.103  19.994  0.00  0.00    +0.000 A 
ATOM     19  N   UNL     1      -0.686  17.050  19.210  0.00  0.00    +0.000 NA
ENDBRANCH   9  16
ENDBRANCH   3  11
ENDBRANCH   1   7
BRANCH   1  20
ATOM     20  N   UNL     1       2.084   6.122  18.880  0.00  0.00    +0.000 NA
ATOM     21  C   UNL     1       1.730   5.102  17.873  0.00  0.00    +0.000 C 
ATOM     22  C   UNL     1       1.944   3.638  18.295  0.00  0.00    +0.000 C 
ATOM     23  C   UNL     1       3.318   3.423  18.937  0.00  0.00    +0.000 C 
ATOM     24  C   UNL     1       3.434   4.410  20.093  0.00  0.00    +0.000 C 
ATOM     25  C   UNL     1       3.337   5.851  19.589  0.00  0.00    +0.000 C 
BRANCH  23  26
ATOM     26  C   UNL     1       4.462   3.582  17.927  0.00  0.00    +0.000 C 
ATOM     27  O   UNL     1       4.475   3.016  16.838  0.00  0.00    +0.000 OA
ATOM     28  N   UNL     1       5.495   4.394  18.356  0.00  0.00    +0.000 N 
ATOM     29  H   UNL     1       5.570   4.565  19.351  0.00  0.00    +0.000 HD
BRANCH  28  30
ATOM     30  C   UNL     1       6.677   4.627  17.529  0.00  0.00    +0.000 C 
ATOM     31  C   UNL     1       6.482   5.787  16.532  0.00  0.00    +0.000 C 
ATOM     32  C   UNL     1       6.649   7.181  17.138  0.00  0.00    +0.000 C 
ATOM     33  C   UNL     1       7.930   7.306  17.955  0.00  0.00    +0.000 C 
ATOM     34  C   UNL     1       7.999   6.226  19.024  0.00  0.00    +0.000 C 
ATOM     35  C   UNL     1       7.926   4.834  18.398  0.00  0.00    +0.000 C 
ENDBRANCH  28  30
ENDBRANCH  23  26
ENDBRANCH   1  20
TORSDOF 6
ENDMDL
MODEL 3
REMARK VINA RESULT:      -7.8      1.219      1.284
REMARK  Name = 
REMARK  8 active torsions:
REMARK  status: ('A' for Active; 'I' for Inactive)
REMARK    1  A    between atoms: C_1  and  C_2
REMARK    2  A    between atoms: C_4  and  C_5
REMARK    3  A    between atoms: N_7  and  C_8
REMARK    4  A    between atoms: C_12  and  C_13
REMARK    5  A    between atoms: C_13  and  C_14
REMARK    6  A    between atoms: C_13  and  N_15
REMARK    7  A    between atoms: C_18  and  C_19
REMARK    8  A    between atoms: N_21  and  C_22
REMARK                            x       y       z     vdW  Elec       q    Type
REMARK                         _______ _______ _______ _____ _____    ______ ____
ROOT
ATOM      1  C   UNL     1      -0.453  13.262  22.188  0.00  0.00    +0.000 C 
ATOM      2  C   UNL     1      -0.322  14.619  21.475  0.00  0.00    +0.000 C 
ENDROOT
BRANCH   1   7
ATOM      3  C   UNL     1       0.164   9.846  20.383  0.00  0.00    +0.000 A 
ATOM      4  C   UNL     1      -0.622  10.062  19.249  0.00  0.00    +0.000 A 
ATOM      5  C   UNL     1      -1.317  11.258  19.061  0.00  0.00    +0.000 A 
ATOM      6  C   UNL     1      -1.242  12.265  20.016  0.00  0.00    +0.000 A 
ATOM      7  C   UNL     1      -0.495  12.087  21.190  0.00  0.00    +0.000 A 
ATOM      8  C   UNL     1       0.201  10.855  21.366  0.00  0.00    +0.000 A 
BRANCH   3  11
ATOM      9  C   UNL     1       1.774   8.107  19.615  0.00  0.00    +0.000 C 
ATOM     10  O   UNL     1       2.175   8.737  18.634  0.00  0.00    +0.000 OA
ATOM     11  N   UNL     1       0.889   8.622  20.562  0.00  0.00    +0.000 N 
ATOM     12  H   UNL     1       0.871   8.205  21.484  0.00  0.00    +0.000 HD
BRANCH   9  16
ATOM     13  C   UNL     1       1.734   3.330  21.363  0.00  0.00    +0.000 C 
ATOM     14  C   UNL     1       2.308   4.453  20.556  0.00  0.00    +0.000 A 
ATOM     15  C   UNL     1       1.809   5.762  20.644  0.00  0.00    +0.000 A 
ATOM     16  C   UNL     1       2.323   6.725  19.772  0.00  0.00    +0.000 A 
ATOM     17  C   UNL     1       3.330   6.343  18.870  0.00  0.00    +0.000 A 
ATOM     18  C   UNL     1       3.775   5.038  18.868  0.00  0.00    +0.000 A 
ATOM     19  N   UNL     1       3.293   4.096  19.692  0.00  0.00    +0.000 NA
ENDBRANCH   9  16
ENDBRANCH   3  11
ENDBRANCH   1   7
BRANCH   1  20
ATOM     20  N   UNL     1      -1.496  13.174  23.260  0.00  0.00    +0.000 NA
ATOM     21  C   UNL     1      -1.986  14.502  23.679  0.00  0.00    +0.000 C 
ATOM     22  C   UNL     1      -3.178  14.501  24.652  0.00  0.00    +0.000 C 
ATOM     23  C   UNL     1      -4.287  13.548  24.197  0.00  0.00    +0.000 C 
ATOM     24  C   UNL     1      -3.652  12.173  24.016  0.00  0.00    +0.000 C 
ATOM     25  C   UNL     1      -2.559  12.217  22.947  0.00  0.00    +0.000 C 
BRANCH  23  26
ATOM     26  C   UNL     1      -4.983  14.033  22.919  0.00  0.00    +0.000 C 
ATOM     27  O   UNL     1      -5.038  15.216  22.597  0.00  0.00    +0.000 OA
ATOM     28  N   UNL     1      -5.571  13.031  22.171  0.00  0.00    +0.000 N 
ATOM     29  H   UNL     1      -5.759  12.152  22.637  0.00  0.00    +0.000 HD
BRANCH  28  30
ATOM     30  C   UNL     1      -6.302  13.324  20.940  0.00  0.00    +0.000 C 
ATOM     31  C   UNL     1      -5.410  13.224  19.686  0.00  0.00    +0.000 C 
ATOM     32  C   UNL     1      -5.172  11.799  19.186  0.00  0.00    +0.000 C 
ATOM     33  C   UNL     1      -6.467  11.006  19.062  0.00  0.00    +0.000 C 
ATOM     34  C   UNL     1      -7.236  11.012  20.375  0.00  0.00    +0.000 C 
ATOM     35  C   UNL     1      -7.551  12.440  20.816  0.00  0.00    +0.000 C 
ENDBRANCH  28  30
ENDBRANCH  23  26
ENDBRANCH   1  20
TORSDOF 6
ENDMDL
MODEL 4
REMARK VINA RESULT:      -7.8      2.772      4.725
REMARK  Name = 
REMARK  8 active torsions:
REMARK  status: ('A' for Active; 'I' for Inactive)
REMARK    1  A    between atoms: C_1  and  C_2
REMARK    2  A    between atoms: C_4  and  C_5
REMARK    3  A    between atoms: N_7  and  C_8
REMARK    4  A    between atoms: C_12  and  C_13
REMARK    5  A    between atoms: C_13  and  C_14
REMARK    6  A    between atoms: C_13  and  N_15
REMARK    7  A    between atoms: C_18  and  C_19
REMARK    8  A    between atoms: N_21  and  C_22
REMARK                            x       y       z     vdW  Elec       q    Type
REMARK                         _______ _______ _______ _____ _____    ______ ____
ROOT
ATOM      1  C   UNL     1      -0.573  11.132  18.267  0.00  0.00    +0.000 C 
ATOM      2  C   UNL     1      -2.052  11.034  18.680  0.00  0.00    +0.000 C 
ENDROOT
BRANCH   1   7
ATOM      3  C   UNL     1       2.019   8.284  18.956  0.00  0.00    +0.000 A 
ATOM      4  C   UNL     1       1.734   8.062  20.305  0.00  0.00    +0.000 A 
ATOM      5  C   UNL     1       0.743   8.787  20.970  0.00  0.00    +0.000 A 
ATOM      6  C   UNL     1       0.019   9.760  20.292  0.00  0.00    +0.000 A 
ATOM      7  C   UNL     1       0.289  10.048  18.946  0.00  0.00    +0.000 A 
ATOM      8  C   UNL     1       1.309   9.302  18.288  0.00  0.00    +0.000 A 
BRANCH   3  11
ATOM      9  C   UNL     1       3.152   6.140  18.388  0.00  0.00    +0.000 C 
ATOM     10  O   UNL     1       2.307   5.412  18.913  0.00  0.00    +0.000 OA
ATOM     11  N   UNL     1       3.026   7.525  18.274  0.00  0.00    +0.000 N 
ATOM     12  H   UNL     1       3.561   8.002  17.560  0.00  0.00    +0.000 HD
BRANCH   9  16
ATOM     13  C   UNL     1       5.988   4.191  14.641  0.00  0.00    +0.000 C 
ATOM     14  C   UNL     1       5.727   4.551  16.071  0.00  0.00    +0.000 A 
ATOM     15  C   UNL     1       4.478   5.024  16.503  0.00  0.00    +0.000 A 
ATOM     16  C   UNL     1       4.353   5.446  17.828  0.00  0.00    +0.000 A 
ATOM     17  C   UNL     1       5.475   5.354  18.669  0.00  0.00    +0.000 A 
ATOM     18  C   UNL     1       6.658   4.857  18.165  0.00  0.00    +0.000 A 
ATOM     19  N   UNL     1       6.802   4.450  16.895  0.00  0.00    +0.000 NA
ENDBRANCH   9  16
ENDBRANCH   3  11
ENDBRANCH   1   7
BRANCH   1  20
ATOM     20  N   UNL     1       0.038  12.499  18.312  0.00  0.00    +0.000 NA
ATOM     21  C   UNL     1      -0.886  13.512  18.857  0.00  0.00    +0.000 C 
ATOM     22  C   UNL     1      -0.286  14.908  19.099  0.00  0.00    +0.000 C 
ATOM     23  C   UNL     1       1.054  14.835  19.836  0.00  0.00    +0.000 C 
ATOM     24  C   UNL     1       1.963  13.916  19.025  0.00  0.00    +0.000 C 
ATOM     25  C   UNL     1       1.367  12.511  18.927  0.00  0.00    +0.000 C 
BRANCH  23  26
ATOM     26  C   UNL     1       0.896  14.355  21.285  0.00  0.00    +0.000 C 
ATOM     27  O   UNL     1       1.852  14.120  22.018  0.00  0.00    +0.000 OA
ATOM     28  N   UNL     1      -0.413  14.180  21.690  0.00  0.00    +0.000 N 
ATOM     29  H   UNL     1      -1.116  14.087  20.967  0.00  0.00    +0.000 HD
BRANCH  28  30
ATOM     30  C   UNL     1      -0.740  13.699  23.031  0.00  0.00    +0.000 C 
ATOM     31  C   UNL     1      -1.722  14.629  23.771  0.00  0.00    +0.000 C 
ATOM     32  C   UNL     1      -3.187  14.458  23.368  0.00  0.00    +0.000 C 
ATOM     33  C   UNL     1      -3.623  12.997  23.384  0.00  0.00    +0.000 C 
ATOM     34  C   UNL     1      -2.707  12.148  22.516  0.00  0.00    +0.000 C 
ATOM     35  C   UNL     1      -1.258  12.254  22.986  0.00  0.00    +0.000 C 
ENDBRANCH  28  30
ENDBRANCH  23  26
ENDBRANCH   1  20
TORSDOF 6
ENDMDL
MODEL 5
REMARK VINA RESULT:      -7.8      4.320     10.802
REMARK  Name = 
REMARK  8 active torsions:
REMARK  status: ('A' for Active; 'I' for Inactive)
REMARK    1  A    between atoms: C_1  and  C_2
REMARK    2  A    between atoms: C_4  and  C_5
REMARK    3  A    between atoms: N_7  and  C_8
REMARK    4  A    between atoms: C_12  and  C_13
REMARK    5  A    between atoms: C_13  and  C_14
REMARK    6  A    between atoms: C_13  and  N_15
REMARK    7  A    between atoms: C_18  and  C_19
REMARK    8  A    between atoms: N_21  and  C_22
REMARK                            x       y       z     vdW  Elec       q    Type
REMARK                         _______ _______ _______ _____ _____    ______ ____
ROOT
ATOM      1  C   UNL     1       1.964   7.538  18.440  0.00  0.00    +0.000 C 
ATOM      2  C   UNL     1       3.189   8.049  17.663  0.00  0.00    +0.000 C 
ENDROOT
BRANCH   1   7
ATOM      3  C   UNL     1       1.074  10.848  20.327  0.00  0.00    +0.000 A 
ATOM      4  C   UNL     1       0.622  10.292  21.526  0.00  0.00    +0.000 A 
ATOM      5  C   UNL     1       0.611   8.911  21.730  0.00  0.00    +0.000 A 
ATOM      6  C   UNL     1       1.048   8.054  20.727  0.00  0.00    +0.000 A 
ATOM      7  C   UNL     1       1.480   8.558  19.491  0.00  0.00    +0.000 A 
ATOM      8  C   UNL     1       1.477   9.971  19.300  0.00  0.00    +0.000 A 
BRANCH   3  11
ATOM      9  C   UNL     1       0.267  12.933  19.230  0.00  0.00    +0.000 C 
ATOM     10  O   UNL     1      -0.699  12.411  18.669  0.00  0.00    +0.000 OA
ATOM     11  N   UNL     1       1.099  12.268  20.129  0.00  0.00    +0.000 N 
ATOM     12  H   UNL     1       1.635  12.817  20.789  0.00  0.00    +0.000 HD
BRANCH   9  16
ATOM     13  C   UNL     1      -1.171  17.764  18.542  0.00  0.00    +0.000 C 
ATOM     14  C   UNL     1      -0.149  16.673  18.623  0.00  0.00    +0.000 A 
ATOM     15  C   UNL     1      -0.512  15.321  18.730  0.00  0.00    +0.000 A 
ATOM     16  C   UNL     1       0.500  14.377  18.918  0.00  0.00    +0.000 A 
ATOM     17  C   UNL     1       1.831  14.824  18.965  0.00  0.00    +0.000 A 
ATOM     18  C   UNL     1       2.098  16.170  18.830  0.00  0.00    +0.000 A 
ATOM     19  N   UNL     1       1.142  17.094  18.653  0.00  0.00    +0.000 NA
ENDBRANCH   9  16
ENDBRANCH   3  11
ENDBRANCH   1   7
BRANCH   1  20
ATOM     20  N   UNL     1       2.048   6.136  18.962  0.00  0.00    +0.000 NA
ATOM     21  C   UNL     1       1.671   5.134  17.945  0.00  0.00    +0.000 C 
ATOM     22  C   UNL     1       1.891   3.663  18.339  0.00  0.00    +0.000 C 
ATOM     23  C   UNL     1       3.277   3.435  18.948  0.00  0.00    +0.000 C 
ATOM     24  C   UNL     1       3.420   4.404  20.118  0.00  0.00    +0.000 C 
ATOM     25  C   UNL     1       3.314   5.852  19.639  0.00  0.00    +0.000 C 
BRANCH  23  26
ATOM     26  C   UNL     1       4.401   3.609  17.918  0.00  0.00    +0.000 C 
ATOM     27  O   UNL     1       4.374   3.087  16.807  0.00  0.00    +0.000 OA
ATOM     28  N   UNL     1       5.463   4.379  18.353  0.00  0.00    +0.000 N 
ATOM     29  H   UNL     1       5.565   4.508  19.352  0.00  0.00    +0.000 HD
BRANCH  28  30
ATOM     30  C   UNL     1       6.630   4.619  17.507  0.00  0.00    +0.000 C 
ATOM     31  C   UNL     1       6.412   5.779  16.514  0.00  0.00    +0.000 C 
ATOM     32  C   UNL     1       6.582   7.173  17.118  0.00  0.00    +0.000 C 
ATOM     33  C   UNL     1       7.876   7.304  17.914  0.00  0.00    +0.000 C 
ATOM     34  C   UNL     1       7.968   6.222  18.981  0.00  0.00    +0.000 C 
ATOM     35  C   UNL     1       7.892   4.831  18.355  0.00  0.00    +0.000 C 
ENDBRANCH  28  30
ENDBRANCH  23  26
ENDBRANCH   1  20
TORSDOF 6
ENDMDL
MODEL 6
REMARK VINA RESULT:      -7.6      4.239     10.967
REMARK  Name = 
REMARK  8 active torsions:
REMARK  status: ('A' for Active; 'I' for Inactive)
REMARK    1  A    between atoms: C_1  and  C_2
REMARK    2  A    between atoms: C_4  and  C_5
REMARK    3  A    between atoms: N_7  and  C_8
REMARK    4  A    between atoms: C_12  and  C_13
REMARK    5  A    between atoms: C_13  and  C_14
REMARK    6  A    between atoms: C_13  and  N_15
REMARK    7  A    between atoms: C_18  and  C_19
REMARK    8  A    between atoms: N_21  and  C_22
REMARK                            x       y       z     vdW  Elec       q    Type
REMARK                         _______ _______ _______ _____ _____    ______ ____
ROOT
ATOM      1  C   UNL     1       1.972   7.455  18.491  0.00  0.00    +0.000 C 
ATOM      2  C   UNL     1       3.203   8.011  17.754  0.00  0.00    +0.000 C 
ENDROOT
BRANCH   1   7
ATOM      3  C   UNL     1       0.635  10.630  20.345  0.00  0.00    +0.000 A 
ATOM      4  C   UNL     1       0.583  10.111  21.641  0.00  0.00    +0.000 A 
ATOM      5  C   UNL     1       0.969   8.798  21.916  0.00  0.00    +0.000 A 
ATOM      6  C   UNL     1       1.413   7.972  20.890  0.00  0.00    +0.000 A 
ATOM      7  C   UNL     1       1.451   8.432  19.565  0.00  0.00    +0.000 A 
ATOM      8  C   UNL     1       1.045   9.773  19.304  0.00  0.00    +0.000 A 
BRANCH   3  11
ATOM      9  C   UNL     1       0.975  13.092  20.517  0.00  0.00    +0.000 C 
ATOM     10  O   UNL     1       2.104  13.025  21.007  0.00  0.00    +0.000 OA
ATOM     11  N   UNL     1       0.252  11.984  20.072  0.00  0.00    +0.000 N 
ATOM     12  H   UNL     1      -0.484  12.129  19.393  0.00  0.00    +0.000 HD
BRANCH   9  16
ATOM     13  C   UNL     1      -0.283  17.719  22.215  0.00  0.00    +0.000 C 
ATOM     14  C   UNL     1      -0.170  16.671  21.152  0.00  0.00    +0.000 A 
ATOM     15  C   UNL     1       0.206  15.351  21.446  0.00  0.00    +0.000 A 
ATOM     16  C   UNL     1       0.401  14.466  20.383  0.00  0.00    +0.000 A 
ATOM     17  C   UNL     1       0.186  14.933  19.076  0.00  0.00    +0.000 A 
ATOM     18  C   UNL     1      -0.203  16.241  18.880  0.00  0.00    +0.000 A 
ATOM     19  N   UNL     1      -0.392  17.109  19.886  0.00  0.00    +0.000 NA
ENDBRANCH   9  16
ENDBRANCH   3  11
ENDBRANCH   1   7
BRANCH   1  20
ATOM     20  N   UNL     1       2.068   6.038  18.967  0.00  0.00    +0.000 NA
ATOM     21  C   UNL     1       1.699   5.065  17.920  0.00  0.00    +0.000 C 
ATOM     22  C   UNL     1       1.932   3.585  18.267  0.00  0.00    +0.000 C 
ATOM     23  C   UNL     1       3.321   3.350  18.867  0.00  0.00    +0.000 C 
ATOM     24  C   UNL     1       3.457   4.282  20.067  0.00  0.00    +0.000 C 
ATOM     25  C   UNL     1       3.338   5.744  19.634  0.00  0.00    +0.000 C 
BRANCH  23  26
ATOM     26  C   UNL     1       4.442   3.566  17.841  0.00  0.00    +0.000 C 
ATOM     27  O   UNL     1       4.425   3.068  16.719  0.00  0.00    +0.000 OA
ATOM     28  N   UNL     1       5.489   4.345  18.293  0.00  0.00    +0.000 N 
ATOM     29  H   UNL     1       5.590   4.454  19.295  0.00  0.00    +0.000 HD
BRANCH  28  30
ATOM     30  C   UNL     1       6.653   4.624  17.453  0.00  0.00    +0.000 C 
ATOM     31  C   UNL     1       6.423   5.817  16.504  0.00  0.00    +0.000 C 
ATOM     32  C   UNL     1       6.585   7.190  17.156  0.00  0.00    +0.000 C 
ATOM     33  C   UNL     1       7.880   7.302  17.953  0.00  0.00    +0.000 C 
ATOM     34  C   UNL     1       7.983   6.184  18.980  0.00  0.00    +0.000 C 
ATOM     35  C   UNL     1       7.915   4.816  18.306  0.00  0.00    +0.000 C 
ENDBRANCH  28  30
ENDBRANCH  23  26
ENDBRANCH   1  20
TORSDOF 6
ENDMDL
MODEL 7
REMARK VINA RESULT:      -7.6      3.521     10.945
REMARK  Name = 
REMARK  8 active torsions:
REMARK  status: ('A' for Active; 'I' for Inactive)
REMARK    1  A    between atoms: C_1  and  C_2
REMARK    2  A    between atoms: C_4  and  C_5
REMARK    3  A    between atoms: N_7  and  C_8
REMARK    4  A    between atoms: C_12  and  C_13
REMARK    5  A    between atoms: C_13  and  C_14
REMARK    6  A    between atoms: C_13  and  N_15
REMARK    7  A    between atoms: C_18  and  C_19
REMARK    8  A    between atoms: N_21  and  C_22
REMARK                            x       y       z     vdW  Elec       q    Type
REMARK                         _______ _______ _______ _____ _____    ______ ____
ROOT
ATOM      1  C   UNL     1       1.963   7.552  18.517  0.00  0.00    +0.000 C 
ATOM      2  C   UNL     1       3.194   8.127  17.796  0.00  0.00    +0.000 C 
ENDROOT
BRANCH   1   7
ATOM      3  C   UNL     1       0.790  10.663  20.579  0.00  0.00    +0.000 A 
ATOM      4  C   UNL     1       0.644  10.047  21.825  0.00  0.00    +0.000 A 
ATOM      5  C   UNL     1       0.919   8.690  22.003  0.00  0.00    +0.000 A 
ATOM      6  C   UNL     1       1.342   7.917  20.929  0.00  0.00    +0.000 A 
ATOM      7  C   UNL     1       1.472   8.477  19.649  0.00  0.00    +0.000 A 
ATOM      8  C   UNL     1       1.180   9.863  19.486  0.00  0.00    +0.000 A 
BRANCH   3  11
ATOM      9  C   UNL     1      -0.763  12.602  20.404  0.00  0.00    +0.000 C 
ATOM     10  O   UNL     1      -1.772  11.983  20.747  0.00  0.00    +0.000 OA
ATOM     11  N   UNL     1       0.522  12.061  20.405  0.00  0.00    +0.000 N 
ATOM     12  H   UNL     1       1.313  12.691  20.446  0.00  0.00    +0.000 HD
BRANCH   9  16
ATOM     13  C   UNL     1      -2.566  17.320  21.015  0.00  0.00    +0.000 C 
ATOM     14  C   UNL     1      -1.788  16.271  20.282  0.00  0.00    +0.000 A 
ATOM     15  C   UNL     1      -1.822  14.920  20.662  0.00  0.00    +0.000 A 
ATOM     16  C   UNL     1      -0.978  14.026  19.999  0.00  0.00    +0.000 A 
ATOM     17  C   UNL     1      -0.157  14.518  18.970  0.00  0.00    +0.000 A 
ATOM     18  C   UNL     1      -0.204  15.858  18.650  0.00  0.00    +0.000 A 
ATOM     19  N   UNL     1      -1.003  16.735  19.276  0.00  0.00    +0.000 NA
ENDBRANCH   9  16
ENDBRANCH   3  11
ENDBRANCH   1   7
BRANCH   1  20
ATOM     20  N   UNL     1       2.042   6.110  18.915  0.00  0.00    +0.000 NA
ATOM     21  C   UNL     1       1.673   5.200  17.813  0.00  0.00    +0.000 C 
ATOM     22  C   UNL     1       1.889   3.700  18.079  0.00  0.00    +0.000 C 
ATOM     23  C   UNL     1       3.270   3.418  18.678  0.00  0.00    +0.000 C 
ATOM     24  C   UNL     1       3.402   4.281  19.929  0.00  0.00    +0.000 C 
ATOM     25  C   UNL     1       3.302   5.766  19.577  0.00  0.00    +0.000 C 
BRANCH  23  26
ATOM     26  C   UNL     1       4.402   3.679  17.676  0.00  0.00    +0.000 C 
ATOM     27  O   UNL     1       4.364   3.296  16.510  0.00  0.00    +0.000 OA
ATOM     28  N   UNL     1       5.486   4.358  18.201  0.00  0.00    +0.000 N 
ATOM     29  H   UNL     1       5.588   4.363  19.208  0.00  0.00    +0.000 HD
BRANCH  28  30
ATOM     30  C   UNL     1       6.663   4.661  17.389  0.00  0.00    +0.000 C 
ATOM     31  C   UNL     1       6.475   5.922  16.523  0.00  0.00    +0.000 C 
ATOM     32  C   UNL     1       6.668   7.242  17.270  0.00  0.00    +0.000 C 
ATOM     33  C   UNL     1       7.959   7.264  18.081  0.00  0.00    +0.000 C 
ATOM     34  C   UNL     1       8.022   6.075  19.029  0.00  0.00    +0.000 C 
ATOM     35  C   UNL     1       7.923   4.759  18.262  0.00  0.00    +0.000 C 
ENDBRANCH  28  30
ENDBRANCH  23  26
ENDBRANCH   1  20
TORSDOF 6
ENDMDL
MODEL 8
REMARK VINA RESULT:      -7.6      2.425      4.340
REMARK  Name = 
REMARK  8 active torsions:
REMARK  status: ('A' for Active; 'I' for Inactive)
REMARK    1  A    between atoms: C_1  and  C_2
REMARK    2  A    between atoms: C_4  and  C_5
REMARK    3  A    between atoms: N_7  and  C_8
REMARK    4  A    between atoms: C_12  and  C_13
REMARK    5  A    between atoms: C_13  and  C_14
REMARK    6  A    between atoms: C_13  and  N_15
REMARK    7  A    between atoms: C_18  and  C_19
REMARK    8  A    between atoms: N_21  and  C_22
REMARK                            x       y       z     vdW  Elec       q    Type
REMARK                         _______ _______ _______ _____ _____    ______ ____
ROOT
ATOM      1  C   UNL     1      -1.927  11.679  18.942  0.00  0.00    +0.000 C 
ATOM      2  C   UNL     1      -2.882  10.661  18.296  0.00  0.00    +0.000 C 
ENDROOT
BRANCH   1   7
ATOM      3  C   UNL     1       1.413   9.867  18.014  0.00  0.00    +0.000 A 
ATOM      4  C   UNL     1       2.282  10.955  18.127  0.00  0.00    +0.000 A 
ATOM      5  C   UNL     1       1.821  12.220  18.495  0.00  0.00    +0.000 A 
ATOM      6  C   UNL     1       0.470  12.422  18.753  0.00  0.00    +0.000 A 
ATOM      7  C   UNL     1      -0.450  11.372  18.621  0.00  0.00    +0.000 A 
ATOM      8  C   UNL     1       0.040  10.090  18.237  0.00  0.00    +0.000 A 
BRANCH   3  11
ATOM      9  C   UNL     1       2.327   7.620  18.582  0.00  0.00    +0.000 C 
ATOM     10  O   UNL     1       2.153   7.721  19.798  0.00  0.00    +0.000 OA
ATOM     11  N   UNL     1       1.895   8.566  17.652  0.00  0.00    +0.000 N 
ATOM     12  H   UNL     1       1.763   8.275  16.692  0.00  0.00    +0.000 HD
BRANCH   9  16
ATOM     13  C   UNL     1       2.593   2.658  17.494  0.00  0.00    +0.000 C 
ATOM     14  C   UNL     1       3.159   4.042  17.568  0.00  0.00    +0.000 A 
ATOM     15  C   UNL     1       2.475   5.092  18.200  0.00  0.00    +0.000 A 
ATOM     16  C   UNL     1       3.018   6.377  18.123  0.00  0.00    +0.000 A 
ATOM     17  C   UNL     1       4.234   6.549  17.439  0.00  0.00    +0.000 A 
ATOM     18  C   UNL     1       4.848   5.456  16.865  0.00  0.00    +0.000 A 
ATOM     19  N   UNL     1       4.341   4.215  16.923  0.00  0.00    +0.000 NA
ENDBRANCH   9  16
ENDBRANCH   3  11
ENDBRANCH   1   7
BRANCH   1  20
ATOM     20  N   UNL     1      -2.172  11.994  20.386  0.00  0.00    +0.000 NA
ATOM     21  C   UNL     1      -1.025  11.635  21.244  0.00  0.00    +0.000 C 
ATOM     22  C   UNL     1      -1.121  12.078  22.714  0.00  0.00    +0.000 C 
ATOM     23  C   UNL     1      -1.556  13.540  22.843  0.00  0.00    +0.000 C 
ATOM     24  C   UNL     1      -2.868  13.689  22.079  0.00  0.00    +0.000 C 
ATOM     25  C   UNL     1      -2.675  13.352  20.599  0.00  0.00    +0.000 C 
BRANCH  23  26
ATOM     26  C   UNL     1      -0.483  14.514  22.339  0.00  0.00    +0.000 C 
ATOM     27  O   UNL     1       0.712  14.374  22.581  0.00  0.00    +0.000 OA
ATOM     28  N   UNL     1      -0.974  15.580  21.610  0.00  0.00    +0.000 N 
ATOM     29  H   UNL     1      -1.956  15.802  21.714  0.00  0.00    +0.000 HD
BRANCH  28  30
ATOM     30  C   UNL     1      -0.089  16.617  21.082  0.00  0.00    +0.000 C 
ATOM     31  C   UNL     1       0.708  16.142  19.850  0.00  0.00    +0.000 C 
ATOM     32  C   UNL     1      -0.076  16.163  18.538  0.00  0.00    +0.000 C 
ATOM     33  C   UNL     1      -0.787  17.492  18.311  0.00  0.00    +0.000 C 
ATOM     34  C   UNL     1      -1.678  17.839  19.495  0.00  0.00    +0.000 C 
ATOM     35  C   UNL     1      -0.867  17.907  20.787  0.00  0.00    +0.000 C 
ENDBRANCH  28  30
ENDBRANCH  23  26
ENDBRANCH   1  20
TORSDOF 6
ENDMDL
MODEL 9
REMARK VINA RESULT:      -7.5      2.736      4.546
REMARK  Name = 
REMARK  8 active torsions:
REMARK  status: ('A' for Active; 'I' for Inactive)
REMARK    1  A    between atoms: C_1  and  C_2
REMARK    2  A    between atoms: C_4  and  C_5
REMARK    3  A    between atoms: N_7  and  C_8
REMARK    4  A    between atoms: C_12  and  C_13
REMARK    5  A    between atoms: C_13  and  C_14
REMARK    6  A    between atoms: C_13  and  N_15
REMARK    7  A    between atoms: C_18  and  C_19
REMARK    8  A    between atoms: N_21  and  C_22
REMARK                            x       y       z     vdW  Elec       q    Type
REMARK                         _______ _______ _______ _____ _____    ______ ____
ROOT
ATOM      1  C   UNL     1      -0.399  11.492  18.852  0.00  0.00    +0.000 C 
ATOM      2  C   UNL     1      -1.910  11.674  19.080  0.00  0.00    +0.000 C 
ENDROOT
BRANCH   1   7
ATOM      3  C   UNL     1       1.471   8.373  20.293  0.00  0.00    +0.000 A 
ATOM      4  C   UNL     1       1.183   8.561  21.647  0.00  0.00    +0.000 A 
ATOM      5  C   UNL     1       0.412   9.639  22.084  0.00  0.00    +0.000 A 
ATOM      6  C   UNL     1      -0.084  10.559  21.168  0.00  0.00    +0.000 A 
ATOM      7  C   UNL     1       0.205  10.436  19.801  0.00  0.00    +0.000 A 
ATOM      8  C   UNL     1       1.000   9.332  19.376  0.00  0.00    +0.000 A 
BRANCH   3  11
ATOM      9  C   UNL     1       2.775   7.147  18.560  0.00  0.00    +0.000 C 
ATOM     10  O   UNL     1       2.799   8.073  17.747  0.00  0.00    +0.000 OA
ATOM     11  N   UNL     1       2.250   7.254  19.848  0.00  0.00    +0.000 N 
ATOM     12  H   UNL     1       2.560   6.596  20.553  0.00  0.00    +0.000 HD
BRANCH   9  16
ATOM     13  C   UNL     1       2.905   2.099  17.940  0.00  0.00    +0.000 C 
ATOM     14  C   UNL     1       3.453   3.482  17.765  0.00  0.00    +0.000 A 
ATOM     15  C   UNL     1       2.887   4.592  18.410  0.00  0.00    +0.000 A 
ATOM     16  C   UNL     1       3.385   5.861  18.102  0.00  0.00    +0.000 A 
ATOM     17  C   UNL     1       4.442   5.959  17.182  0.00  0.00    +0.000 A 
ATOM     18  C   UNL     1       4.951   4.812  16.611  0.00  0.00    +0.000 A 
ATOM     19  N   UNL     1       4.486   3.585  16.889  0.00  0.00    +0.000 NA
ENDBRANCH   9  16
ENDBRANCH   3  11
ENDBRANCH   1   7
BRANCH   1  20
ATOM     20  N   UNL     1       0.413  12.747  18.759  0.00  0.00    +0.000 NA
ATOM     21  C   UNL     1      -0.388  13.958  19.026  0.00  0.00    +0.000 C 
ATOM     22  C   UNL     1       0.398  15.277  19.120  0.00  0.00    +0.000 C 
ATOM     23  C   UNL     1       1.634  15.143  20.015  0.00  0.00    +0.000 C 
ATOM     24  C   UNL     1       2.460  13.982  19.471  0.00  0.00    +0.000 C 
ATOM     25  C   UNL     1       1.662  12.678  19.520  0.00  0.00    +0.000 C 
BRANCH  23  26
ATOM     26  C   UNL     1       1.264  14.945  21.491  0.00  0.00    +0.000 C 
ATOM     27  O   UNL     1       2.095  14.700  22.360  0.00  0.00    +0.000 OA
ATOM     28  N   UNL     1      -0.089  15.037  21.759  0.00  0.00    +0.000 N 
ATOM     29  H   UNL     1      -0.726  14.926  20.981  0.00  0.00    +0.000 HD
BRANCH  28  30
ATOM     30  C   UNL     1      -0.614  14.843  23.109  0.00  0.00    +0.000 C 
ATOM     31  C   UNL     1      -1.604  15.951  23.523  0.00  0.00    +0.000 C 
ATOM     32  C   UNL     1      -3.017  15.782  22.965  0.00  0.00    +0.000 C 
ATOM     33  C   UNL     1      -3.565  14.378  23.192  0.00  0.00    +0.000 C 
ATOM     34  C   UNL     1      -2.618  13.329  22.629  0.00  0.00    +0.000 C 
ATOM     35  C   UNL     1      -1.234  13.446  23.264  0.00  0.00    +0.000 C 
ENDBRANCH  28  30
ENDBRANCH  23  26
ENDBRANCH   1  20
TORSDOF 6
ENDMDL
