MODEL 1
REMARK VINA RESULT:      -8.5      0.000      0.000
REMARK  Name = 
REMARK  6 active torsions:
REMARK  status: ('A' for Active; 'I' for Inactive)
REMARK    1  A    between atoms: C_1  and  N_2
REMARK    2  A    between atoms: N_2  and  C_3
REMARK    3  A    between atoms: C_4  and  C_6
REMARK    4  A    between atoms: N_11  and  C_12
REMARK    5  A    between atoms: C_19  and  C_20
REMARK    6  A    between atoms: C_20  and  C_22
REMARK                            x       y       z     vdW  Elec       q    Type
REMARK                         _______ _______ _______ _____ _____    ______ ____
ROOT
ATOM      1  C   UNL     1      -2.151  13.235  22.285  0.00  0.00    +0.000 A 
ATOM      2  C   UNL     1      -2.410  12.833  20.983  0.00  0.00    +0.000 A 
ATOM      3  C   UNL     1      -1.694  11.769  20.452  0.00  0.00    +0.000 A 
ATOM      4  N   UNL     1      -1.870  11.393  19.176  0.00  0.00    +0.000 NA
ATOM      5  C   UNL     1      -1.063  10.420  18.658  0.00  0.00    +0.000 A 
ATOM      6  N   UNL     1      -1.288  10.090  17.294  0.00  0.00    +0.000 N 
ATOM      7  C   UNL     1      -0.031   9.811  19.451  0.00  0.00    +0.000 A 
ATOM      8  N   UNL     1       0.958   8.896  19.055  0.00  0.00    +0.000 N 
ATOM      9  C   UNL     1       1.723   8.319  20.177  0.00  0.00    +0.000 C 
ATOM     10  C   UNL     1       2.973   7.508  19.854  0.00  0.00    +0.000 C 
ATOM     11  C   UNL     1       3.103   6.958  18.447  0.00  0.00    +0.000 C 
ATOM     12  C   UNL     1       2.673   8.038  17.461  0.00  0.00    +0.000 C 
ATOM     13  C   UNL     1       1.266   8.579  17.672  0.00  0.00    +0.000 C 
ATOM     14  N   UNL     1       0.031  10.145  20.766  0.00  0.00    +0.000 NA
ATOM     15  C   UNL     1      -0.756  11.114  21.247  0.00  0.00    +0.000 A 
ATOM     16  C   UNL     1      -0.631  11.534  22.554  0.00  0.00    +0.000 A 
ATOM     17  N   UNL     1      -1.295  12.575  23.100  0.00  0.00    +0.000 NA
ATOM     18  H   UNL     1      -1.057   9.110  17.187  0.00  0.00    +0.000 HD
ENDROOT
BRANCH   1  22
ATOM     19  C   UNL     1      -4.384  15.659  24.218  0.00  0.00    +0.000 C 
ATOM     20  N   UNL     1      -3.882  14.411  23.687  0.00  0.00    +0.000 N 
ATOM     21  C   UNL     1      -4.372  13.172  24.270  0.00  0.00    +0.000 C 
ATOM     22  C   UNL     1      -2.791  14.486  22.805  0.00  0.00    +0.000 C 
ATOM     23  O   UNL     1      -2.303  15.568  22.467  0.00  0.00    +0.000 OA
ENDBRANCH   1  22
BRANCH   6  24
ATOM     24  C   UNL     1      -2.629  10.372  16.722  0.00  0.00    +0.000 C 
ATOM     25  C   UNL     1      -2.907  11.226  15.516  0.00  0.00    +0.000 C 
ATOM     26  C   UNL     1      -2.989   9.733  15.405  0.00  0.00    +0.000 C 
ENDBRANCH   6  24
BRANCH  11  27
ATOM     27  C   UNL     1       2.591   5.521  18.190  0.00  0.00    +0.000 C 
ATOM     28  F   UNL     1       1.444   5.663  17.444  0.00  0.00    +0.000 F 
BRANCH  27  29
ATOM     29  C   UNL     1       2.370   4.542  19.317  0.00  0.00    +0.000 A 
ATOM     30  C   UNL     1       1.084   4.313  19.836  0.00  0.00    +0.000 A 
ATOM     31  C   UNL     1       0.874   3.335  20.813  0.00  0.00    +0.000 A 
ATOM     32  C   UNL     1       1.943   2.568  21.263  0.00  0.00    +0.000 A 
ATOM     33  F   UNL     1       1.737   1.632  22.198  0.00  0.00    +0.000 F 
ATOM     34  C   UNL     1       3.214   2.745  20.737  0.00  0.00    +0.000 A 
ATOM     35  C   UNL     1       3.414   3.726  19.770  0.00  0.00    +0.000 A 
ATOM     36  F   UNL     1       4.632   3.846  19.226  0.00  0.00    +0.000 F 
ENDBRANCH  27  29
ENDBRANCH  11  27
TORSDOF 4
ENDMDL
MODEL 2
REMARK VINA RESULT:      -8.4      0.954      1.078
REMARK  Name = 
REMARK  6 active torsions:
REMARK  status: ('A' for Active; 'I' for Inactive)
REMARK    1  A    between atoms: C_1  and  N_2
REMARK    2  A    between atoms: N_2  and  C_3
REMARK    3  A    between atoms: C_4  and  C_6
REMARK    4  A    between atoms: N_11  and  C_12
REMARK    5  A    between atoms: C_19  and  C_20
REMARK    6  A    between atoms: C_20  and  C_22
REMARK                            x       y       z     vdW  Elec       q    Type
REMARK                         _______ _______ _______ _____ _____    ______ ____
ROOT
ATOM      1  C   UNL     1      -2.397  13.469  22.435  0.00  0.00    +0.000 A 
ATOM      2  C   UNL     1      -2.586  13.146  21.099  0.00  0.00    +0.000 A 
ATOM      3  C   UNL     1      -1.873  12.089  20.555  0.00  0.00    +0.000 A 
ATOM      4  N   UNL     1      -1.980  11.788  19.251  0.00  0.00    +0.000 NA
ATOM      5  C   UNL     1      -1.174  10.816  18.730  0.00  0.00    +0.000 A 
ATOM      6  N   UNL     1      -1.323  10.567  17.339  0.00  0.00    +0.000 N 
ATOM      7  C   UNL     1      -0.213  10.130  19.549  0.00  0.00    +0.000 A 
ATOM      8  N   UNL     1       0.770   9.203  19.164  0.00  0.00    +0.000 N 
ATOM      9  C   UNL     1       1.445   8.542  20.297  0.00  0.00    +0.000 C 
ATOM     10  C   UNL     1       2.687   7.707  20.006  0.00  0.00    +0.000 C 
ATOM     11  C   UNL     1       2.887   7.227  18.581  0.00  0.00    +0.000 C 
ATOM     12  C   UNL     1       2.553   8.373  17.632  0.00  0.00    +0.000 C 
ATOM     13  C   UNL     1       1.153   8.950  17.787  0.00  0.00    +0.000 C 
ATOM     14  N   UNL     1      -0.222  10.391  20.882  0.00  0.00    +0.000 NA
ATOM     15  C   UNL     1      -1.007  11.360  21.368  0.00  0.00    +0.000 A 
ATOM     16  C   UNL     1      -0.950  11.706  22.701  0.00  0.00    +0.000 A 
ATOM     17  N   UNL     1      -1.614  12.739  23.262  0.00  0.00    +0.000 NA
ATOM     18  H   UNL     1      -1.117   9.586  17.192  0.00  0.00    +0.000 HD
ENDROOT
BRANCH   1  22
ATOM     19  C   UNL     1      -4.816  15.885  24.141  0.00  0.00    +0.000 C 
ATOM     20  N   UNL     1      -4.313  14.665  23.549  0.00  0.00    +0.000 N 
ATOM     21  C   UNL     1      -5.053  13.436  23.782  0.00  0.00    +0.000 C 
ATOM     22  C   UNL     1      -3.028  14.713  22.983  0.00  0.00    +0.000 C 
ATOM     23  O   UNL     1      -2.369  15.756  22.957  0.00  0.00    +0.000 OA
ENDBRANCH   1  22
BRANCH   6  24
ATOM     24  C   UNL     1      -2.617  10.925  16.704  0.00  0.00    +0.000 C 
ATOM     25  C   UNL     1      -2.898  10.928  15.227  0.00  0.00    +0.000 C 
ATOM     26  C   UNL     1      -3.433   9.820  16.083  0.00  0.00    +0.000 C 
ENDBRANCH   6  24
BRANCH  11  27
ATOM     27  C   UNL     1       2.348   5.825  18.215  0.00  0.00    +0.000 C 
ATOM     28  F   UNL     1       1.201   6.046  17.487  0.00  0.00    +0.000 F 
BRANCH  27  29
ATOM     29  C   UNL     1       2.112   4.765  19.263  0.00  0.00    +0.000 A 
ATOM     30  C   UNL     1       2.570   4.935  20.581  0.00  0.00    +0.000 A 
ATOM     31  C   UNL     1       2.265   3.993  21.568  0.00  0.00    +0.000 A 
ATOM     32  C   UNL     1       1.484   2.888  21.249  0.00  0.00    +0.000 A 
ATOM     33  F   UNL     1       1.192   1.989  22.197  0.00  0.00    +0.000 F 
ATOM     34  C   UNL     1       0.983   2.719  19.967  0.00  0.00    +0.000 A 
ATOM     35  C   UNL     1       1.299   3.658  18.990  0.00  0.00    +0.000 A 
ATOM     36  F   UNL     1       0.760   3.517  17.771  0.00  0.00    +0.000 F 
ENDBRANCH  27  29
ENDBRANCH  11  27
TORSDOF 4
ENDMDL
MODEL 3
REMARK VINA RESULT:      -8.2      0.863      1.124
REMARK  Name = 
REMARK  6 active torsions:
REMARK  status: ('A' for Active; 'I' for Inactive)
REMARK    1  A    between atoms: C_1  and  N_2
REMARK    2  A    between atoms: N_2  and  C_3
REMARK    3  A    between atoms: C_4  and  C_6
REMARK    4  A    between atoms: N_11  and  C_12
REMARK    5  A    between atoms: C_19  and  C_20
REMARK    6  A    between atoms: C_20  and  C_22
REMARK                            x       y       z     vdW  Elec       q    Type
REMARK                         _______ _______ _______ _____ _____    ______ ____
ROOT
ATOM      1  C   UNL     1      -2.421  13.513  22.191  0.00  0.00    +0.000 A 
ATOM      2  C   UNL     1      -2.602  13.139  20.867  0.00  0.00    +0.000 A 
ATOM      3  C   UNL     1      -1.875  12.069  20.365  0.00  0.00    +0.000 A 
ATOM      4  N   UNL     1      -1.974  11.719  19.073  0.00  0.00    +0.000 NA
ATOM      5  C   UNL     1      -1.155  10.738  18.591  0.00  0.00    +0.000 A 
ATOM      6  N   UNL     1      -1.296  10.436  17.209  0.00  0.00    +0.000 N 
ATOM      7  C   UNL     1      -0.191  10.093  19.438  0.00  0.00    +0.000 A 
ATOM      8  N   UNL     1       0.803   9.163  19.092  0.00  0.00    +0.000 N 
ATOM      9  C   UNL     1       1.480   8.550  20.250  0.00  0.00    +0.000 C 
ATOM     10  C   UNL     1       2.732   7.718  19.996  0.00  0.00    +0.000 C 
ATOM     11  C   UNL     1       2.943   7.188  18.590  0.00  0.00    +0.000 C 
ATOM     12  C   UNL     1       2.601   8.295  17.598  0.00  0.00    +0.000 C 
ATOM     13  C   UNL     1       1.195   8.863  17.726  0.00  0.00    +0.000 C 
ATOM     14  N   UNL     1      -0.209  10.402  20.761  0.00  0.00    +0.000 NA
ATOM     15  C   UNL     1      -1.005  11.380  21.208  0.00  0.00    +0.000 A 
ATOM     16  C   UNL     1      -0.958  11.775  22.527  0.00  0.00    +0.000 A 
ATOM     17  N   UNL     1      -1.635  12.821  23.048  0.00  0.00    +0.000 NA
ATOM     18  H   UNL     1      -1.080   9.453  17.100  0.00  0.00    +0.000 HD
ENDROOT
BRANCH   1  22
ATOM     19  C   UNL     1      -3.066  17.161  23.124  0.00  0.00    +0.000 C 
ATOM     20  N   UNL     1      -2.347  15.975  22.717  0.00  0.00    +0.000 N 
ATOM     21  C   UNL     1      -1.019  16.141  22.148  0.00  0.00    +0.000 C 
ATOM     22  C   UNL     1      -3.067  14.769  22.691  0.00  0.00    +0.000 C 
ATOM     23  O   UNL     1      -4.251  14.713  23.034  0.00  0.00    +0.000 OA
ENDBRANCH   1  22
BRANCH   6  24
ATOM     24  C   UNL     1      -2.590  10.757  16.557  0.00  0.00    +0.000 C 
ATOM     25  C   UNL     1      -2.850  10.756  15.076  0.00  0.00    +0.000 C 
ATOM     26  C   UNL     1      -3.365   9.630  15.921  0.00  0.00    +0.000 C 
ENDBRANCH   6  24
BRANCH  11  27
ATOM     27  C   UNL     1       2.419   5.768  18.274  0.00  0.00    +0.000 C 
ATOM     28  F   UNL     1       1.214   5.950  17.635  0.00  0.00    +0.000 F 
BRANCH  27  29
ATOM     29  C   UNL     1       2.297   4.709  19.342  0.00  0.00    +0.000 A 
ATOM     30  C   UNL     1       1.053   4.408  19.924  0.00  0.00    +0.000 A 
ATOM     31  C   UNL     1       0.932   3.361  20.843  0.00  0.00    +0.000 A 
ATOM     32  C   UNL     1       2.046   2.597  21.169  0.00  0.00    +0.000 A 
ATOM     33  F   UNL     1       1.926   1.594  22.048  0.00  0.00    +0.000 F 
ATOM     34  C   UNL     1       3.275   2.845  20.576  0.00  0.00    +0.000 A 
ATOM     35  C   UNL     1       3.387   3.894  19.669  0.00  0.00    +0.000 A 
ATOM     36  F   UNL     1       4.564   4.086  19.058  0.00  0.00    +0.000 F 
ENDBRANCH  27  29
ENDBRANCH  11  27
TORSDOF 4
ENDMDL
MODEL 4
REMARK VINA RESULT:      -8.1      1.414      1.750
REMARK  Name = 
REMARK  6 active torsions:
REMARK  status: ('A' for Active; 'I' for Inactive)
REMARK    1  A    between atoms: C_1  and  N_2
REMARK    2  A    between atoms: N_2  and  C_3
REMARK    3  A    between atoms: C_4  and  C_6
REMARK    4  A    between atoms: N_11  and  C_12
REMARK    5  A    between atoms: C_19  and  C_20
REMARK    6  A    between atoms: C_20  and  C_22
REMARK                            x       y       z     vdW  Elec       q    Type
REMARK                         _______ _______ _______ _____ _____    ______ ____
ROOT
ATOM      1  C   UNL     1      -2.214  12.958  22.898  0.00  0.00    +0.000 A 
ATOM      2  C   UNL     1      -2.352  12.855  21.521  0.00  0.00    +0.000 A 
ATOM      3  C   UNL     1      -1.670  11.851  20.850  0.00  0.00    +0.000 A 
ATOM      4  N   UNL     1      -1.727  11.761  19.512  0.00  0.00    +0.000 NA
ATOM      5  C   UNL     1      -0.948  10.832  18.880  0.00  0.00    +0.000 A 
ATOM      6  N   UNL     1      -1.040  10.809  17.462  0.00  0.00    +0.000 N 
ATOM      7  C   UNL     1      -0.070   9.971  19.622  0.00  0.00    +0.000 A 
ATOM      8  N   UNL     1       0.879   9.055  19.140  0.00  0.00    +0.000 N 
ATOM      9  C   UNL     1       1.458   8.187  20.183  0.00  0.00    +0.000 C 
ATOM     10  C   UNL     1       2.666   7.331  19.818  0.00  0.00    +0.000 C 
ATOM     11  C   UNL     1       2.913   7.064  18.346  0.00  0.00    +0.000 C 
ATOM     12  C   UNL     1       2.691   8.360  17.574  0.00  0.00    +0.000 C 
ATOM     13  C   UNL     1       1.318   8.992  17.757  0.00  0.00    +0.000 C 
ATOM     14  N   UNL     1      -0.134  10.025  20.978  0.00  0.00    +0.000 NA
ATOM     15  C   UNL     1      -0.888  10.955  21.575  0.00  0.00    +0.000 A 
ATOM     16  C   UNL     1      -0.881  11.088  22.947  0.00  0.00    +0.000 A 
ATOM     17  N   UNL     1      -1.516  12.062  23.634  0.00  0.00    +0.000 NA
ATOM     18  H   UNL     1      -0.880   9.851  17.173  0.00  0.00    +0.000 HD
ENDROOT
BRANCH   1  22
ATOM     19  C   UNL     1      -2.665  16.391  24.513  0.00  0.00    +0.000 C 
ATOM     20  N   UNL     1      -2.004  15.253  23.914  0.00  0.00    +0.000 N 
ATOM     21  C   UNL     1      -0.632  15.419  23.462  0.00  0.00    +0.000 C 
ATOM     22  C   UNL     1      -2.804  14.139  23.606  0.00  0.00    +0.000 C 
ATOM     23  O   UNL     1      -4.009  14.115  23.867  0.00  0.00    +0.000 OA
ENDBRANCH   1  22
BRANCH   6  24
ATOM     24  C   UNL     1      -2.277  11.339  16.836  0.00  0.00    +0.000 C 
ATOM     25  C   UNL     1      -2.831  10.927  15.500  0.00  0.00    +0.000 C 
ATOM     26  C   UNL     1      -3.479  10.432  16.758  0.00  0.00    +0.000 C 
ENDBRANCH   6  24
BRANCH  11  27
ATOM     27  C   UNL     1       2.317   5.771  17.743  0.00  0.00    +0.000 C 
ATOM     28  F   UNL     1       0.960   5.848  17.964  0.00  0.00    +0.000 F 
BRANCH  27  29
ATOM     29  C   UNL     1       2.836   4.405  18.120  0.00  0.00    +0.000 A 
ATOM     30  C   UNL     1       2.221   3.650  19.133  0.00  0.00    +0.000 A 
ATOM     31  C   UNL     1       2.648   2.348  19.410  0.00  0.00    +0.000 A 
ATOM     32  C   UNL     1       3.678   1.786  18.664  0.00  0.00    +0.000 A 
ATOM     33  F   UNL     1       4.083   0.538  18.932  0.00  0.00    +0.000 F 
ATOM     34  C   UNL     1       4.272   2.493  17.630  0.00  0.00    +0.000 A 
ATOM     35  C   UNL     1       3.845   3.791  17.367  0.00  0.00    +0.000 A 
ATOM     36  F   UNL     1       4.385   4.442  16.328  0.00  0.00    +0.000 F 
ENDBRANCH  27  29
ENDBRANCH  11  27
TORSDOF 4
ENDMDL
MODEL 5
REMARK VINA RESULT:      -8.0      1.708      2.026
REMARK  Name = 
REMARK  6 active torsions:
REMARK  status: ('A' for Active; 'I' for Inactive)
REMARK    1  A    between atoms: C_1  and  N_2
REMARK    2  A    between atoms: N_2  and  C_3
REMARK    3  A    between atoms: C_4  and  C_6
REMARK    4  A    between atoms: N_11  and  C_12
REMARK    5  A    between atoms: C_19  and  C_20
REMARK    6  A    between atoms: C_20  and  C_22
REMARK                            x       y       z     vdW  Elec       q    Type
REMARK                         _______ _______ _______ _____ _____    ______ ____
ROOT
ATOM      1  C   UNL     1      -1.662  14.924  21.714  0.00  0.00    +0.000 A 
ATOM      2  C   UNL     1      -1.906  14.346  20.476  0.00  0.00    +0.000 A 
ATOM      3  C   UNL     1      -1.430  13.068  20.225  0.00  0.00    +0.000 A 
ATOM      4  N   UNL     1      -1.590  12.502  19.018  0.00  0.00    +0.000 NA
ATOM      5  C   UNL     1      -1.005  11.291  18.776  0.00  0.00    +0.000 A 
ATOM      6  N   UNL     1      -1.194  10.763  17.470  0.00  0.00    +0.000 N 
ATOM      7  C   UNL     1      -0.219  10.631  19.780  0.00  0.00    +0.000 A 
ATOM      8  N   UNL     1       0.547   9.459  19.670  0.00  0.00    +0.000 N 
ATOM      9  C   UNL     1       1.057   8.953  20.958  0.00  0.00    +0.000 C 
ATOM     10  C   UNL     1       2.094   7.836  20.933  0.00  0.00    +0.000 C 
ATOM     11  C   UNL     1       2.198   7.009  19.666  0.00  0.00    +0.000 C 
ATOM     12  C   UNL     1       2.123   7.947  18.466  0.00  0.00    +0.000 C 
ATOM     13  C   UNL     1       0.877   8.820  18.409  0.00  0.00    +0.000 C 
ATOM     14  N   UNL     1      -0.182  11.190  21.018  0.00  0.00    +0.000 NA
ATOM     15  C   UNL     1      -0.746  12.385  21.229  0.00  0.00    +0.000 A 
ATOM     16  C   UNL     1      -0.626  13.011  22.451  0.00  0.00    +0.000 A 
ATOM     17  N   UNL     1      -1.059  14.260  22.727  0.00  0.00    +0.000 NA
ATOM     18  H   UNL     1      -1.201   9.754  17.559  0.00  0.00    +0.000 HD
ENDROOT
BRANCH   1  22
ATOM     19  C   UNL     1      -3.526  18.114  22.688  0.00  0.00    +0.000 C 
ATOM     20  N   UNL     1      -3.290  16.714  22.414  0.00  0.00    +0.000 N 
ATOM     21  C   UNL     1      -4.281  15.751  22.868  0.00  0.00    +0.000 C 
ATOM     22  C   UNL     1      -2.017  16.363  21.932  0.00  0.00    +0.000 C 
ATOM     23  O   UNL     1      -1.149  17.212  21.716  0.00  0.00    +0.000 OA
ENDBRANCH   1  22
BRANCH   6  24
ATOM     24  C   UNL     1      -2.377  11.222  16.698  0.00  0.00    +0.000 C 
ATOM     25  C   UNL     1      -2.791  10.717  15.344  0.00  0.00    +0.000 C 
ATOM     26  C   UNL     1      -3.547  10.280  16.564  0.00  0.00    +0.000 C 
ENDBRANCH   6  24
BRANCH  11  27
ATOM     27  C   UNL     1       1.375   5.702  19.595  0.00  0.00    +0.000 C 
ATOM     28  F   UNL     1       0.760   5.582  20.821  0.00  0.00    +0.000 F 
BRANCH  27  29
ATOM     29  C   UNL     1       1.999   4.390  19.187  0.00  0.00    +0.000 A 
ATOM     30  C   UNL     1       1.994   3.972  17.846  0.00  0.00    +0.000 A 
ATOM     31  C   UNL     1       2.658   2.802  17.462  0.00  0.00    +0.000 A 
ATOM     32  C   UNL     1       3.346   2.056  18.412  0.00  0.00    +0.000 A 
ATOM     33  F   UNL     1       3.982   0.938  18.040  0.00  0.00    +0.000 F 
ATOM     34  C   UNL     1       3.403   2.470  19.734  0.00  0.00    +0.000 A 
ATOM     35  C   UNL     1       2.733   3.631  20.107  0.00  0.00    +0.000 A 
ATOM     36  F   UNL     1       2.845   4.053  21.374  0.00  0.00    +0.000 F 
ENDBRANCH  27  29
ENDBRANCH  11  27
TORSDOF 4
ENDMDL
MODEL 6
REMARK VINA RESULT:      -8.0      2.039      2.739
REMARK  Name = 
REMARK  6 active torsions:
REMARK  status: ('A' for Active; 'I' for Inactive)
REMARK    1  A    between atoms: C_1  and  N_2
REMARK    2  A    between atoms: N_2  and  C_3
REMARK    3  A    between atoms: C_4  and  C_6
REMARK    4  A    between atoms: N_11  and  C_12
REMARK    5  A    between atoms: C_19  and  C_20
REMARK    6  A    between atoms: C_20  and  C_22
REMARK                            x       y       z     vdW  Elec       q    Type
REMARK                         _______ _______ _______ _____ _____    ______ ____
ROOT
ATOM      1  C   UNL     1      -3.487  13.672  22.432  0.00  0.00    +0.000 A 
ATOM      2  C   UNL     1      -3.519  13.373  21.077  0.00  0.00    +0.000 A 
ATOM      3  C   UNL     1      -2.678  12.386  20.586  0.00  0.00    +0.000 A 
ATOM      4  N   UNL     1      -2.634  12.114  19.272  0.00  0.00    +0.000 NA
ATOM      5  C   UNL     1      -1.710  11.218  18.815  0.00  0.00    +0.000 A 
ATOM      6  N   UNL     1      -1.702  10.998  17.410  0.00  0.00    +0.000 N 
ATOM      7  C   UNL     1      -0.786  10.581  19.712  0.00  0.00    +0.000 A 
ATOM      8  N   UNL     1       0.296   9.739  19.408  0.00  0.00    +0.000 N 
ATOM      9  C   UNL     1       0.904   9.096  20.589  0.00  0.00    +0.000 C 
ATOM     10  C   UNL     1       2.227   8.361  20.407  0.00  0.00    +0.000 C 
ATOM     11  C   UNL     1       2.602   7.937  19.000  0.00  0.00    +0.000 C 
ATOM     12  C   UNL     1       2.279   9.082  18.046  0.00  0.00    +0.000 C 
ATOM     13  C   UNL     1       0.832   9.552  18.072  0.00  0.00    +0.000 C 
ATOM     14  N   UNL     1      -0.946  10.803  21.042  0.00  0.00    +0.000 NA
ATOM     15  C   UNL     1      -1.845  11.699  21.467  0.00  0.00    +0.000 A 
ATOM     16  C   UNL     1      -1.946  12.010  22.805  0.00  0.00    +0.000 A 
ATOM     17  N   UNL     1      -2.738  12.976  23.319  0.00  0.00    +0.000 NA
ATOM     18  H   UNL     1      -1.410  10.039  17.265  0.00  0.00    +0.000 HD
ENDROOT
BRANCH   1  22
ATOM     19  C   UNL     1      -4.456  17.202  23.525  0.00  0.00    +0.000 C 
ATOM     20  N   UNL     1      -3.624  16.090  23.122  0.00  0.00    +0.000 N 
ATOM     21  C   UNL     1      -2.258  16.371  22.712  0.00  0.00    +0.000 C 
ATOM     22  C   UNL     1      -4.260  14.851  22.940  0.00  0.00    +0.000 C 
ATOM     23  O   UNL     1      -5.467  14.704  23.148  0.00  0.00    +0.000 OA
ENDBRANCH   1  22
BRANCH   6  24
ATOM     24  C   UNL     1      -2.950  11.279  16.656  0.00  0.00    +0.000 C 
ATOM     25  C   UNL     1      -3.203  10.926  15.217  0.00  0.00    +0.000 C 
ATOM     26  C   UNL     1      -3.845  10.118  16.305  0.00  0.00    +0.000 C 
ENDBRANCH   6  24
BRANCH  11  27
ATOM     27  C   UNL     1       2.208   6.511  18.553  0.00  0.00    +0.000 C 
ATOM     28  F   UNL     1       1.815   5.857  19.699  0.00  0.00    +0.000 F 
BRANCH  27  29
ATOM     29  C   UNL     1       3.141   5.644  17.744  0.00  0.00    +0.000 A 
ATOM     30  C   UNL     1       4.382   6.133  17.301  0.00  0.00    +0.000 A 
ATOM     31  C   UNL     1       5.282   5.295  16.635  0.00  0.00    +0.000 A 
ATOM     32  C   UNL     1       4.955   3.960  16.426  0.00  0.00    +0.000 A 
ATOM     33  F   UNL     1       5.820   3.160  15.789  0.00  0.00    +0.000 F 
ATOM     34  C   UNL     1       3.756   3.442  16.891  0.00  0.00    +0.000 A 
ATOM     35  C   UNL     1       2.864   4.286  17.546  0.00  0.00    +0.000 A 
ATOM     36  F   UNL     1       1.737   3.760  18.043  0.00  0.00    +0.000 F 
ENDBRANCH  27  29
ENDBRANCH  11  27
TORSDOF 4
ENDMDL
MODEL 7
REMARK VINA RESULT:      -7.9      1.862      2.308
REMARK  Name = 
REMARK  6 active torsions:
REMARK  status: ('A' for Active; 'I' for Inactive)
REMARK    1  A    between atoms: C_1  and  N_2
REMARK    2  A    between atoms: N_2  and  C_3
REMARK    3  A    between atoms: C_4  and  C_6
REMARK    4  A    between atoms: N_11  and  C_12
REMARK    5  A    between atoms: C_19  and  C_20
REMARK    6  A    between atoms: C_20  and  C_22
REMARK                            x       y       z     vdW  Elec       q    Type
REMARK                         _______ _______ _______ _____ _____    ______ ____
ROOT
ATOM      1  C   UNL     1      -1.909  14.608  21.990  0.00  0.00    +0.000 A 
ATOM      2  C   UNL     1      -2.076  14.096  20.711  0.00  0.00    +0.000 A 
ATOM      3  C   UNL     1      -1.564  12.840  20.418  0.00  0.00    +0.000 A 
ATOM      4  N   UNL     1      -1.648  12.339  19.175  0.00  0.00    +0.000 NA
ATOM      5  C   UNL     1      -1.029  11.153  18.900  0.00  0.00    +0.000 A 
ATOM      6  N   UNL     1      -1.137  10.695  17.558  0.00  0.00    +0.000 N 
ATOM      7  C   UNL     1      -0.287  10.451  19.909  0.00  0.00    +0.000 A 
ATOM      8  N   UNL     1       0.504   9.297  19.777  0.00  0.00    +0.000 N 
ATOM      9  C   UNL     1       0.953   8.729  21.062  0.00  0.00    +0.000 C 
ATOM     10  C   UNL     1       2.010   7.631  21.034  0.00  0.00    +0.000 C 
ATOM     11  C   UNL     1       2.198   6.877  19.732  0.00  0.00    +0.000 C 
ATOM     12  C   UNL     1       2.171   7.879  18.582  0.00  0.00    +0.000 C 
ATOM     13  C   UNL     1       0.915   8.734  18.503  0.00  0.00    +0.000 C 
ATOM     14  N   UNL     1      -0.328  10.940  21.175  0.00  0.00    +0.000 NA
ATOM     15  C   UNL     1      -0.923  12.114  21.419  0.00  0.00    +0.000 A 
ATOM     16  C   UNL     1      -0.882  12.673  22.678  0.00  0.00    +0.000 A 
ATOM     17  N   UNL     1      -1.351  13.898  22.998  0.00  0.00    +0.000 NA
ATOM     18  H   UNL     1      -1.131   9.683  17.592  0.00  0.00    +0.000 HD
ENDROOT
BRANCH   1  22
ATOM     19  C   UNL     1      -1.809  18.403  22.422  0.00  0.00    +0.000 C 
ATOM     20  N   UNL     1      -1.337  17.048  22.238  0.00  0.00    +0.000 N 
ATOM     21  C   UNL     1       0.039  16.854  21.809  0.00  0.00    +0.000 C 
ATOM     22  C   UNL     1      -2.302  16.027  22.267  0.00  0.00    +0.000 C 
ATOM     23  O   UNL     1      -3.494  16.267  22.475  0.00  0.00    +0.000 OA
ENDBRANCH   1  22
BRANCH   6  24
ATOM     24  C   UNL     1      -2.285  11.178  16.749  0.00  0.00    +0.000 C 
ATOM     25  C   UNL     1      -2.715  10.625  15.419  0.00  0.00    +0.000 C 
ATOM     26  C   UNL     1      -3.506  10.300  16.651  0.00  0.00    +0.000 C 
ENDBRANCH   6  24
BRANCH  11  27
ATOM     27  C   UNL     1       1.403   5.563  19.544  0.00  0.00    +0.000 C 
ATOM     28  F   UNL     1       0.747   5.352  20.736  0.00  0.00    +0.000 F 
BRANCH  27  29
ATOM     29  C   UNL     1       2.066   4.293  19.074  0.00  0.00    +0.000 A 
ATOM     30  C   UNL     1       2.055   3.929  17.716  0.00  0.00    +0.000 A 
ATOM     31  C   UNL     1       2.753   2.800  17.275  0.00  0.00    +0.000 A 
ATOM     32  C   UNL     1       3.483   2.042  18.184  0.00  0.00    +0.000 A 
ATOM     33  F   UNL     1       4.152   0.963  17.757  0.00  0.00    +0.000 F 
ATOM     34  C   UNL     1       3.547   2.404  19.521  0.00  0.00    +0.000 A 
ATOM     35  C   UNL     1       2.842   3.524  19.951  0.00  0.00    +0.000 A 
ATOM     36  F   UNL     1       2.960   3.898  21.232  0.00  0.00    +0.000 F 
ENDBRANCH  27  29
ENDBRANCH  11  27
TORSDOF 4
ENDMDL
MODEL 8
REMARK VINA RESULT:      -7.9      1.480      1.838
REMARK  Name = 
REMARK  6 active torsions:
REMARK  status: ('A' for Active; 'I' for Inactive)
REMARK    1  A    between atoms: C_1  and  N_2
REMARK    2  A    between atoms: N_2  and  C_3
REMARK    3  A    between atoms: C_4  and  C_6
REMARK    4  A    between atoms: N_11  and  C_12
REMARK    5  A    between atoms: C_19  and  C_20
REMARK    6  A    between atoms: C_20  and  C_22
REMARK                            x       y       z     vdW  Elec       q    Type
REMARK                         _______ _______ _______ _____ _____    ______ ____
ROOT
ATOM      1  C   UNL     1      -2.706  14.491  22.268  0.00  0.00    +0.000 A 
ATOM      2  C   UNL     1      -2.745  14.021  20.963  0.00  0.00    +0.000 A 
ATOM      3  C   UNL     1      -2.100  12.831  20.657  0.00  0.00    +0.000 A 
ATOM      4  N   UNL     1      -2.060  12.378  19.395  0.00  0.00    +0.000 NA
ATOM      5  C   UNL     1      -1.316  11.266  19.117  0.00  0.00    +0.000 A 
ATOM      6  N   UNL     1      -1.298  10.857  17.756  0.00  0.00    +0.000 N 
ATOM      7  C   UNL     1      -0.575  10.592  20.146  0.00  0.00    +0.000 A 
ATOM      8  N   UNL     1       0.327   9.522  20.025  0.00  0.00    +0.000 N 
ATOM      9  C   UNL     1       0.746   8.943  21.315  0.00  0.00    +0.000 C 
ATOM     10  C   UNL     1       1.902   7.948  21.316  0.00  0.00    +0.000 C 
ATOM     11  C   UNL     1       2.240   7.270  20.002  0.00  0.00    +0.000 C 
ATOM     12  C   UNL     1       2.190   8.313  18.891  0.00  0.00    +0.000 C 
ATOM     13  C   UNL     1       0.867   9.054  18.761  0.00  0.00    +0.000 C 
ATOM     14  N   UNL     1      -0.740  11.021  21.424  0.00  0.00    +0.000 NA
ATOM     15  C   UNL     1      -1.457  12.124  21.671  0.00  0.00    +0.000 A 
ATOM     16  C   UNL     1      -1.546  12.630  22.950  0.00  0.00    +0.000 A 
ATOM     17  N   UNL     1      -2.148  13.793  23.283  0.00  0.00    +0.000 NA
ATOM     18  H   UNL     1      -1.198   9.849  17.753  0.00  0.00    +0.000 HD
ENDROOT
BRANCH   1  22
ATOM     19  C   UNL     1      -4.997  17.349  23.355  0.00  0.00    +0.000 C 
ATOM     20  N   UNL     1      -4.577  16.013  22.993  0.00  0.00    +0.000 N 
ATOM     21  C   UNL     1      -5.466  14.907  23.310  0.00  0.00    +0.000 C 
ATOM     22  C   UNL     1      -3.247  15.856  22.569  0.00  0.00    +0.000 C 
ATOM     23  O   UNL     1      -2.479  16.816  22.473  0.00  0.00    +0.000 OA
ENDBRANCH   1  22
BRANCH   6  24
ATOM     24  C   UNL     1      -2.432  11.268  16.891  0.00  0.00    +0.000 C 
ATOM     25  C   UNL     1      -2.754  10.699  15.537  0.00  0.00    +0.000 C 
ATOM     26  C   UNL     1      -3.582  10.307  16.724  0.00  0.00    +0.000 C 
ENDBRANCH   6  24
BRANCH  11  27
ATOM     27  C   UNL     1       1.585   5.899  19.715  0.00  0.00    +0.000 C 
ATOM     28  F   UNL     1       0.605   5.747  20.670  0.00  0.00    +0.000 F 
BRANCH  27  29
ATOM     29  C   UNL     1       2.403   4.637  19.592  0.00  0.00    +0.000 A 
ATOM     30  C   UNL     1       2.569   3.772  20.687  0.00  0.00    +0.000 A 
ATOM     31  C   UNL     1       3.247   2.558  20.540  0.00  0.00    +0.000 A 
ATOM     32  C   UNL     1       3.745   2.193  19.294  0.00  0.00    +0.000 A 
ATOM     33  F   UNL     1       4.393   1.029  19.157  0.00  0.00    +0.000 F 
ATOM     34  C   UNL     1       3.557   3.008  18.188  0.00  0.00    +0.000 A 
ATOM     35  C   UNL     1       2.887   4.218  18.347  0.00  0.00    +0.000 A 
ATOM     36  F   UNL     1       2.659   4.967  17.261  0.00  0.00    +0.000 F 
ENDBRANCH  27  29
ENDBRANCH  11  27
TORSDOF 4
ENDMDL
MODEL 9
REMARK VINA RESULT:      -7.8      1.833      2.413
REMARK  Name = 
REMARK  6 active torsions:
REMARK  status: ('A' for Active; 'I' for Inactive)
REMARK    1  A    between atoms: C_1  and  N_2
REMARK    2  A    between atoms: N_2  and  C_3
REMARK    3  A    between atoms: C_4  and  C_6
REMARK    4  A    between atoms: N_11  and  C_12
REMARK    5  A    between atoms: C_19  and  C_20
REMARK    6  A    between atoms: C_20  and  C_22
REMARK                            x       y       z     vdW  Elec       q    Type
REMARK                         _______ _______ _______ _____ _____    ______ ____
ROOT
ATOM      1  C   UNL     1      -3.119  14.409  22.160  0.00  0.00    +0.000 A 
ATOM      2  C   UNL     1      -3.103  13.955  20.849  0.00  0.00    +0.000 A 
ATOM      3  C   UNL     1      -2.396  12.801  20.546  0.00  0.00    +0.000 A 
ATOM      4  N   UNL     1      -2.303  12.367  19.279  0.00  0.00    +0.000 NA
ATOM      5  C   UNL     1      -1.502  11.294  19.007  0.00  0.00    +0.000 A 
ATOM      6  N   UNL     1      -1.431  10.905  17.642  0.00  0.00    +0.000 N 
ATOM      7  C   UNL     1      -0.756  10.642  20.047  0.00  0.00    +0.000 A 
ATOM      8  N   UNL     1       0.199   9.617  19.935  0.00  0.00    +0.000 N 
ATOM      9  C   UNL     1       0.613   9.041  21.229  0.00  0.00    +0.000 C 
ATOM     10  C   UNL     1       1.813   8.101  21.247  0.00  0.00    +0.000 C 
ATOM     11  C   UNL     1       2.214   7.457  19.934  0.00  0.00    +0.000 C 
ATOM     12  C   UNL     1       2.144   8.511  18.834  0.00  0.00    +0.000 C 
ATOM     13  C   UNL     1       0.790   9.191  18.680  0.00  0.00    +0.000 C 
ATOM     14  N   UNL     1      -0.972  11.046  21.325  0.00  0.00    +0.000 NA
ATOM     15  C   UNL     1      -1.746  12.111  21.567  0.00  0.00    +0.000 A 
ATOM     16  C   UNL     1      -1.890  12.596  22.849  0.00  0.00    +0.000 A 
ATOM     17  N   UNL     1      -2.553  13.724  23.181  0.00  0.00    +0.000 NA
ATOM     18  H   UNL     1      -1.284   9.903  17.629  0.00  0.00    +0.000 HD
ENDROOT
BRANCH   1  22
ATOM     19  C   UNL     1      -3.598  18.155  22.744  0.00  0.00    +0.000 C 
ATOM     20  N   UNL     1      -2.924  16.892  22.540  0.00  0.00    +0.000 N 
ATOM     21  C   UNL     1      -1.511  16.917  22.196  0.00  0.00    +0.000 C 
ATOM     22  C   UNL     1      -3.730  15.743  22.465  0.00  0.00    +0.000 C 
ATOM     23  O   UNL     1      -4.955  15.800  22.603  0.00  0.00    +0.000 OA
ENDBRANCH   1  22
BRANCH   6  24
ATOM     24  C   UNL     1      -2.562  11.274  16.754  0.00  0.00    +0.000 C 
ATOM     25  C   UNL     1      -2.808  10.729  15.375  0.00  0.00    +0.000 C 
ATOM     26  C   UNL     1      -3.646  10.252  16.523  0.00  0.00    +0.000 C 
ENDBRANCH   6  24
BRANCH  11  27
ATOM     27  C   UNL     1       1.632   6.061  19.613  0.00  0.00    +0.000 C 
ATOM     28  F   UNL     1       1.176   5.563  20.813  0.00  0.00    +0.000 F 
BRANCH  27  29
ATOM     29  C   UNL     1       2.432   5.015  18.878  0.00  0.00    +0.000 A 
ATOM     30  C   UNL     1       1.842   4.216  17.884  0.00  0.00    +0.000 A 
ATOM     31  C   UNL     1       2.612   3.316  17.141  0.00  0.00    +0.000 A 
ATOM     32  C   UNL     1       3.980   3.224  17.374  0.00  0.00    +0.000 A 
ATOM     33  F   UNL     1       4.715   2.362  16.659  0.00  0.00    +0.000 F 
ATOM     34  C   UNL     1       4.595   4.031  18.318  0.00  0.00    +0.000 A 
ATOM     35  C   UNL     1       3.818   4.918  19.057  0.00  0.00    +0.000 A 
ATOM     36  F   UNL     1       4.432   5.734  19.924  0.00  0.00    +0.000 F 
ENDBRANCH  27  29
ENDBRANCH  11  27
TORSDOF 4
ENDMDL
