MODEL 1
REMARK VINA RESULT:      -7.5      0.000      0.000
REMARK  Name = 
REMARK  2 active torsions:
REMARK  status: ('A' for Active; 'I' for Inactive)
REMARK    1  A    between atoms: C_4  and  N_5
REMARK    2  A    between atoms: C_14  and  C_15
REMARK                            x       y       z     vdW  Elec       q    Type
REMARK                         _______ _______ _______ _____ _____    ______ ____
ROOT
ATOM      1  O   UNL     1       2.177   3.853  21.672  0.00  0.00    +0.000 OA
ATOM      2  C   UNL     1       2.457   4.664  20.796  0.00  0.00    +0.000 A 
ATOM      3  C   UNL     1       3.468   4.349  19.781  0.00  0.00    +0.000 A 
ATOM      4  C   UNL     1       3.842   5.181  18.798  0.00  0.00    +0.000 A 
ATOM      5  C   UNL     1       3.151   6.491  18.733  0.00  0.00    +0.000 A 
ATOM      6  C   UNL     1       3.373   7.445  17.732  0.00  0.00    +0.000 A 
ATOM      7  C   UNL     1       2.700   8.676  17.735  0.00  0.00    +0.000 A 
ATOM      8  C   UNL     1       1.749   8.984  18.718  0.00  0.00    +0.000 A 
ATOM      9  C   UNL     1       1.485   8.015  19.692  0.00  0.00    +0.000 A 
ATOM     10  C   UNL     1       2.187   6.804  19.691  0.00  0.00    +0.000 A 
ATOM     11  O   UNL     1       1.847   5.899  20.715  0.00  0.00    +0.000 OA
ENDROOT
BRANCH   4  12
ATOM     12  N   UNL     1       4.786   4.854  17.812  0.00  0.00    +0.000 N 
ATOM     13  C   UNL     1       6.218   4.641  18.162  0.00  0.00    +0.000 C 
ATOM     14  C   UNL     1       7.089   4.940  16.931  0.00  0.00    +0.000 C 
ATOM     15  O   UNL     1       6.733   4.096  15.823  0.00  0.00    +0.000 OA
ATOM     16  C   UNL     1       5.355   4.294  15.470  0.00  0.00    +0.000 C 
ATOM     17  C   UNL     1       4.421   3.997  16.653  0.00  0.00    +0.000 C 
ENDBRANCH   4  12
BRANCH   8  18
ATOM     18  C   UNL     1       1.024  10.267  18.728  0.00  0.00    +0.000 A 
ATOM     19  C   UNL     1       1.536  11.555  18.740  0.00  0.00    +0.000 A 
ATOM     20  C   UNL     1       0.521  12.556  18.731  0.00  0.00    +0.000 A 
ATOM     21  C   UNL     1      -0.740  12.011  18.708  0.00  0.00    +0.000 A 
ATOM     22  S   UNL     1      -0.697  10.305  18.686  0.00  0.00    +0.000 S 
ENDBRANCH   8  18
TORSDOF 2
ENDMDL
MODEL 2
REMARK VINA RESULT:      -7.4      1.345      1.570
REMARK  Name = 
REMARK  2 active torsions:
REMARK  status: ('A' for Active; 'I' for Inactive)
REMARK    1  A    between atoms: C_4  and  N_5
REMARK    2  A    between atoms: C_14  and  C_15
REMARK                            x       y       z     vdW  Elec       q    Type
REMARK                         _______ _______ _______ _____ _____    ______ ____
ROOT
ATOM      1  O   UNL     1       3.541   2.418  20.831  0.00  0.00    +0.000 OA
ATOM      2  C   UNL     1       3.585   3.422  20.128  0.00  0.00    +0.000 A 
ATOM      3  C   UNL     1       4.455   3.470  18.947  0.00  0.00    +0.000 A 
ATOM      4  C   UNL     1       4.572   4.530  18.133  0.00  0.00    +0.000 A 
ATOM      5  C   UNL     1       3.732   5.710  18.449  0.00  0.00    +0.000 A 
ATOM      6  C   UNL     1       3.683   6.868  17.664  0.00  0.00    +0.000 A 
ATOM      7  C   UNL     1       2.880   7.961  18.025  0.00  0.00    +0.000 A 
ATOM      8  C   UNL     1       2.066   7.922  19.165  0.00  0.00    +0.000 A 
ATOM      9  C   UNL     1       2.072   6.747  19.927  0.00  0.00    +0.000 A 
ATOM     10  C   UNL     1       2.900   5.678  19.567  0.00  0.00    +0.000 A 
ATOM     11  O   UNL     1       2.831   4.545  20.401  0.00  0.00    +0.000 OA
ENDROOT
BRANCH   4  12
ATOM     12  N   UNL     1       5.381   4.550  16.987  0.00  0.00    +0.000 N 
ATOM     13  C   UNL     1       6.866   4.585  17.097  0.00  0.00    +0.000 C 
ATOM     14  C   UNL     1       7.452   5.232  15.832  0.00  0.00    +0.000 C 
ATOM     15  O   UNL     1       7.073   4.505  14.650  0.00  0.00    +0.000 OA
ATOM     16  C   UNL     1       5.643   4.468  14.528  0.00  0.00    +0.000 C 
ATOM     17  C   UNL     1       4.987   3.816  15.754  0.00  0.00    +0.000 C 
ENDBRANCH   4  12
BRANCH   8  18
ATOM     18  C   UNL     1       1.208   9.056  19.551  0.00  0.00    +0.000 A 
ATOM     19  C   UNL     1       0.688  10.063  18.754  0.00  0.00    +0.000 A 
ATOM     20  C   UNL     1      -0.119  10.986  19.481  0.00  0.00    +0.000 A 
ATOM     21  C   UNL     1      -0.200  10.662  20.813  0.00  0.00    +0.000 A 
ATOM     22  S   UNL     1       0.682   9.247  21.179  0.00  0.00    +0.000 S 
ENDBRANCH   8  18
TORSDOF 2
ENDMDL
MODEL 3
REMARK VINA RESULT:      -7.3      0.909      1.074
REMARK  Name = 
REMARK  2 active torsions:
REMARK  status: ('A' for Active; 'I' for Inactive)
REMARK    1  A    between atoms: C_4  and  N_5
REMARK    2  A    between atoms: C_14  and  C_15
REMARK                            x       y       z     vdW  Elec       q    Type
REMARK                         _______ _______ _______ _____ _____    ______ ____
ROOT
ATOM      1  O   UNL     1       2.598   3.068  21.407  0.00  0.00    +0.000 OA
ATOM      2  C   UNL     1       2.789   3.998  20.631  0.00  0.00    +0.000 A 
ATOM      3  C   UNL     1       3.765   3.875  19.543  0.00  0.00    +0.000 A 
ATOM      4  C   UNL     1       4.043   4.846  18.660  0.00  0.00    +0.000 A 
ATOM      5  C   UNL     1       3.277   6.108  18.791  0.00  0.00    +0.000 A 
ATOM      6  C   UNL     1       3.395   7.192  17.913  0.00  0.00    +0.000 A 
ATOM      7  C   UNL     1       2.655   8.369  18.101  0.00  0.00    +0.000 A 
ATOM      8  C   UNL     1       1.739   8.492  19.154  0.00  0.00    +0.000 A 
ATOM      9  C   UNL     1       1.578   7.394  20.007  0.00  0.00    +0.000 A 
ATOM     10  C   UNL     1       2.345   6.238  19.821  0.00  0.00    +0.000 A 
ATOM     11  O   UNL     1       2.107   5.193  20.735  0.00  0.00    +0.000 OA
ENDROOT
BRANCH   4  12
ATOM     12  N   UNL     1       4.953   4.703  17.601  0.00  0.00    +0.000 N 
ATOM     13  C   UNL     1       6.421   4.686  17.850  0.00  0.00    +0.000 C 
ATOM     14  C   UNL     1       7.155   5.162  16.585  0.00  0.00    +0.000 C 
ATOM     15  O   UNL     1       6.847   4.325  15.458  0.00  0.00    +0.000 OA
ATOM     16  C   UNL     1       5.433   4.336  15.202  0.00  0.00    +0.000 C 
ATOM     17  C   UNL     1       4.635   3.854  16.422  0.00  0.00    +0.000 C 
ENDBRANCH   4  12
BRANCH   8  18
ATOM     18  C   UNL     1       0.944   9.716  19.359  0.00  0.00    +0.000 A 
ATOM     19  C   UNL     1      -0.248   9.873  20.048  0.00  0.00    +0.000 A 
ATOM     20  C   UNL     1      -0.719  11.219  20.045  0.00  0.00    +0.000 A 
ATOM     21  C   UNL     1       0.126  12.058  19.360  0.00  0.00    +0.000 A 
ATOM     22  S   UNL     1       1.481  11.228  18.735  0.00  0.00    +0.000 S 
ENDBRANCH   8  18
TORSDOF 2
ENDMDL
MODEL 4
REMARK VINA RESULT:      -7.2      1.393      1.744
REMARK  Name = 
REMARK  2 active torsions:
REMARK  status: ('A' for Active; 'I' for Inactive)
REMARK    1  A    between atoms: C_4  and  N_5
REMARK    2  A    between atoms: C_14  and  C_15
REMARK                            x       y       z     vdW  Elec       q    Type
REMARK                         _______ _______ _______ _____ _____    ______ ____
ROOT
ATOM      1  O   UNL     1       2.391   2.256  21.766  0.00  0.00    +0.000 OA
ATOM      2  C   UNL     1       2.564   3.279  21.113  0.00  0.00    +0.000 A 
ATOM      3  C   UNL     1       3.524   3.305  20.004  0.00  0.00    +0.000 A 
ATOM      4  C   UNL     1       3.782   4.383  19.248  0.00  0.00    +0.000 A 
ATOM      5  C   UNL     1       3.011   5.611  19.552  0.00  0.00    +0.000 A 
ATOM      6  C   UNL     1       3.108   6.799  18.817  0.00  0.00    +0.000 A 
ATOM      7  C   UNL     1       2.363   7.936  19.165  0.00  0.00    +0.000 A 
ATOM      8  C   UNL     1       1.461   7.916  20.238  0.00  0.00    +0.000 A 
ATOM      9  C   UNL     1       1.321   6.716  20.945  0.00  0.00    +0.000 A 
ATOM     10  C   UNL     1       2.093   5.601  20.602  0.00  0.00    +0.000 A 
ATOM     11  O   UNL     1       1.876   4.445  21.378  0.00  0.00    +0.000 OA
ENDROOT
BRANCH   4  12
ATOM     12  N   UNL     1       4.678   4.385  18.168  0.00  0.00    +0.000 N 
ATOM     13  C   UNL     1       6.145   4.517  18.388  0.00  0.00    +0.000 C 
ATOM     14  C   UNL     1       6.792   5.123  17.132  0.00  0.00    +0.000 C 
ATOM     15  O   UNL     1       6.551   4.305  15.975  0.00  0.00    +0.000 OA
ATOM     16  C   UNL     1       5.139   4.172  15.747  0.00  0.00    +0.000 C 
ATOM     17  C   UNL     1       4.426   3.555  16.959  0.00  0.00    +0.000 C 
ENDBRANCH   4  12
BRANCH   8  18
ATOM     18  C   UNL     1       0.661   9.097  20.608  0.00  0.00    +0.000 A 
ATOM     19  C   UNL     1       0.077   9.403  21.827  0.00  0.00    +0.000 A 
ATOM     20  C   UNL     1      -0.613  10.650  21.815  0.00  0.00    +0.000 A 
ATOM     21  C   UNL     1      -0.537  11.268  20.591  0.00  0.00    +0.000 A 
ATOM     22  S   UNL     1       0.371  10.355  19.470  0.00  0.00    +0.000 S 
ENDBRANCH   8  18
TORSDOF 2
ENDMDL
MODEL 5
REMARK VINA RESULT:      -7.2      3.541      7.350
REMARK  Name = 
REMARK  2 active torsions:
REMARK  status: ('A' for Active; 'I' for Inactive)
REMARK    1  A    between atoms: C_4  and  N_5
REMARK    2  A    between atoms: C_14  and  C_15
REMARK                            x       y       z     vdW  Elec       q    Type
REMARK                         _______ _______ _______ _____ _____    ______ ____
ROOT
ATOM      1  O   UNL     1       0.404   9.418  23.835  0.00  0.00    +0.000 OA
ATOM      2  C   UNL     1       0.645   9.445  22.632  0.00  0.00    +0.000 A 
ATOM      3  C   UNL     1       0.370  10.649  21.842  0.00  0.00    +0.000 A 
ATOM      4  C   UNL     1       0.593  10.759  20.523  0.00  0.00    +0.000 A 
ATOM      5  C   UNL     1       1.187   9.582  19.846  0.00  0.00    +0.000 A 
ATOM      6  C   UNL     1       1.545   9.554  18.493  0.00  0.00    +0.000 A 
ATOM      7  C   UNL     1       2.088   8.401  17.905  0.00  0.00    +0.000 A 
ATOM      8  C   UNL     1       2.331   7.244  18.658  0.00  0.00    +0.000 A 
ATOM      9  C   UNL     1       2.023   7.282  20.023  0.00  0.00    +0.000 A 
ATOM     10  C   UNL     1       1.456   8.430  20.587  0.00  0.00    +0.000 A 
ATOM     11  O   UNL     1       1.182   8.362  21.967  0.00  0.00    +0.000 OA
ENDROOT
BRANCH   4  12
ATOM     12  N   UNL     1       0.357  11.928  19.784  0.00  0.00    +0.000 N 
ATOM     13  C   UNL     1      -0.997  12.237  19.247  0.00  0.00    +0.000 C 
ATOM     14  C   UNL     1      -0.857  13.142  18.012  0.00  0.00    +0.000 C 
ATOM     15  O   UNL     1      -0.177  14.366  18.337  0.00  0.00    +0.000 OA
ATOM     16  C   UNL     1       1.134  14.084  18.852  0.00  0.00    +0.000 C 
ATOM     17  C   UNL     1       1.071  13.195  20.102  0.00  0.00    +0.000 C 
ENDBRANCH   4  12
BRANCH   8  18
ATOM     18  C   UNL     1       2.913   6.030  18.058  0.00  0.00    +0.000 A 
ATOM     19  C   UNL     1       4.137   5.874  17.429  0.00  0.00    +0.000 A 
ATOM     20  C   UNL     1       4.367   4.539  16.985  0.00  0.00    +0.000 A 
ATOM     21  C   UNL     1       3.317   3.707  17.289  0.00  0.00    +0.000 A 
ATOM     22  S   UNL     1       2.069   4.531  18.114  0.00  0.00    +0.000 S 
ENDBRANCH   8  18
TORSDOF 2
ENDMDL
MODEL 6
REMARK VINA RESULT:      -7.1      0.812      1.418
REMARK  Name = 
REMARK  2 active torsions:
REMARK  status: ('A' for Active; 'I' for Inactive)
REMARK    1  A    between atoms: C_4  and  N_5
REMARK    2  A    between atoms: C_14  and  C_15
REMARK                            x       y       z     vdW  Elec       q    Type
REMARK                         _______ _______ _______ _____ _____    ______ ____
ROOT
ATOM      1  O   UNL     1       2.322   3.633  21.639  0.00  0.00    +0.000 OA
ATOM      2  C   UNL     1       2.591   4.478  20.791  0.00  0.00    +0.000 A 
ATOM      3  C   UNL     1       3.709   4.275  19.863  0.00  0.00    +0.000 A 
ATOM      4  C   UNL     1       4.077   5.151  18.916  0.00  0.00    +0.000 A 
ATOM      5  C   UNL     1       3.264   6.385  18.796  0.00  0.00    +0.000 A 
ATOM      6  C   UNL     1       3.471   7.367  17.819  0.00  0.00    +0.000 A 
ATOM      7  C   UNL     1       2.678   8.524  17.767  0.00  0.00    +0.000 A 
ATOM      8  C   UNL     1       1.623   8.725  18.668  0.00  0.00    +0.000 A 
ATOM      9  C   UNL     1       1.379   7.724  19.615  0.00  0.00    +0.000 A 
ATOM     10  C   UNL     1       2.197   6.590  19.670  0.00  0.00    +0.000 A 
ATOM     11  O   UNL     1       1.867   5.645  20.662  0.00  0.00    +0.000 OA
ENDROOT
BRANCH   4  12
ATOM     12  N   UNL     1       5.127   4.931  18.012  0.00  0.00    +0.000 N 
ATOM     13  C   UNL     1       4.867   4.789  16.553  0.00  0.00    +0.000 C 
ATOM     14  C   UNL     1       5.989   3.952  15.917  0.00  0.00    +0.000 C 
ATOM     15  O   UNL     1       7.274   4.564  16.120  0.00  0.00    +0.000 OA
ATOM     16  C   UNL     1       7.542   4.703  17.524  0.00  0.00    +0.000 C 
ATOM     17  C   UNL     1       6.466   5.545  18.225  0.00  0.00    +0.000 C 
ENDBRANCH   4  12
BRANCH   8  18
ATOM     18  C   UNL     1       0.773   9.927  18.619  0.00  0.00    +0.000 A 
ATOM     19  C   UNL     1      -0.497  10.072  18.084  0.00  0.00    +0.000 A 
ATOM     20  C   UNL     1      -1.017  11.391  18.235  0.00  0.00    +0.000 A 
ATOM     21  C   UNL     1      -0.135  12.220  18.885  0.00  0.00    +0.000 A 
ATOM     22  S   UNL     1       1.303  11.408  19.318  0.00  0.00    +0.000 S 
ENDBRANCH   8  18
TORSDOF 2
ENDMDL
MODEL 7
REMARK VINA RESULT:      -7.1      1.233      1.744
REMARK  Name = 
REMARK  2 active torsions:
REMARK  status: ('A' for Active; 'I' for Inactive)
REMARK    1  A    between atoms: C_4  and  N_5
REMARK    2  A    between atoms: C_14  and  C_15
REMARK                            x       y       z     vdW  Elec       q    Type
REMARK                         _______ _______ _______ _____ _____    ______ ____
ROOT
ATOM      1  O   UNL     1       2.875   2.422  21.452  0.00  0.00    +0.000 OA
ATOM      2  C   UNL     1       3.030   3.407  20.738  0.00  0.00    +0.000 A 
ATOM      3  C   UNL     1       4.023   3.399  19.658  0.00  0.00    +0.000 A 
ATOM      4  C   UNL     1       4.264   4.435  18.841  0.00  0.00    +0.000 A 
ATOM      5  C   UNL     1       3.437   5.649  19.039  0.00  0.00    +0.000 A 
ATOM      6  C   UNL     1       3.512   6.790  18.232  0.00  0.00    +0.000 A 
ATOM      7  C   UNL     1       2.714   7.916  18.482  0.00  0.00    +0.000 A 
ATOM      8  C   UNL     1       1.780   7.930  19.527  0.00  0.00    +0.000 A 
ATOM      9  C   UNL     1       1.663   6.774  20.308  0.00  0.00    +0.000 A 
ATOM     10  C   UNL     1       2.487   5.670  20.062  0.00  0.00    +0.000 A 
ATOM     11  O   UNL     1       2.290   4.560  20.906  0.00  0.00    +0.000 OA
ENDROOT
BRANCH   4  12
ATOM     12  N   UNL     1       5.192   4.403  17.789  0.00  0.00    +0.000 N 
ATOM     13  C   UNL     1       4.746   4.271  16.375  0.00  0.00    +0.000 C 
ATOM     14  C   UNL     1       5.871   3.632  15.545  0.00  0.00    +0.000 C 
ATOM     15  O   UNL     1       7.072   4.421  15.600  0.00  0.00    +0.000 OA
ATOM     16  C   UNL     1       7.518   4.553  16.959  0.00  0.00    +0.000 C 
ATOM     17  C   UNL     1       6.446   5.202  17.846  0.00  0.00    +0.000 C 
ENDBRANCH   4  12
BRANCH   8  18
ATOM     18  C   UNL     1       0.925   9.099  19.795  0.00  0.00    +0.000 A 
ATOM     19  C   UNL     1       0.425  10.033  18.902  0.00  0.00    +0.000 A 
ATOM     20  C   UNL     1      -0.385  11.024  19.529  0.00  0.00    +0.000 A 
ATOM     21  C   UNL     1      -0.489  10.822  20.884  0.00  0.00    +0.000 A 
ATOM     22  S   UNL     1       0.376   9.441  21.391  0.00  0.00    +0.000 S 
ENDBRANCH   8  18
TORSDOF 2
ENDMDL
MODEL 8
REMARK VINA RESULT:      -6.9      1.525      2.089
REMARK  Name = 
REMARK  2 active torsions:
REMARK  status: ('A' for Active; 'I' for Inactive)
REMARK    1  A    between atoms: C_4  and  N_5
REMARK    2  A    between atoms: C_14  and  C_15
REMARK                            x       y       z     vdW  Elec       q    Type
REMARK                         _______ _______ _______ _____ _____    ______ ____
ROOT
ATOM      1  O   UNL     1       3.951   2.392  20.427  0.00  0.00    +0.000 OA
ATOM      2  C   UNL     1       3.922   3.424  19.765  0.00  0.00    +0.000 A 
ATOM      3  C   UNL     1       4.744   3.561  18.557  0.00  0.00    +0.000 A 
ATOM      4  C   UNL     1       4.781   4.657  17.784  0.00  0.00    +0.000 A 
ATOM      5  C   UNL     1       3.899   5.781  18.177  0.00  0.00    +0.000 A 
ATOM      6  C   UNL     1       3.766   6.966  17.444  0.00  0.00    +0.000 A 
ATOM      7  C   UNL     1       2.926   8.003  17.877  0.00  0.00    +0.000 A 
ATOM      8  C   UNL     1       2.157   7.879  19.042  0.00  0.00    +0.000 A 
ATOM      9  C   UNL     1       2.246   6.677  19.754  0.00  0.00    +0.000 A 
ATOM     10  C   UNL     1       3.110   5.664  19.322  0.00  0.00    +0.000 A 
ATOM     11  O   UNL     1       3.126   4.497  20.111  0.00  0.00    +0.000 OA
ENDROOT
BRANCH   4  12
ATOM     12  N   UNL     1       5.546   4.762  16.613  0.00  0.00    +0.000 N 
ATOM     13  C   UNL     1       4.909   4.670  15.270  0.00  0.00    +0.000 C 
ATOM     14  C   UNL     1       5.948   4.177  14.249  0.00  0.00    +0.000 C 
ATOM     15  O   UNL     1       7.079   5.063  14.186  0.00  0.00    +0.000 OA
ATOM     16  C   UNL     1       7.707   5.158  15.475  0.00  0.00    +0.000 C 
ATOM     17  C   UNL     1       6.729   5.662  16.545  0.00  0.00    +0.000 C 
ENDBRANCH   4  12
BRANCH   8  18
ATOM     18  C   UNL     1       1.261   8.953  19.505  0.00  0.00    +0.000 A 
ATOM     19  C   UNL     1       0.722  10.006  18.783  0.00  0.00    +0.000 A 
ATOM     20  C   UNL     1      -0.121  10.845  19.569  0.00  0.00    +0.000 A 
ATOM     21  C   UNL     1      -0.210  10.412  20.869  0.00  0.00    +0.000 A 
ATOM     22  S   UNL     1       0.708   8.998  21.135  0.00  0.00    +0.000 S 
ENDBRANCH   8  18
TORSDOF 2
ENDMDL
MODEL 9
REMARK VINA RESULT:      -6.9      3.489      6.803
REMARK  Name = 
REMARK  2 active torsions:
REMARK  status: ('A' for Active; 'I' for Inactive)
REMARK    1  A    between atoms: C_4  and  N_5
REMARK    2  A    between atoms: C_14  and  C_15
REMARK                            x       y       z     vdW  Elec       q    Type
REMARK                         _______ _______ _______ _____ _____    ______ ____
ROOT
ATOM      1  O   UNL     1       2.292   9.171  18.405  0.00  0.00    +0.000 OA
ATOM      2  C   UNL     1       2.711   8.040  18.183  0.00  0.00    +0.000 A 
ATOM      3  C   UNL     1       2.302   6.913  19.029  0.00  0.00    +0.000 A 
ATOM      4  C   UNL     1       2.722   5.650  18.864  0.00  0.00    +0.000 A 
ATOM      5  C   UNL     1       3.634   5.392  17.724  0.00  0.00    +0.000 A 
ATOM      6  C   UNL     1       4.109   4.123  17.372  0.00  0.00    +0.000 A 
ATOM      7  C   UNL     1       4.986   3.945  16.291  0.00  0.00    +0.000 A 
ATOM      8  C   UNL     1       5.392   5.027  15.497  0.00  0.00    +0.000 A 
ATOM      9  C   UNL     1       4.881   6.291  15.812  0.00  0.00    +0.000 A 
ATOM     10  C   UNL     1       4.030   6.454  16.911  0.00  0.00    +0.000 A 
ATOM     11  O   UNL     1       3.575   7.767  17.142  0.00  0.00    +0.000 OA
ENDROOT
BRANCH   4  12
ATOM     12  N   UNL     1       2.297   4.574  19.658  0.00  0.00    +0.000 N 
ATOM     13  C   UNL     1       2.281   4.677  21.144  0.00  0.00    +0.000 C 
ATOM     14  C   UNL     1       2.414   3.270  21.750  0.00  0.00    +0.000 C 
ATOM     15  O   UNL     1       1.346   2.411  21.315  0.00  0.00    +0.000 OA
ATOM     16  C   UNL     1       1.352   2.299  19.883  0.00  0.00    +0.000 C 
ATOM     17  C   UNL     1       1.205   3.670  19.207  0.00  0.00    +0.000 C 
ENDBRANCH   4  12
BRANCH   8  18
ATOM     18  C   UNL     1       6.302   4.856  14.351  0.00  0.00    +0.000 A 
ATOM     19  C   UNL     1       7.510   5.487  14.099  0.00  0.00    +0.000 A 
ATOM     20  C   UNL     1       8.122   5.053  12.887  0.00  0.00    +0.000 A 
ATOM     21  C   UNL     1       7.371   4.098  12.245  0.00  0.00    +0.000 A 
ATOM     22  S   UNL     1       5.945   3.723  13.105  0.00  0.00    +0.000 S 
ENDBRANCH   8  18
TORSDOF 2
ENDMDL
