MODEL 1
REMARK VINA RESULT:      -9.2      0.000      0.000
REMARK  Name = 
REMARK  6 active torsions:
REMARK  status: ('A' for Active; 'I' for Inactive)
REMARK    1  A    between atoms: C_1  and  S_2
REMARK    2  A    between atoms: S_2  and  C_5
REMARK    3  A    between atoms: C_8  and  N_9
REMARK    4  A    between atoms: C_11  and  C_12
REMARK    5  A    between atoms: C_16  and  N_17
REMARK    6  A    between atoms: C_18  and  C_19
REMARK                            x       y       z     vdW  Elec       q    Type
REMARK                         _______ _______ _______ _____ _____    ______ ____
ROOT
ATOM      1  N   UNL     1       5.351   4.243  15.739  0.00  0.00    +0.000 N 
ATOM      2  N   UNL     1       5.155   3.664  14.562  0.00  0.00    +0.000 NA
ATOM      3  C   UNL     1       6.124   4.075  13.719  0.00  0.00    +0.000 A 
ATOM      4  C   UNL     1       6.975   4.926  14.389  0.00  0.00    +0.000 A 
ATOM      5  C   UNL     1       6.478   5.022  15.682  0.00  0.00    +0.000 A 
ENDROOT
BRANCH   1   9
ATOM      6  C   UNL     1       2.554   3.676  18.884  0.00  0.00    +0.000 A 
ATOM      7  C   UNL     1       2.787   4.970  18.397  0.00  0.00    +0.000 A 
ATOM      8  C   UNL     1       3.742   5.171  17.388  0.00  0.00    +0.000 A 
ATOM      9  C   UNL     1       4.442   4.071  16.846  0.00  0.00    +0.000 A 
ATOM     10  C   UNL     1       4.234   2.798  17.403  0.00  0.00    +0.000 A 
ATOM     11  C   UNL     1       3.297   2.603  18.403  0.00  0.00    +0.000 A 
BRANCH   6  13
ATOM     12  C   UNL     1       1.766   2.459  21.551  0.00  0.00    +0.000 C 
ATOM     13  S   UNL     1       1.243   3.279  20.022  0.00  0.00    +0.000 S 
ATOM     14  O   UNL     1       0.159   2.443  19.319  0.00  0.00    +0.000 OA
ATOM     15  O   UNL     1       0.463   4.559  20.356  0.00  0.00    +0.000 OA
ENDBRANCH   6  13
ENDBRANCH   1   9
BRANCH   5  16
ATOM     16  C   UNL     1       7.131   5.767  16.806  0.00  0.00    +0.000 A 
ATOM     17  C   UNL     1       7.565   5.089  17.961  0.00  0.00    +0.000 A 
ATOM     18  C   UNL     1       8.132   5.787  19.031  0.00  0.00    +0.000 A 
ATOM     19  C   UNL     1       8.279   7.171  18.965  0.00  0.00    +0.000 A 
ATOM     20  C   UNL     1       7.864   7.863  17.827  0.00  0.00    +0.000 A 
ATOM     21  C   UNL     1       7.291   7.170  16.755  0.00  0.00    +0.000 A 
ENDBRANCH   5  16
BRANCH   3  22
ATOM     22  C   UNL     1       6.258   3.633  12.294  0.00  0.00    +0.000 C 
ATOM     23  F   UNL     1       7.108   4.479  11.608  0.00  0.00    +0.000 F 
ATOM     24  F   UNL     1       6.769   2.349  12.259  0.00  0.00    +0.000 F 
ATOM     25  F   UNL     1       5.016   3.649  11.685  0.00  0.00    +0.000 F 
ENDBRANCH   3  22
BRANCH   4  26
ATOM     26  N   UNL     1       8.162   5.495  13.860  0.00  0.00    +0.000 N 
ATOM     27  H   UNL     1       8.323   5.515  12.845  0.00  0.00    +0.000 HD
ATOM     28  H   UNL     1       8.928   5.818  14.464  0.00  0.00    +0.000 HD
ENDBRANCH   4  26
TORSDOF 5
ENDMDL
MODEL 2
REMARK VINA RESULT:      -9.1      0.438      1.046
REMARK  Name = 
REMARK  6 active torsions:
REMARK  status: ('A' for Active; 'I' for Inactive)
REMARK    1  A    between atoms: C_1  and  S_2
REMARK    2  A    between atoms: S_2  and  C_5
REMARK    3  A    between atoms: C_8  and  N_9
REMARK    4  A    between atoms: C_11  and  C_12
REMARK    5  A    between atoms: C_16  and  N_17
REMARK    6  A    between atoms: C_18  and  C_19
REMARK                            x       y       z     vdW  Elec       q    Type
REMARK                         _______ _______ _______ _____ _____    ______ ____
ROOT
ATOM      1  N   UNL     1       5.359   4.230  15.625  0.00  0.00    +0.000 N 
ATOM      2  N   UNL     1       5.191   3.676  14.432  0.00  0.00    +0.000 NA
ATOM      3  C   UNL     1       6.198   4.079  13.631  0.00  0.00    +0.000 A 
ATOM      4  C   UNL     1       7.044   4.898  14.345  0.00  0.00    +0.000 A 
ATOM      5  C   UNL     1       6.505   4.984  15.621  0.00  0.00    +0.000 A 
ENDROOT
BRANCH   1   9
ATOM      6  C   UNL     1       2.686   3.787  18.896  0.00  0.00    +0.000 A 
ATOM      7  C   UNL     1       3.282   2.648  18.337  0.00  0.00    +0.000 A 
ATOM      8  C   UNL     1       4.133   2.782  17.228  0.00  0.00    +0.000 A 
ATOM      9  C   UNL     1       4.408   4.061  16.697  0.00  0.00    +0.000 A 
ATOM     10  C   UNL     1       3.742   5.174  17.238  0.00  0.00    +0.000 A 
ATOM     11  C   UNL     1       2.899   5.039  18.328  0.00  0.00    +0.000 A 
BRANCH   6  13
ATOM     12  C   UNL     1       2.444   2.740  21.735  0.00  0.00    +0.000 C 
ATOM     13  S   UNL     1       1.747   3.759  20.408  0.00  0.00    +0.000 S 
ATOM     14  O   UNL     1       0.293   3.338  20.128  0.00  0.00    +0.000 OA
ATOM     15  O   UNL     1       1.549   5.198  20.905  0.00  0.00    +0.000 OA
ENDBRANCH   6  13
ENDBRANCH   1   9
BRANCH   5  16
ATOM     16  C   UNL     1       7.135   5.695  16.780  0.00  0.00    +0.000 A 
ATOM     17  C   UNL     1       7.547   4.981  17.922  0.00  0.00    +0.000 A 
ATOM     18  C   UNL     1       8.092   5.646  19.024  0.00  0.00    +0.000 A 
ATOM     19  C   UNL     1       8.238   7.032  19.004  0.00  0.00    +0.000 A 
ATOM     20  C   UNL     1       7.845   7.758  17.880  0.00  0.00    +0.000 A 
ATOM     21  C   UNL     1       7.293   7.098  16.776  0.00  0.00    +0.000 A 
ENDBRANCH   5  16
BRANCH   3  22
ATOM     22  C   UNL     1       6.371   3.659  12.204  0.00  0.00    +0.000 C 
ATOM     23  F   UNL     1       7.164   4.568  11.529  0.00  0.00    +0.000 F 
ATOM     24  F   UNL     1       6.972   2.414  12.162  0.00  0.00    +0.000 F 
ATOM     25  F   UNL     1       5.135   3.592  11.586  0.00  0.00    +0.000 F 
ENDBRANCH   3  22
BRANCH   4  26
ATOM     26  N   UNL     1       8.261   5.449  13.867  0.00  0.00    +0.000 N 
ATOM     27  H   UNL     1       8.540   5.324  12.886  0.00  0.00    +0.000 HD
ATOM     28  H   UNL     1       8.936   5.905  14.494  0.00  0.00    +0.000 HD
ENDBRANCH   4  26
TORSDOF 5
ENDMDL
MODEL 3
REMARK VINA RESULT:      -9.0      0.078      1.228
REMARK  Name = 
REMARK  6 active torsions:
REMARK  status: ('A' for Active; 'I' for Inactive)
REMARK    1  A    between atoms: C_1  and  S_2
REMARK    2  A    between atoms: S_2  and  C_5
REMARK    3  A    between atoms: C_8  and  N_9
REMARK    4  A    between atoms: C_11  and  C_12
REMARK    5  A    between atoms: C_16  and  N_17
REMARK    6  A    between atoms: C_18  and  C_19
REMARK                            x       y       z     vdW  Elec       q    Type
REMARK                         _______ _______ _______ _____ _____    ______ ____
ROOT
ATOM      1  N   UNL     1       5.336   4.271  15.757  0.00  0.00    +0.000 N 
ATOM      2  N   UNL     1       5.165   3.673  14.586  0.00  0.00    +0.000 NA
ATOM      3  C   UNL     1       6.131   4.098  13.746  0.00  0.00    +0.000 A 
ATOM      4  C   UNL     1       6.955   4.978  14.414  0.00  0.00    +0.000 A 
ATOM      5  C   UNL     1       6.444   5.077  15.701  0.00  0.00    +0.000 A 
ENDROOT
BRANCH   1   9
ATOM      6  C   UNL     1       2.525   3.673  18.884  0.00  0.00    +0.000 A 
ATOM      7  C   UNL     1       2.739   4.968  18.391  0.00  0.00    +0.000 A 
ATOM      8  C   UNL     1       3.697   5.179  17.388  0.00  0.00    +0.000 A 
ATOM      9  C   UNL     1       4.422   4.090  16.859  0.00  0.00    +0.000 A 
ATOM     10  C   UNL     1       4.232   2.816  17.422  0.00  0.00    +0.000 A 
ATOM     11  C   UNL     1       3.291   2.610  18.416  0.00  0.00    +0.000 A 
BRANCH   6  13
ATOM     12  C   UNL     1       1.734   2.419  21.533  0.00  0.00    +0.000 C 
ATOM     13  S   UNL     1       1.213   3.260  20.014  0.00  0.00    +0.000 S 
ATOM     14  O   UNL     1       0.130   2.432  19.299  0.00  0.00    +0.000 OA
ATOM     15  O   UNL     1       0.431   4.534  20.365  0.00  0.00    +0.000 OA
ENDBRANCH   6  13
ENDBRANCH   1   9
BRANCH   5  16
ATOM     16  C   UNL     1       7.069   5.851  16.821  0.00  0.00    +0.000 A 
ATOM     17  C   UNL     1       7.247   7.245  16.720  0.00  0.00    +0.000 A 
ATOM     18  C   UNL     1       7.871   7.963  17.743  0.00  0.00    +0.000 A 
ATOM     19  C   UNL     1       8.325   7.305  18.885  0.00  0.00    +0.000 A 
ATOM     20  C   UNL     1       8.151   5.927  19.011  0.00  0.00    +0.000 A 
ATOM     21  C   UNL     1       7.532   5.201  17.987  0.00  0.00    +0.000 A 
ENDBRANCH   5  16
BRANCH   3  22
ATOM     22  C   UNL     1       6.288   3.644  12.328  0.00  0.00    +0.000 C 
ATOM     23  F   UNL     1       5.057   3.585  11.704  0.00  0.00    +0.000 F 
ATOM     24  F   UNL     1       7.099   4.535  11.649  0.00  0.00    +0.000 F 
ATOM     25  F   UNL     1       6.867   2.388  12.304  0.00  0.00    +0.000 F 
ENDBRANCH   3  22
BRANCH   4  26
ATOM     26  N   UNL     1       8.132   5.570  13.888  0.00  0.00    +0.000 N 
ATOM     27  H   UNL     1       8.591   6.345  14.382  0.00  0.00    +0.000 HD
ATOM     28  H   UNL     1       8.508   5.310  12.967  0.00  0.00    +0.000 HD
ENDBRANCH   4  26
TORSDOF 5
ENDMDL
MODEL 4
REMARK VINA RESULT:      -8.8      4.255      6.386
REMARK  Name = 
REMARK  6 active torsions:
REMARK  status: ('A' for Active; 'I' for Inactive)
REMARK    1  A    between atoms: C_1  and  S_2
REMARK    2  A    between atoms: S_2  and  C_5
REMARK    3  A    between atoms: C_8  and  N_9
REMARK    4  A    between atoms: C_11  and  C_12
REMARK    5  A    between atoms: C_16  and  N_17
REMARK    6  A    between atoms: C_18  and  C_19
REMARK                            x       y       z     vdW  Elec       q    Type
REMARK                         _______ _______ _______ _____ _____    ______ ____
ROOT
ATOM      1  N   UNL     1       3.784   6.691  18.392  0.00  0.00    +0.000 N 
ATOM      2  N   UNL     1       4.942   7.079  17.875  0.00  0.00    +0.000 NA
ATOM      3  C   UNL     1       5.766   6.012  17.828  0.00  0.00    +0.000 A 
ATOM      4  C   UNL     1       5.101   4.907  18.312  0.00  0.00    +0.000 A 
ATOM      5  C   UNL     1       3.833   5.347  18.663  0.00  0.00    +0.000 A 
ENDROOT
BRANCH   1   9
ATOM      6  C   UNL     1       0.724   9.535  19.159  0.00  0.00    +0.000 A 
ATOM      7  C   UNL     1       1.132   8.671  20.185  0.00  0.00    +0.000 A 
ATOM      8  C   UNL     1       2.112   7.700  19.927  0.00  0.00    +0.000 A 
ATOM      9  C   UNL     1       2.704   7.612  18.648  0.00  0.00    +0.000 A 
ATOM     10  C   UNL     1       2.225   8.447  17.624  0.00  0.00    +0.000 A 
ATOM     11  C   UNL     1       1.254   9.400  17.879  0.00  0.00    +0.000 A 
BRANCH   6  13
ATOM     12  C   UNL     1       0.250  12.514  18.820  0.00  0.00    +0.000 C 
ATOM     13  S   UNL     1      -0.366  10.918  19.418  0.00  0.00    +0.000 S 
ATOM     14  O   UNL     1      -0.752  11.025  20.904  0.00  0.00    +0.000 OA
ATOM     15  O   UNL     1      -1.728  10.612  18.778  0.00  0.00    +0.000 OA
ENDBRANCH   6  13
ENDBRANCH   1   9
BRANCH   5  16
ATOM     16  C   UNL     1       2.718   4.473  19.151  0.00  0.00    +0.000 A 
ATOM     17  C   UNL     1       2.503   4.285  20.530  0.00  0.00    +0.000 A 
ATOM     18  C   UNL     1       1.494   3.434  20.988  0.00  0.00    +0.000 A 
ATOM     19  C   UNL     1       0.681   2.758  20.079  0.00  0.00    +0.000 A 
ATOM     20  C   UNL     1       0.871   2.935  18.709  0.00  0.00    +0.000 A 
ATOM     21  C   UNL     1       1.884   3.782  18.244  0.00  0.00    +0.000 A 
ENDBRANCH   5  16
BRANCH   3  22
ATOM     22  C   UNL     1       7.166   6.039  17.296  0.00  0.00    +0.000 C 
ATOM     23  F   UNL     1       7.241   5.337  16.109  0.00  0.00    +0.000 F 
ATOM     24  F   UNL     1       7.545   7.350  17.073  0.00  0.00    +0.000 F 
ATOM     25  F   UNL     1       8.023   5.464  18.216  0.00  0.00    +0.000 F 
ENDBRANCH   3  22
BRANCH   4  26
ATOM     26  N   UNL     1       5.611   3.583  18.342  0.00  0.00    +0.000 N 
ATOM     27  H   UNL     1       6.197   3.267  19.125  0.00  0.00    +0.000 HD
ATOM     28  H   UNL     1       5.490   2.934  17.554  0.00  0.00    +0.000 HD
ENDBRANCH   4  26
TORSDOF 5
ENDMDL
MODEL 5
REMARK VINA RESULT:      -8.8      4.310      6.319
REMARK  Name = 
REMARK  6 active torsions:
REMARK  status: ('A' for Active; 'I' for Inactive)
REMARK    1  A    between atoms: C_1  and  S_2
REMARK    2  A    between atoms: S_2  and  C_5
REMARK    3  A    between atoms: C_8  and  N_9
REMARK    4  A    between atoms: C_11  and  C_12
REMARK    5  A    between atoms: C_16  and  N_17
REMARK    6  A    between atoms: C_18  and  C_19
REMARK                            x       y       z     vdW  Elec       q    Type
REMARK                         _______ _______ _______ _____ _____    ______ ____
ROOT
ATOM      1  N   UNL     1       3.773   6.672  18.397  0.00  0.00    +0.000 N 
ATOM      2  N   UNL     1       4.930   7.060  17.878  0.00  0.00    +0.000 NA
ATOM      3  C   UNL     1       5.751   5.992  17.824  0.00  0.00    +0.000 A 
ATOM      4  C   UNL     1       5.085   4.885  18.304  0.00  0.00    +0.000 A 
ATOM      5  C   UNL     1       3.819   5.327  18.660  0.00  0.00    +0.000 A 
ENDROOT
BRANCH   1   9
ATOM      6  C   UNL     1       0.722   9.519  19.188  0.00  0.00    +0.000 A 
ATOM      7  C   UNL     1       1.121   8.639  20.204  0.00  0.00    +0.000 A 
ATOM      8  C   UNL     1       2.098   7.667  19.937  0.00  0.00    +0.000 A 
ATOM      9  C   UNL     1       2.696   7.595  18.661  0.00  0.00    +0.000 A 
ATOM     10  C   UNL     1       2.225   8.446  17.646  0.00  0.00    +0.000 A 
ATOM     11  C   UNL     1       1.257   9.400  17.909  0.00  0.00    +0.000 A 
BRANCH   6  13
ATOM     12  C   UNL     1      -0.659  11.325  21.199  0.00  0.00    +0.000 C 
ATOM     13  S   UNL     1      -0.363  10.903  19.461  0.00  0.00    +0.000 S 
ATOM     14  O   UNL     1      -1.703  10.685  18.736  0.00  0.00    +0.000 OA
ATOM     15  O   UNL     1       0.185  12.128  18.714  0.00  0.00    +0.000 OA
ENDBRANCH   6  13
ENDBRANCH   1   9
BRANCH   5  16
ATOM     16  C   UNL     1       2.703   4.453  19.146  0.00  0.00    +0.000 A 
ATOM     17  C   UNL     1       2.487   4.264  20.525  0.00  0.00    +0.000 A 
ATOM     18  C   UNL     1       1.477   3.412  20.982  0.00  0.00    +0.000 A 
ATOM     19  C   UNL     1       0.665   2.738  20.071  0.00  0.00    +0.000 A 
ATOM     20  C   UNL     1       0.855   2.917  18.701  0.00  0.00    +0.000 A 
ATOM     21  C   UNL     1       1.869   3.764  18.238  0.00  0.00    +0.000 A 
ENDBRANCH   5  16
BRANCH   3  22
ATOM     22  C   UNL     1       7.150   6.018  17.289  0.00  0.00    +0.000 C 
ATOM     23  F   UNL     1       8.023   5.456  18.200  0.00  0.00    +0.000 F 
ATOM     24  F   UNL     1       7.201   5.299  16.108  0.00  0.00    +0.000 F 
ATOM     25  F   UNL     1       7.529   7.325  17.046  0.00  0.00    +0.000 F 
ENDBRANCH   3  22
BRANCH   4  26
ATOM     26  N   UNL     1       5.592   3.560  18.326  0.00  0.00    +0.000 N 
ATOM     27  H   UNL     1       5.058   2.791  17.902  0.00  0.00    +0.000 HD
ATOM     28  H   UNL     1       6.450   3.312  18.834  0.00  0.00    +0.000 HD
ENDBRANCH   4  26
TORSDOF 5
ENDMDL
MODEL 6
REMARK VINA RESULT:      -8.8      4.245      6.371
REMARK  Name = 
REMARK  6 active torsions:
REMARK  status: ('A' for Active; 'I' for Inactive)
REMARK    1  A    between atoms: C_1  and  S_2
REMARK    2  A    between atoms: S_2  and  C_5
REMARK    3  A    between atoms: C_8  and  N_9
REMARK    4  A    between atoms: C_11  and  C_12
REMARK    5  A    between atoms: C_16  and  N_17
REMARK    6  A    between atoms: C_18  and  C_19
REMARK                            x       y       z     vdW  Elec       q    Type
REMARK                         _______ _______ _______ _____ _____    ______ ____
ROOT
ATOM      1  N   UNL     1       3.800   6.704  18.382  0.00  0.00    +0.000 N 
ATOM      2  N   UNL     1       4.952   7.107  17.862  0.00  0.00    +0.000 NA
ATOM      3  C   UNL     1       5.788   6.050  17.809  0.00  0.00    +0.000 A 
ATOM      4  C   UNL     1       5.138   4.936  18.292  0.00  0.00    +0.000 A 
ATOM      5  C   UNL     1       3.866   5.360  18.650  0.00  0.00    +0.000 A 
ENDROOT
BRANCH   1   9
ATOM      6  C   UNL     1       0.710   9.510  19.168  0.00  0.00    +0.000 A 
ATOM      7  C   UNL     1       1.135   8.652  20.192  0.00  0.00    +0.000 A 
ATOM      8  C   UNL     1       2.125   7.692  19.927  0.00  0.00    +0.000 A 
ATOM      9  C   UNL     1       2.710   7.612  18.645  0.00  0.00    +0.000 A 
ATOM     10  C   UNL     1       2.215   8.441  17.624  0.00  0.00    +0.000 A 
ATOM     11  C   UNL     1       1.233   9.382  17.885  0.00  0.00    +0.000 A 
BRANCH   6  13
ATOM     12  C   UNL     1       0.225  12.494  18.892  0.00  0.00    +0.000 C 
ATOM     13  S   UNL     1      -0.395  10.879  19.434  0.00  0.00    +0.000 S 
ATOM     14  O   UNL     1      -0.819  10.947  20.912  0.00  0.00    +0.000 OA
ATOM     15  O   UNL     1      -1.739  10.581  18.752  0.00  0.00    +0.000 OA
ENDBRANCH   6  13
ENDBRANCH   1   9
BRANCH   5  16
ATOM     16  C   UNL     1       2.764   4.472  19.139  0.00  0.00    +0.000 A 
ATOM     17  C   UNL     1       1.903   3.827  18.229  0.00  0.00    +0.000 A 
ATOM     18  C   UNL     1       0.845   3.035  18.683  0.00  0.00    +0.000 A 
ATOM     19  C   UNL     1       0.630   2.869  20.051  0.00  0.00    +0.000 A 
ATOM     20  C   UNL     1       1.475   3.491  20.970  0.00  0.00    +0.000 A 
ATOM     21  C   UNL     1       2.533   4.291  20.521  0.00  0.00    +0.000 A 
ENDBRANCH   5  16
BRANCH   3  22
ATOM     22  C   UNL     1       7.185   6.095  17.272  0.00  0.00    +0.000 C 
ATOM     23  F   UNL     1       8.061   5.510  18.165  0.00  0.00    +0.000 F 
ATOM     24  F   UNL     1       7.235   5.409  16.071  0.00  0.00    +0.000 F 
ATOM     25  F   UNL     1       7.560   7.410  17.064  0.00  0.00    +0.000 F 
ENDBRANCH   3  22
BRANCH   4  26
ATOM     26  N   UNL     1       5.664   3.618  18.317  0.00  0.00    +0.000 N 
ATOM     27  H   UNL     1       5.593   3.044  19.167  0.00  0.00    +0.000 HD
ATOM     28  H   UNL     1       6.202   3.231  17.531  0.00  0.00    +0.000 HD
ENDBRANCH   4  26
TORSDOF 5
ENDMDL
MODEL 7
REMARK VINA RESULT:      -8.8      4.282      6.393
REMARK  Name = 
REMARK  6 active torsions:
REMARK  status: ('A' for Active; 'I' for Inactive)
REMARK    1  A    between atoms: C_1  and  S_2
REMARK    2  A    between atoms: S_2  and  C_5
REMARK    3  A    between atoms: C_8  and  N_9
REMARK    4  A    between atoms: C_11  and  C_12
REMARK    5  A    between atoms: C_16  and  N_17
REMARK    6  A    between atoms: C_18  and  C_19
REMARK                            x       y       z     vdW  Elec       q    Type
REMARK                         _______ _______ _______ _____ _____    ______ ____
ROOT
ATOM      1  N   UNL     1       3.799   6.700  18.377  0.00  0.00    +0.000 N 
ATOM      2  N   UNL     1       4.949   7.101  17.850  0.00  0.00    +0.000 NA
ATOM      3  C   UNL     1       5.785   6.044  17.799  0.00  0.00    +0.000 A 
ATOM      4  C   UNL     1       5.137   4.931  18.288  0.00  0.00    +0.000 A 
ATOM      5  C   UNL     1       3.866   5.357  18.648  0.00  0.00    +0.000 A 
ENDROOT
BRANCH   1   9
ATOM      6  C   UNL     1       0.713   9.509  19.167  0.00  0.00    +0.000 A 
ATOM      7  C   UNL     1       1.130   8.641  20.186  0.00  0.00    +0.000 A 
ATOM      8  C   UNL     1       2.119   7.681  19.920  0.00  0.00    +0.000 A 
ATOM      9  C   UNL     1       2.711   7.609  18.641  0.00  0.00    +0.000 A 
ATOM     10  C   UNL     1       2.223   8.447  17.623  0.00  0.00    +0.000 A 
ATOM     11  C   UNL     1       1.243   9.389  17.886  0.00  0.00    +0.000 A 
BRANCH   6  13
ATOM     12  C   UNL     1      -1.874  10.897  18.396  0.00  0.00    +0.000 C 
ATOM     13  S   UNL     1      -0.390  10.879  19.437  0.00  0.00    +0.000 S 
ATOM     14  O   UNL     1       0.367  12.212  19.300  0.00  0.00    +0.000 OA
ATOM     15  O   UNL     1      -0.792  10.917  20.919  0.00  0.00    +0.000 OA
ENDBRANCH   6  13
ENDBRANCH   1   9
BRANCH   5  16
ATOM     16  C   UNL     1       2.765   4.470  19.145  0.00  0.00    +0.000 A 
ATOM     17  C   UNL     1       1.894   3.832  18.241  0.00  0.00    +0.000 A 
ATOM     18  C   UNL     1       0.838   3.042  18.702  0.00  0.00    +0.000 A 
ATOM     19  C   UNL     1       0.635   2.872  20.071  0.00  0.00    +0.000 A 
ATOM     20  C   UNL     1       1.491   3.487  20.984  0.00  0.00    +0.000 A 
ATOM     21  C   UNL     1       2.547   4.285  20.528  0.00  0.00    +0.000 A 
ENDBRANCH   5  16
BRANCH   3  22
ATOM     22  C   UNL     1       7.180   6.087  17.256  0.00  0.00    +0.000 C 
ATOM     23  F   UNL     1       7.250   5.400  16.059  0.00  0.00    +0.000 F 
ATOM     24  F   UNL     1       7.549   7.403  17.046  0.00  0.00    +0.000 F 
ATOM     25  F   UNL     1       8.048   5.506  18.161  0.00  0.00    +0.000 F 
ENDBRANCH   3  22
BRANCH   4  26
ATOM     26  N   UNL     1       5.662   3.613  18.315  0.00  0.00    +0.000 N 
ATOM     27  H   UNL     1       5.039   2.802  18.219  0.00  0.00    +0.000 HD
ATOM     28  H   UNL     1       6.652   3.425  18.518  0.00  0.00    +0.000 HD
ENDBRANCH   4  26
TORSDOF 5
ENDMDL
MODEL 8
REMARK VINA RESULT:      -8.8      4.307      6.303
REMARK  Name = 
REMARK  6 active torsions:
REMARK  status: ('A' for Active; 'I' for Inactive)
REMARK    1  A    between atoms: C_1  and  S_2
REMARK    2  A    between atoms: S_2  and  C_5
REMARK    3  A    between atoms: C_8  and  N_9
REMARK    4  A    between atoms: C_11  and  C_12
REMARK    5  A    between atoms: C_16  and  N_17
REMARK    6  A    between atoms: C_18  and  C_19
REMARK                            x       y       z     vdW  Elec       q    Type
REMARK                         _______ _______ _______ _____ _____    ______ ____
ROOT
ATOM      1  N   UNL     1       3.808   6.703  18.379  0.00  0.00    +0.000 N 
ATOM      2  N   UNL     1       4.959   7.106  17.856  0.00  0.00    +0.000 NA
ATOM      3  C   UNL     1       5.795   6.050  17.803  0.00  0.00    +0.000 A 
ATOM      4  C   UNL     1       5.147   4.936  18.288  0.00  0.00    +0.000 A 
ATOM      5  C   UNL     1       3.875   5.359  18.646  0.00  0.00    +0.000 A 
ENDROOT
BRANCH   1   9
ATOM      6  C   UNL     1       0.718   9.508  19.167  0.00  0.00    +0.000 A 
ATOM      7  C   UNL     1       1.146   8.651  20.191  0.00  0.00    +0.000 A 
ATOM      8  C   UNL     1       2.136   7.692  19.926  0.00  0.00    +0.000 A 
ATOM      9  C   UNL     1       2.718   7.611  18.643  0.00  0.00    +0.000 A 
ATOM     10  C   UNL     1       2.220   8.437  17.622  0.00  0.00    +0.000 A 
ATOM     11  C   UNL     1       1.238   9.378  17.883  0.00  0.00    +0.000 A 
BRANCH   6  13
ATOM     12  C   UNL     1      -0.708  11.289  21.169  0.00  0.00    +0.000 C 
ATOM     13  S   UNL     1      -0.388  10.876  19.434  0.00  0.00    +0.000 S 
ATOM     14  O   UNL     1      -1.718  10.643  18.694  0.00  0.00    +0.000 OA
ATOM     15  O   UNL     1       0.151  12.110  18.695  0.00  0.00    +0.000 OA
ENDBRANCH   6  13
ENDBRANCH   1   9
BRANCH   5  16
ATOM     16  C   UNL     1       2.774   4.470  19.137  0.00  0.00    +0.000 A 
ATOM     17  C   UNL     1       1.903   3.836  18.229  0.00  0.00    +0.000 A 
ATOM     18  C   UNL     1       0.847   3.044  18.685  0.00  0.00    +0.000 A 
ATOM     19  C   UNL     1       0.642   2.868  20.053  0.00  0.00    +0.000 A 
ATOM     20  C   UNL     1       1.497   3.479  20.970  0.00  0.00    +0.000 A 
ATOM     21  C   UNL     1       2.554   4.279  20.519  0.00  0.00    +0.000 A 
ENDBRANCH   5  16
BRANCH   3  22
ATOM     22  C   UNL     1       7.192   6.096  17.264  0.00  0.00    +0.000 C 
ATOM     23  F   UNL     1       7.588   7.405  17.067  0.00  0.00    +0.000 F 
ATOM     24  F   UNL     1       8.050   5.492  18.165  0.00  0.00    +0.000 F 
ATOM     25  F   UNL     1       7.245   5.421  16.058  0.00  0.00    +0.000 F 
ENDBRANCH   3  22
BRANCH   4  26
ATOM     26  N   UNL     1       5.673   3.618  18.312  0.00  0.00    +0.000 N 
ATOM     27  H   UNL     1       6.522   3.405  18.850  0.00  0.00    +0.000 HD
ATOM     28  H   UNL     1       5.283   2.865  17.731  0.00  0.00    +0.000 HD
ENDBRANCH   4  26
TORSDOF 5
ENDMDL
MODEL 9
REMARK VINA RESULT:      -8.7      3.562      5.769
REMARK  Name = 
REMARK  6 active torsions:
REMARK  status: ('A' for Active; 'I' for Inactive)
REMARK    1  A    between atoms: C_1  and  S_2
REMARK    2  A    between atoms: S_2  and  C_5
REMARK    3  A    between atoms: C_8  and  N_9
REMARK    4  A    between atoms: C_11  and  C_12
REMARK    5  A    between atoms: C_16  and  N_17
REMARK    6  A    between atoms: C_18  and  C_19
REMARK                            x       y       z     vdW  Elec       q    Type
REMARK                         _______ _______ _______ _____ _____    ______ ____
ROOT
ATOM      1  N   UNL     1       3.494   6.084  17.830  0.00  0.00    +0.000 N 
ATOM      2  N   UNL     1       4.292   6.295  16.792  0.00  0.00    +0.000 NA
ATOM      3  C   UNL     1       4.867   5.124  16.452  0.00  0.00    +0.000 A 
ATOM      4  C   UNL     1       4.403   4.133  17.288  0.00  0.00    +0.000 A 
ATOM      5  C   UNL     1       3.519   4.753  18.161  0.00  0.00    +0.000 A 
ENDROOT
BRANCH   1   9
ATOM      6  C   UNL     1       1.247   9.130  19.755  0.00  0.00    +0.000 A 
ATOM      7  C   UNL     1       1.619   9.295  18.413  0.00  0.00    +0.000 A 
ATOM      8  C   UNL     1       2.399   8.312  17.783  0.00  0.00    +0.000 A 
ATOM      9  C   UNL     1       2.781   7.151  18.488  0.00  0.00    +0.000 A 
ATOM     10  C   UNL     1       2.450   7.049  19.850  0.00  0.00    +0.000 A 
ATOM     11  C   UNL     1       1.686   8.022  20.472  0.00  0.00    +0.000 A 
BRANCH   6  13
ATOM     12  C   UNL     1      -1.136  10.999  19.540  0.00  0.00    +0.000 C 
ATOM     13  S   UNL     1       0.110  10.212  20.595  0.00  0.00    +0.000 S 
ATOM     14  O   UNL     1       0.878  11.282  21.392  0.00  0.00    +0.000 OA
ATOM     15  O   UNL     1      -0.579   9.436  21.727  0.00  0.00    +0.000 OA
ENDBRANCH   6  13
ENDBRANCH   1   9
BRANCH   5  16
ATOM     16  C   UNL     1       2.691   4.052  19.195  0.00  0.00    +0.000 A 
ATOM     17  C   UNL     1       1.334   3.765  18.953  0.00  0.00    +0.000 A 
ATOM     18  C   UNL     1       0.546   3.154  19.933  0.00  0.00    +0.000 A 
ATOM     19  C   UNL     1       1.100   2.817  21.167  0.00  0.00    +0.000 A 
ATOM     20  C   UNL     1       2.444   3.085  21.425  0.00  0.00    +0.000 A 
ATOM     21  C   UNL     1       3.236   3.702  20.450  0.00  0.00    +0.000 A 
ENDBRANCH   5  16
BRANCH   3  22
ATOM     22  C   UNL     1       5.828   4.945  15.317  0.00  0.00    +0.000 C 
ATOM     23  F   UNL     1       5.342   4.013  14.420  0.00  0.00    +0.000 F 
ATOM     24  F   UNL     1       6.000   6.154  14.668  0.00  0.00    +0.000 F 
ATOM     25  F   UNL     1       7.047   4.509  15.805  0.00  0.00    +0.000 F 
ENDBRANCH   3  22
BRANCH   4  26
ATOM     26  N   UNL     1       4.714   2.752  17.187  0.00  0.00    +0.000 N 
ATOM     27  H   UNL     1       4.596   2.130  17.996  0.00  0.00    +0.000 HD
ATOM     28  H   UNL     1       5.146   2.351  16.345  0.00  0.00    +0.000 HD
ENDBRANCH   4  26
TORSDOF 5
ENDMDL
