MODEL 1
REMARK VINA RESULT:      -8.1      0.000      0.000
REMARK  Name = 
REMARK  10 active torsions:
REMARK  status: ('A' for Active; 'I' for Inactive)
REMARK    1  A    between atoms: C_1  and  O_2
REMARK    2  A    between atoms: O_2  and  C_3
REMARK    3  A    between atoms: C_9  and  C_10
REMARK    4  A    between atoms: N_12  and  C_13
REMARK    5  A    between atoms: C_15  and  O_16
REMARK    6  A    between atoms: O_16  and  C_17
REMARK    7  A    between atoms: C_18  and  O_19
REMARK    8  A    between atoms: O_19  and  C_20
REMARK    9  A    between atoms: C_21  and  O_22
REMARK   10  A    between atoms: O_22  and  C_23
REMARK                            x       y       z     vdW  Elec       q    Type
REMARK                         _______ _______ _______ _____ _____    ______ ____
ROOT
ATOM      1  C   UNL     1       3.857   5.488  18.179  0.00  0.00    +0.000 A 
ATOM      2  N   UNL     1       3.492   6.763  18.400  0.00  0.00    +0.000 NA
ATOM      3  N   UNL     1       2.485   6.695  19.315  0.00  0.00    +0.000 N 
ATOM      4  C   UNL     1       2.249   5.392  19.730  0.00  0.00    +0.000 A 
ATOM      5  N   UNL     1       1.396   4.975  20.697  0.00  0.00    +0.000 NA
ATOM      6  C   UNL     1       1.404   3.645  20.911  0.00  0.00    +0.000 A 
ATOM      7  C   UNL     1       2.168   2.730  20.209  0.00  0.00    +0.000 A 
ATOM      8  C   UNL     1       3.013   3.195  19.204  0.00  0.00    +0.000 A 
ATOM      9  C   UNL     1       3.094   4.584  18.981  0.00  0.00    +0.000 A 
ENDROOT
BRANCH   1  16
ATOM     10  C   UNL     1       6.250   4.866  17.643  0.00  0.00    +0.000 A 
ATOM     11  C   UNL     1       7.243   4.610  16.691  0.00  0.00    +0.000 A 
ATOM     12  C   UNL     1       6.948   4.718  15.337  0.00  0.00    +0.000 A 
ATOM     13  F   UNL     1       7.911   4.482  14.435  0.00  0.00    +0.000 F 
ATOM     14  C   UNL     1       5.679   5.070  14.903  0.00  0.00    +0.000 A 
ATOM     15  C   UNL     1       4.676   5.306  15.846  0.00  0.00    +0.000 A 
ATOM     16  C   UNL     1       4.941   5.198  17.226  0.00  0.00    +0.000 A 
BRANCH  10  18
ATOM     17  C   UNL     1       7.454   5.657  19.556  0.00  0.00    +0.000 C 
ATOM     18  O   UNL     1       6.476   4.798  18.991  0.00  0.00    +0.000 OA
ENDBRANCH  10  18
ENDBRANCH   1  16
BRANCH   3  19
ATOM     19  C   UNL     1       1.811   7.881  19.729  0.00  0.00    +0.000 A 
ATOM     20  C   UNL     1       1.223   8.721  18.784  0.00  0.00    +0.000 A 
ATOM     21  C   UNL     1       0.564   9.889  19.172  0.00  0.00    +0.000 A 
ATOM     22  C   UNL     1       0.452  10.210  20.542  0.00  0.00    +0.000 A 
ATOM     23  C   UNL     1       1.061   9.375  21.507  0.00  0.00    +0.000 A 
ATOM     24  C   UNL     1       1.748   8.221  21.087  0.00  0.00    +0.000 A 
BRANCH  21  25
ATOM     25  O   UNL     1      -0.034  10.737  18.268  0.00  0.00    +0.000 OA
ATOM     26  C   UNL     1      -1.259  10.288  17.693  0.00  0.00    +0.000 C 
ENDBRANCH  21  25
BRANCH  22  27
ATOM     27  O   UNL     1      -0.176  11.408  20.801  0.00  0.00    +0.000 OA
ATOM     28  C   UNL     1       0.639  12.560  20.957  0.00  0.00    +0.000 C 
ENDBRANCH  22  27
BRANCH  23  29
ATOM     29  O   UNL     1       0.978   9.751  22.822  0.00  0.00    +0.000 OA
ATOM     30  C   UNL     1      -0.234   9.507  23.523  0.00  0.00    +0.000 C 
ENDBRANCH  23  29
ENDBRANCH   3  19
TORSDOF 6
ENDMDL
MODEL 2
REMARK VINA RESULT:      -8.0      0.166      2.165
REMARK  Name = 
REMARK  10 active torsions:
REMARK  status: ('A' for Active; 'I' for Inactive)
REMARK    1  A    between atoms: C_1  and  O_2
REMARK    2  A    between atoms: O_2  and  C_3
REMARK    3  A    between atoms: C_9  and  C_10
REMARK    4  A    between atoms: N_12  and  C_13
REMARK    5  A    between atoms: C_15  and  O_16
REMARK    6  A    between atoms: O_16  and  C_17
REMARK    7  A    between atoms: C_18  and  O_19
REMARK    8  A    between atoms: O_19  and  C_20
REMARK    9  A    between atoms: C_21  and  O_22
REMARK   10  A    between atoms: O_22  and  C_23
REMARK                            x       y       z     vdW  Elec       q    Type
REMARK                         _______ _______ _______ _____ _____    ______ ____
ROOT
ATOM      1  C   UNL     1       3.914   5.551  18.213  0.00  0.00    +0.000 A 
ATOM      2  N   UNL     1       3.508   6.822  18.368  0.00  0.00    +0.000 NA
ATOM      3  N   UNL     1       2.530   6.775  19.314  0.00  0.00    +0.000 N 
ATOM      4  C   UNL     1       2.353   5.491  19.813  0.00  0.00    +0.000 A 
ATOM      5  N   UNL     1       1.544   5.104  20.829  0.00  0.00    +0.000 NA
ATOM      6  C   UNL     1       1.607   3.791  21.121  0.00  0.00    +0.000 A 
ATOM      7  C   UNL     1       2.384   2.863  20.452  0.00  0.00    +0.000 A 
ATOM      8  C   UNL     1       3.184   3.295  19.397  0.00  0.00    +0.000 A 
ATOM      9  C   UNL     1       3.207   4.670  19.090  0.00  0.00    +0.000 A 
ENDROOT
BRANCH   1  16
ATOM     10  C   UNL     1       6.296   4.911  17.648  0.00  0.00    +0.000 A 
ATOM     11  C   UNL     1       7.273   4.636  16.685  0.00  0.00    +0.000 A 
ATOM     12  C   UNL     1       6.956   4.724  15.334  0.00  0.00    +0.000 A 
ATOM     13  F   UNL     1       7.903   4.471  14.420  0.00  0.00    +0.000 F 
ATOM     14  C   UNL     1       5.681   5.075  14.915  0.00  0.00    +0.000 A 
ATOM     15  C   UNL     1       4.694   5.330  15.869  0.00  0.00    +0.000 A 
ATOM     16  C   UNL     1       4.981   5.242  17.247  0.00  0.00    +0.000 A 
BRANCH  10  18
ATOM     17  C   UNL     1       7.574   5.684  19.520  0.00  0.00    +0.000 C 
ATOM     18  O   UNL     1       6.543   4.863  18.994  0.00  0.00    +0.000 OA
ENDBRANCH  10  18
ENDBRANCH   1  16
BRANCH   3  19
ATOM     19  C   UNL     1       1.824   7.960  19.677  0.00  0.00    +0.000 A 
ATOM     20  C   UNL     1       1.734   8.341  21.016  0.00  0.00    +0.000 A 
ATOM     21  C   UNL     1       1.043   9.495  21.389  0.00  0.00    +0.000 A 
ATOM     22  C   UNL     1       0.459  10.314  20.399  0.00  0.00    +0.000 A 
ATOM     23  C   UNL     1       0.529   9.927  19.041  0.00  0.00    +0.000 A 
ATOM     24  C   UNL     1       1.202   8.742  18.695  0.00  0.00    +0.000 A 
BRANCH  21  25
ATOM     25  O   UNL     1       0.940   9.905  22.698  0.00  0.00    +0.000 OA
ATOM     26  C   UNL     1      -0.168   9.394  23.437  0.00  0.00    +0.000 C 
ENDBRANCH  21  25
BRANCH  22  27
ATOM     27  O   UNL     1      -0.236  11.398  20.889  0.00  0.00    +0.000 OA
ATOM     28  C   UNL     1       0.399  12.667  20.834  0.00  0.00    +0.000 C 
ENDBRANCH  22  27
BRANCH  23  29
ATOM     29  O   UNL     1      -0.100  10.720  18.117  0.00  0.00    +0.000 OA
ATOM     30  C   UNL     1      -1.424  10.384  17.724  0.00  0.00    +0.000 C 
ENDBRANCH  23  29
ENDBRANCH   3  19
TORSDOF 6
ENDMDL
MODEL 3
REMARK VINA RESULT:      -7.7      0.898      2.226
REMARK  Name = 
REMARK  10 active torsions:
REMARK  status: ('A' for Active; 'I' for Inactive)
REMARK    1  A    between atoms: C_1  and  O_2
REMARK    2  A    between atoms: O_2  and  C_3
REMARK    3  A    between atoms: C_9  and  C_10
REMARK    4  A    between atoms: N_12  and  C_13
REMARK    5  A    between atoms: C_15  and  O_16
REMARK    6  A    between atoms: O_16  and  C_17
REMARK    7  A    between atoms: C_18  and  O_19
REMARK    8  A    between atoms: O_19  and  C_20
REMARK    9  A    between atoms: C_21  and  O_22
REMARK   10  A    between atoms: O_22  and  C_23
REMARK                            x       y       z     vdW  Elec       q    Type
REMARK                         _______ _______ _______ _____ _____    ______ ____
ROOT
ATOM      1  C   UNL     1       3.979   5.580  18.171  0.00  0.00    +0.000 A 
ATOM      2  N   UNL     1       3.464   6.816  18.282  0.00  0.00    +0.000 NA
ATOM      3  N   UNL     1       2.579   6.745  19.315  0.00  0.00    +0.000 N 
ATOM      4  C   UNL     1       2.574   5.490  19.907  0.00  0.00    +0.000 A 
ATOM      5  N   UNL     1       1.895   5.103  21.015  0.00  0.00    +0.000 NA
ATOM      6  C   UNL     1       2.113   3.826  21.382  0.00  0.00    +0.000 A 
ATOM      7  C   UNL     1       2.919   2.928  20.705  0.00  0.00    +0.000 A 
ATOM      8  C   UNL     1       3.579   3.357  19.557  0.00  0.00    +0.000 A 
ATOM      9  C   UNL     1       3.440   4.702  19.162  0.00  0.00    +0.000 A 
ENDROOT
BRANCH   1  16
ATOM     10  C   UNL     1       6.337   5.699  17.262  0.00  0.00    +0.000 A 
ATOM     11  C   UNL     1       7.249   5.418  16.238  0.00  0.00    +0.000 A 
ATOM     12  C   UNL     1       6.814   4.781  15.080  0.00  0.00    +0.000 A 
ATOM     13  F   UNL     1       7.694   4.528  14.102  0.00  0.00    +0.000 F 
ATOM     14  C   UNL     1       5.488   4.409  14.918  0.00  0.00    +0.000 A 
ATOM     15  C   UNL     1       4.576   4.666  15.944  0.00  0.00    +0.000 A 
ATOM     16  C   UNL     1       4.986   5.303  17.133  0.00  0.00    +0.000 A 
BRANCH  10  18
ATOM     17  C   UNL     1       7.684   5.747  19.242  0.00  0.00    +0.000 C 
ATOM     18  O   UNL     1       6.691   6.340  18.418  0.00  0.00    +0.000 OA
ENDBRANCH  10  18
ENDBRANCH   1  16
BRANCH   3  19
ATOM     19  C   UNL     1       1.793   7.882  19.665  0.00  0.00    +0.000 A 
ATOM     20  C   UNL     1       1.036   7.878  20.837  0.00  0.00    +0.000 A 
ATOM     21  C   UNL     1       0.257   8.981  21.192  0.00  0.00    +0.000 A 
ATOM     22  C   UNL     1       0.262  10.135  20.380  0.00  0.00    +0.000 A 
ATOM     23  C   UNL     1       1.011  10.142  19.181  0.00  0.00    +0.000 A 
ATOM     24  C   UNL     1       1.762   9.006  18.829  0.00  0.00    +0.000 A 
BRANCH  21  25
ATOM     25  O   UNL     1      -0.496   9.015  22.344  0.00  0.00    +0.000 OA
ATOM     26  C   UNL     1       0.192   9.374  23.540  0.00  0.00    +0.000 C 
ENDBRANCH  21  25
BRANCH  22  27
ATOM     27  O   UNL     1      -0.580  11.138  20.805  0.00  0.00    +0.000 OA
ATOM     28  C   UNL     1       0.008  12.270  21.432  0.00  0.00    +0.000 C 
ENDBRANCH  22  27
BRANCH  23  29
ATOM     29  O   UNL     1       0.945  11.261  18.392  0.00  0.00    +0.000 OA
ATOM     30  C   UNL     1       2.045  12.160  18.395  0.00  0.00    +0.000 C 
ENDBRANCH  23  29
ENDBRANCH   3  19
TORSDOF 6
ENDMDL
MODEL 4
REMARK VINA RESULT:      -7.2      3.057      7.739
REMARK  Name = 
REMARK  10 active torsions:
REMARK  status: ('A' for Active; 'I' for Inactive)
REMARK    1  A    between atoms: C_1  and  O_2
REMARK    2  A    between atoms: O_2  and  C_3
REMARK    3  A    between atoms: C_9  and  C_10
REMARK    4  A    between atoms: N_12  and  C_13
REMARK    5  A    between atoms: C_15  and  O_16
REMARK    6  A    between atoms: O_16  and  C_17
REMARK    7  A    between atoms: C_18  and  O_19
REMARK    8  A    between atoms: O_19  and  C_20
REMARK    9  A    between atoms: C_21  and  O_22
REMARK   10  A    between atoms: O_22  and  C_23
REMARK                            x       y       z     vdW  Elec       q    Type
REMARK                         _______ _______ _______ _____ _____    ______ ____
ROOT
ATOM      1  C   UNL     1       2.218   6.765  19.657  0.00  0.00    +0.000 A 
ATOM      2  N   UNL     1       3.197   6.971  18.759  0.00  0.00    +0.000 NA
ATOM      3  N   UNL     1       3.602   5.729  18.376  0.00  0.00    +0.000 N 
ATOM      4  C   UNL     1       2.844   4.731  18.972  0.00  0.00    +0.000 A 
ATOM      5  N   UNL     1       2.906   3.397  18.739  0.00  0.00    +0.000 NA
ATOM      6  C   UNL     1       2.017   2.668  19.440  0.00  0.00    +0.000 A 
ATOM      7  C   UNL     1       1.120   3.177  20.361  0.00  0.00    +0.000 A 
ATOM      8  C   UNL     1       1.104   4.550  20.592  0.00  0.00    +0.000 A 
ATOM      9  C   UNL     1       1.968   5.369  19.838  0.00  0.00    +0.000 A 
ENDROOT
BRANCH   1  16
ATOM     10  C   UNL     1       1.270   9.109  19.572  0.00  0.00    +0.000 A 
ATOM     11  C   UNL     1       0.641  10.178  20.220  0.00  0.00    +0.000 A 
ATOM     12  C   UNL     1       0.325  10.078  21.570  0.00  0.00    +0.000 A 
ATOM     13  F   UNL     1      -0.266  11.113  22.183  0.00  0.00    +0.000 F 
ATOM     14  C   UNL     1       0.616   8.932  22.295  0.00  0.00    +0.000 A 
ATOM     15  C   UNL     1       1.223   7.852  21.651  0.00  0.00    +0.000 A 
ATOM     16  C   UNL     1       1.550   7.919  20.281  0.00  0.00    +0.000 A 
BRANCH  10  18
ATOM     17  C   UNL     1       2.164  10.352  17.730  0.00  0.00    +0.000 C 
ATOM     18  O   UNL     1       1.627   9.146  18.251  0.00  0.00    +0.000 OA
ENDBRANCH  10  18
ENDBRANCH   1  16
BRANCH   3  19
ATOM     19  C   UNL     1       4.690   5.578  17.467  0.00  0.00    +0.000 A 
ATOM     20  C   UNL     1       5.770   6.459  17.512  0.00  0.00    +0.000 A 
ATOM     21  C   UNL     1       6.841   6.328  16.626  0.00  0.00    +0.000 A 
ATOM     22  C   UNL     1       6.858   5.266  15.697  0.00  0.00    +0.000 A 
ATOM     23  C   UNL     1       5.760   4.378  15.631  0.00  0.00    +0.000 A 
ATOM     24  C   UNL     1       4.678   4.552  16.512  0.00  0.00    +0.000 A 
BRANCH  21  25
ATOM     25  O   UNL     1       7.926   7.175  16.646  0.00  0.00    +0.000 OA
ATOM     26  C   UNL     1       7.909   8.202  17.636  0.00  0.00    +0.000 C 
ENDBRANCH  21  25
BRANCH  22  27
ATOM     27  O   UNL     1       7.941   5.267  14.845  0.00  0.00    +0.000 OA
ATOM     28  C   UNL     1       7.711   5.615  13.487  0.00  0.00    +0.000 C 
ENDBRANCH  22  27
BRANCH  23  29
ATOM     29  O   UNL     1       5.789   3.395  14.676  0.00  0.00    +0.000 OA
ATOM     30  C   UNL     1       5.201   3.662  13.410  0.00  0.00    +0.000 C 
ENDBRANCH  23  29
ENDBRANCH   3  19
TORSDOF 6
ENDMDL
MODEL 5
REMARK VINA RESULT:      -7.1      3.057      7.590
REMARK  Name = 
REMARK  10 active torsions:
REMARK  status: ('A' for Active; 'I' for Inactive)
REMARK    1  A    between atoms: C_1  and  O_2
REMARK    2  A    between atoms: O_2  and  C_3
REMARK    3  A    between atoms: C_9  and  C_10
REMARK    4  A    between atoms: N_12  and  C_13
REMARK    5  A    between atoms: C_15  and  O_16
REMARK    6  A    between atoms: O_16  and  C_17
REMARK    7  A    between atoms: C_18  and  O_19
REMARK    8  A    between atoms: O_19  and  C_20
REMARK    9  A    between atoms: C_21  and  O_22
REMARK   10  A    between atoms: O_22  and  C_23
REMARK                            x       y       z     vdW  Elec       q    Type
REMARK                         _______ _______ _______ _____ _____    ______ ____
ROOT
ATOM      1  C   UNL     1       2.190   6.759  19.662  0.00  0.00    +0.000 A 
ATOM      2  N   UNL     1       3.177   6.977  18.777  0.00  0.00    +0.000 NA
ATOM      3  N   UNL     1       3.602   5.739  18.399  0.00  0.00    +0.000 N 
ATOM      4  C   UNL     1       2.849   4.732  18.986  0.00  0.00    +0.000 A 
ATOM      5  N   UNL     1       2.929   3.399  18.755  0.00  0.00    +0.000 NA
ATOM      6  C   UNL     1       2.041   2.660  19.445  0.00  0.00    +0.000 A 
ATOM      7  C   UNL     1       1.126   3.158  20.355  0.00  0.00    +0.000 A 
ATOM      8  C   UNL     1       1.090   4.531  20.584  0.00  0.00    +0.000 A 
ATOM      9  C   UNL     1       1.954   5.361  19.841  0.00  0.00    +0.000 A 
ENDROOT
BRANCH   1  16
ATOM     10  C   UNL     1       1.150   9.063  19.545  0.00  0.00    +0.000 A 
ATOM     11  C   UNL     1       0.504  10.126  20.186  0.00  0.00    +0.000 A 
ATOM     12  C   UNL     1       0.239  10.054  21.549  0.00  0.00    +0.000 A 
ATOM     13  F   UNL     1      -0.370  11.084  22.153  0.00  0.00    +0.000 F 
ATOM     14  C   UNL     1       0.598   8.941  22.294  0.00  0.00    +0.000 A 
ATOM     15  C   UNL     1       1.224   7.867  21.659  0.00  0.00    +0.000 A 
ATOM     16  C   UNL     1       1.500   7.905  20.277  0.00  0.00    +0.000 A 
BRANCH  10  18
ATOM     17  C   UNL     1       2.089  10.227  17.675  0.00  0.00    +0.000 C 
ATOM     18  O   UNL     1       1.459   9.074  18.212  0.00  0.00    +0.000 OA
ENDBRANCH  10  18
ENDBRANCH   1  16
BRANCH   3  19
ATOM     19  C   UNL     1       4.703   5.601  17.504  0.00  0.00    +0.000 A 
ATOM     20  C   UNL     1       4.715   4.575  16.559  0.00  0.00    +0.000 A 
ATOM     21  C   UNL     1       5.787   4.422  15.679  0.00  0.00    +0.000 A 
ATOM     22  C   UNL     1       6.860   5.338  15.713  0.00  0.00    +0.000 A 
ATOM     23  C   UNL     1       6.867   6.370  16.680  0.00  0.00    +0.000 A 
ATOM     24  C   UNL     1       5.789   6.483  17.577  0.00  0.00    +0.000 A 
BRANCH  21  25
ATOM     25  O   UNL     1       5.829   3.427  14.729  0.00  0.00    +0.000 OA
ATOM     26  C   UNL     1       5.150   3.692  13.504  0.00  0.00    +0.000 C 
ENDBRANCH  21  25
BRANCH  22  27
ATOM     27  O   UNL     1       7.881   5.059  14.832  0.00  0.00    +0.000 OA
ATOM     28  C   UNL     1       7.835   5.675  13.553  0.00  0.00    +0.000 C 
ENDBRANCH  22  27
BRANCH  23  29
ATOM     29  O   UNL     1       7.954   7.204  16.717  0.00  0.00    +0.000 OA
ATOM     30  C   UNL     1       7.928   8.312  17.608  0.00  0.00    +0.000 C 
ENDBRANCH  23  29
ENDBRANCH   3  19
TORSDOF 6
ENDMDL
MODEL 6
REMARK VINA RESULT:      -6.8      4.401      7.293
REMARK  Name = 
REMARK  10 active torsions:
REMARK  status: ('A' for Active; 'I' for Inactive)
REMARK    1  A    between atoms: C_1  and  O_2
REMARK    2  A    between atoms: O_2  and  C_3
REMARK    3  A    between atoms: C_9  and  C_10
REMARK    4  A    between atoms: N_12  and  C_13
REMARK    5  A    between atoms: C_15  and  O_16
REMARK    6  A    between atoms: O_16  and  C_17
REMARK    7  A    between atoms: C_18  and  O_19
REMARK    8  A    between atoms: O_19  and  C_20
REMARK    9  A    between atoms: C_21  and  O_22
REMARK   10  A    between atoms: O_22  and  C_23
REMARK                            x       y       z     vdW  Elec       q    Type
REMARK                         _______ _______ _______ _____ _____    ______ ____
ROOT
ATOM      1  C   UNL     1       0.287  10.806  19.287  0.00  0.00    +0.000 A 
ATOM      2  N   UNL     1      -1.013  10.734  19.622  0.00  0.00    +0.000 NA
ATOM      3  N   UNL     1      -1.436  12.025  19.707  0.00  0.00    +0.000 N 
ATOM      4  C   UNL     1      -0.433  12.922  19.364  0.00  0.00    +0.000 A 
ATOM      5  N   UNL     1      -0.536  14.268  19.241  0.00  0.00    +0.000 NA
ATOM      6  C   UNL     1       0.600  14.880  18.856  0.00  0.00    +0.000 A 
ATOM      7  C   UNL     1       1.808  14.246  18.628  0.00  0.00    +0.000 A 
ATOM      8  C   UNL     1       1.880  12.865  18.789  0.00  0.00    +0.000 A 
ATOM      9  C   UNL     1       0.705  12.164  19.127  0.00  0.00    +0.000 A 
ENDROOT
BRANCH   1  16
ATOM     10  C   UNL     1       1.343   8.689  20.182  0.00  0.00    +0.000 A 
ATOM     11  C   UNL     1       2.094   7.529  19.956  0.00  0.00    +0.000 A 
ATOM     12  C   UNL     1       2.591   7.264  18.686  0.00  0.00    +0.000 A 
ATOM     13  F   UNL     1       3.320   6.156  18.485  0.00  0.00    +0.000 F 
ATOM     14  C   UNL     1       2.354   8.125  17.625  0.00  0.00    +0.000 A 
ATOM     15  C   UNL     1       1.587   9.273  17.836  0.00  0.00    +0.000 A 
ATOM     16  C   UNL     1       1.062   9.567  19.111  0.00  0.00    +0.000 A 
BRANCH  10  18
ATOM     17  C   UNL     1      -0.310   8.335  21.878  0.00  0.00    +0.000 C 
ATOM     18  O   UNL     1       0.840   9.023  21.410  0.00  0.00    +0.000 OA
ENDBRANCH  10  18
ENDBRANCH   1  16
BRANCH   3  19
ATOM     19  C   UNL     1      -2.770  12.318  20.114  0.00  0.00    +0.000 A 
ATOM     20  C   UNL     1      -3.821  12.215  19.203  0.00  0.00    +0.000 A 
ATOM     21  C   UNL     1      -5.133  12.503  19.584  0.00  0.00    +0.000 A 
ATOM     22  C   UNL     1      -5.413  12.864  20.919  0.00  0.00    +0.000 A 
ATOM     23  C   UNL     1      -4.353  12.989  21.846  0.00  0.00    +0.000 A 
ATOM     24  C   UNL     1      -3.036  12.726  21.428  0.00  0.00    +0.000 A 
BRANCH  21  25
ATOM     25  O   UNL     1      -6.195  12.405  18.714  0.00  0.00    +0.000 OA
ATOM     26  C   UNL     1      -6.560  11.088  18.307  0.00  0.00    +0.000 C 
ENDBRANCH  21  25
BRANCH  22  27
ATOM     27  O   UNL     1      -6.733  13.170  21.165  0.00  0.00    +0.000 OA
ATOM     28  C   UNL     1      -7.528  12.187  21.814  0.00  0.00    +0.000 C 
ENDBRANCH  22  27
BRANCH  23  29
ATOM     29  O   UNL     1      -4.659  13.398  23.118  0.00  0.00    +0.000 OA
ATOM     30  C   UNL     1      -4.221  12.601  24.210  0.00  0.00    +0.000 C 
ENDBRANCH  23  29
ENDBRANCH   3  19
TORSDOF 6
ENDMDL
MODEL 7
REMARK VINA RESULT:      -6.7      4.356      7.544
REMARK  Name = 
REMARK  10 active torsions:
REMARK  status: ('A' for Active; 'I' for Inactive)
REMARK    1  A    between atoms: C_1  and  O_2
REMARK    2  A    between atoms: O_2  and  C_3
REMARK    3  A    between atoms: C_9  and  C_10
REMARK    4  A    between atoms: N_12  and  C_13
REMARK    5  A    between atoms: C_15  and  O_16
REMARK    6  A    between atoms: O_16  and  C_17
REMARK    7  A    between atoms: C_18  and  O_19
REMARK    8  A    between atoms: O_19  and  C_20
REMARK    9  A    between atoms: C_21  and  O_22
REMARK   10  A    between atoms: O_22  and  C_23
REMARK                            x       y       z     vdW  Elec       q    Type
REMARK                         _______ _______ _______ _____ _____    ______ ____
ROOT
ATOM      1  C   UNL     1       0.336  10.809  19.316  0.00  0.00    +0.000 A 
ATOM      2  N   UNL     1      -0.969  10.719  19.628  0.00  0.00    +0.000 NA
ATOM      3  N   UNL     1      -1.407  12.004  19.718  0.00  0.00    +0.000 N 
ATOM      4  C   UNL     1      -0.409  12.915  19.401  0.00  0.00    +0.000 A 
ATOM      5  N   UNL     1      -0.525  14.261  19.289  0.00  0.00    +0.000 NA
ATOM      6  C   UNL     1       0.610  14.889  18.930  0.00  0.00    +0.000 A 
ATOM      7  C   UNL     1       1.829  14.271  18.715  0.00  0.00    +0.000 A 
ATOM      8  C   UNL     1       1.914  12.889  18.864  0.00  0.00    +0.000 A 
ATOM      9  C   UNL     1       0.741  12.173  19.176  0.00  0.00    +0.000 A 
ENDROOT
BRANCH   1  16
ATOM     10  C   UNL     1       1.261   8.611  20.161  0.00  0.00    +0.000 A 
ATOM     11  C   UNL     1       2.035   7.466  19.941  0.00  0.00    +0.000 A 
ATOM     12  C   UNL     1       2.700   7.303  18.731  0.00  0.00    +0.000 A 
ATOM     13  F   UNL     1       3.448   6.208  18.537  0.00  0.00    +0.000 F 
ATOM     14  C   UNL     1       2.608   8.254  17.725  0.00  0.00    +0.000 A 
ATOM     15  C   UNL     1       1.820   9.388  17.928  0.00  0.00    +0.000 A 
ATOM     16  C   UNL     1       1.128   9.580  19.141  0.00  0.00    +0.000 A 
BRANCH  10  18
ATOM     17  C   UNL     1       1.353   9.210  22.478  0.00  0.00    +0.000 C 
ATOM     18  O   UNL     1       0.596   8.846  21.334  0.00  0.00    +0.000 OA
ENDBRANCH  10  18
ENDBRANCH   1  16
BRANCH   3  19
ATOM     19  C   UNL     1      -2.752  12.278  20.106  0.00  0.00    +0.000 A 
ATOM     20  C   UNL     1      -3.049  12.600  21.430  0.00  0.00    +0.000 A 
ATOM     21  C   UNL     1      -4.360  12.866  21.828  0.00  0.00    +0.000 A 
ATOM     22  C   UNL     1      -5.400  12.851  20.873  0.00  0.00    +0.000 A 
ATOM     23  C   UNL     1      -5.112  12.509  19.532  0.00  0.00    +0.000 A 
ATOM     24  C   UNL     1      -3.787  12.212  19.164  0.00  0.00    +0.000 A 
BRANCH  21  25
ATOM     25  O   UNL     1      -4.689  13.193  23.124  0.00  0.00    +0.000 OA
ATOM     26  C   UNL     1      -3.842  12.668  24.143  0.00  0.00    +0.000 C 
ENDBRANCH  21  25
BRANCH  22  27
ATOM     27  O   UNL     1      -6.656  13.081  21.390  0.00  0.00    +0.000 OA
ATOM     28  C   UNL     1      -7.457  11.951  21.704  0.00  0.00    +0.000 C 
ENDBRANCH  22  27
BRANCH  23  29
ATOM     29  O   UNL     1      -6.158  12.450  18.649  0.00  0.00    +0.000 OA
ATOM     30  C   UNL     1      -6.585  11.175  18.187  0.00  0.00    +0.000 C 
ENDBRANCH  23  29
ENDBRANCH   3  19
TORSDOF 6
ENDMDL
MODEL 8
REMARK VINA RESULT:      -6.7      1.084      1.124
REMARK  Name = 
REMARK  10 active torsions:
REMARK  status: ('A' for Active; 'I' for Inactive)
REMARK    1  A    between atoms: C_1  and  O_2
REMARK    2  A    between atoms: O_2  and  C_3
REMARK    3  A    between atoms: C_9  and  C_10
REMARK    4  A    between atoms: N_12  and  C_13
REMARK    5  A    between atoms: C_15  and  O_16
REMARK    6  A    between atoms: O_16  and  C_17
REMARK    7  A    between atoms: C_18  and  O_19
REMARK    8  A    between atoms: O_19  and  C_20
REMARK    9  A    between atoms: C_21  and  O_22
REMARK   10  A    between atoms: O_22  and  C_23
REMARK                            x       y       z     vdW  Elec       q    Type
REMARK                         _______ _______ _______ _____ _____    ______ ____
ROOT
ATOM      1  C   UNL     1       4.139   5.319  17.474  0.00  0.00    +0.000 A 
ATOM      2  N   UNL     1       3.653   6.545  17.733  0.00  0.00    +0.000 NA
ATOM      3  N   UNL     1       2.780   6.376  18.764  0.00  0.00    +0.000 N 
ATOM      4  C   UNL     1       2.753   5.062  19.210  0.00  0.00    +0.000 A 
ATOM      5  N   UNL     1       2.080   4.566  20.276  0.00  0.00    +0.000 NA
ATOM      6  C   UNL     1       2.272   3.251  20.493  0.00  0.00    +0.000 A 
ATOM      7  C   UNL     1       3.049   2.419  19.706  0.00  0.00    +0.000 A 
ATOM      8  C   UNL     1       3.705   2.962  18.604  0.00  0.00    +0.000 A 
ATOM      9  C   UNL     1       3.591   4.346  18.367  0.00  0.00    +0.000 A 
ENDROOT
BRANCH   1  16
ATOM     10  C   UNL     1       6.440   5.655  16.479  0.00  0.00    +0.000 A 
ATOM     11  C   UNL     1       7.334   5.464  15.419  0.00  0.00    +0.000 A 
ATOM     12  C   UNL     1       6.914   4.799  14.273  0.00  0.00    +0.000 A 
ATOM     13  F   UNL     1       7.775   4.632  13.259  0.00  0.00    +0.000 F 
ATOM     14  C   UNL     1       5.621   4.310  14.156  0.00  0.00    +0.000 A 
ATOM     15  C   UNL     1       4.730   4.478  15.218  0.00  0.00    +0.000 A 
ATOM     16  C   UNL     1       5.126   5.141  16.396  0.00  0.00    +0.000 A 
BRANCH  10  18
ATOM     17  C   UNL     1       7.518   7.525  17.518  0.00  0.00    +0.000 C 
ATOM     18  O   UNL     1       6.779   6.318  17.628  0.00  0.00    +0.000 OA
ENDBRANCH  10  18
ENDBRANCH   1  16
BRANCH   3  19
ATOM     19  C   UNL     1       2.025   7.482  19.253  0.00  0.00    +0.000 A 
ATOM     20  C   UNL     1       1.504   8.424  18.366  0.00  0.00    +0.000 A 
ATOM     21  C   UNL     1       0.767   9.516  18.828  0.00  0.00    +0.000 A 
ATOM     22  C   UNL     1       0.506   9.653  20.208  0.00  0.00    +0.000 A 
ATOM     23  C   UNL     1       1.044   8.713  21.118  0.00  0.00    +0.000 A 
ATOM     24  C   UNL     1       1.812   7.641  20.629  0.00  0.00    +0.000 A 
BRANCH  21  25
ATOM     25  O   UNL     1       0.232  10.460  17.981  0.00  0.00    +0.000 OA
ATOM     26  C   UNL     1      -1.079  10.197  17.487  0.00  0.00    +0.000 C 
ENDBRANCH  21  25
BRANCH  22  27
ATOM     27  O   UNL     1      -0.190  10.791  20.550  0.00  0.00    +0.000 OA
ATOM     28  C   UNL     1       0.563  11.932  20.937  0.00  0.00    +0.000 C 
ENDBRANCH  22  27
BRANCH  23  29
ATOM     29  O   UNL     1       0.815   8.913  22.454  0.00  0.00    +0.000 OA
ATOM     30  C   UNL     1       1.887   9.379  23.263  0.00  0.00    +0.000 C 
ENDBRANCH  23  29
ENDBRANCH   3  19
TORSDOF 6
ENDMDL
MODEL 9
REMARK VINA RESULT:      -6.5      2.131      2.459
REMARK  Name = 
REMARK  10 active torsions:
REMARK  status: ('A' for Active; 'I' for Inactive)
REMARK    1  A    between atoms: C_1  and  O_2
REMARK    2  A    between atoms: O_2  and  C_3
REMARK    3  A    between atoms: C_9  and  C_10
REMARK    4  A    between atoms: N_12  and  C_13
REMARK    5  A    between atoms: C_15  and  O_16
REMARK    6  A    between atoms: O_16  and  C_17
REMARK    7  A    between atoms: C_18  and  O_19
REMARK    8  A    between atoms: O_19  and  C_20
REMARK    9  A    between atoms: C_21  and  O_22
REMARK   10  A    between atoms: O_22  and  C_23
REMARK                            x       y       z     vdW  Elec       q    Type
REMARK                         _______ _______ _______ _____ _____    ______ ____
ROOT
ATOM      1  C   UNL     1       3.811   6.477  17.689  0.00  0.00    +0.000 A 
ATOM      2  N   UNL     1       3.329   7.712  17.468  0.00  0.00    +0.000 NA
ATOM      3  N   UNL     1       2.390   7.911  18.434  0.00  0.00    +0.000 N 
ATOM      4  C   UNL     1       2.315   6.839  19.312  0.00  0.00    +0.000 A 
ATOM      5  N   UNL     1       1.569   6.745  20.439  0.00  0.00    +0.000 NA
ATOM      6  C   UNL     1       1.727   5.592  21.117  0.00  0.00    +0.000 A 
ATOM      7  C   UNL     1       2.539   4.543  20.725  0.00  0.00    +0.000 A 
ATOM      8  C   UNL     1       3.271   4.667  19.548  0.00  0.00    +0.000 A 
ATOM      9  C   UNL     1       3.194   5.878  18.831  0.00  0.00    +0.000 A 
ENDROOT
BRANCH   1  16
ATOM     10  C   UNL     1       6.152   6.509  16.731  0.00  0.00    +0.000 A 
ATOM     11  C   UNL     1       7.108   5.960  15.869  0.00  0.00    +0.000 A 
ATOM     12  C   UNL     1       6.773   4.876  15.066  0.00  0.00    +0.000 A 
ATOM     13  F   UNL     1       7.693   4.367  14.235  0.00  0.00    +0.000 F 
ATOM     14  C   UNL     1       5.505   4.317  15.103  0.00  0.00    +0.000 A 
ATOM     15  C   UNL     1       4.551   4.844  15.977  0.00  0.00    +0.000 A 
ATOM     16  C   UNL     1       4.861   5.939  16.810  0.00  0.00    +0.000 A 
BRANCH  10  18
ATOM     17  C   UNL     1       7.749   8.031  17.665  0.00  0.00    +0.000 C 
ATOM     18  O   UNL     1       6.406   7.588  17.535  0.00  0.00    +0.000 OA
ENDBRANCH  10  18
ENDBRANCH   1  16
BRANCH   3  19
ATOM     19  C   UNL     1       1.623   9.113  18.452  0.00  0.00    +0.000 A 
ATOM     20  C   UNL     1       0.262   9.081  18.151  0.00  0.00    +0.000 A 
ATOM     21  C   UNL     1      -0.503  10.249  18.159  0.00  0.00    +0.000 A 
ATOM     22  C   UNL     1       0.094  11.477  18.516  0.00  0.00    +0.000 A 
ATOM     23  C   UNL     1       1.477  11.523  18.806  0.00  0.00    +0.000 A 
ATOM     24  C   UNL     1       2.232  10.337  18.758  0.00  0.00    +0.000 A 
BRANCH  21  25
ATOM     25  O   UNL     1      -1.850  10.254  17.874  0.00  0.00    +0.000 OA
ATOM     26  C   UNL     1      -2.210  10.007  16.516  0.00  0.00    +0.000 C 
ENDBRANCH  21  25
BRANCH  22  27
ATOM     27  O   UNL     1      -0.746  12.565  18.443  0.00  0.00    +0.000 OA
ATOM     28  C   UNL     1      -1.286  13.064  19.658  0.00  0.00    +0.000 C 
ENDBRANCH  22  27
BRANCH  23  29
ATOM     29  O   UNL     1       2.030  12.743  19.093  0.00  0.00    +0.000 OA
ATOM     30  C   UNL     1       2.706  13.442  18.057  0.00  0.00    +0.000 C 
ENDBRANCH  23  29
ENDBRANCH   3  19
TORSDOF 6
ENDMDL
