MODEL 1
REMARK VINA RESULT:      -8.4      0.000      0.000
REMARK  Name = 
REMARK  7 active torsions:
REMARK  status: ('A' for Active; 'I' for Inactive)
REMARK    1  A    between atoms: C_1  and  C_2
REMARK    2  A    between atoms: C_2  and  C_3
REMARK    3  A    between atoms: C_7  and  N_8
REMARK    4  A    between atoms: C_9  and  C_11
REMARK    5  A    between atoms: C_11  and  S_12
REMARK    6  A    between atoms: S_12  and  C_13
REMARK    7  A    between atoms: N_19  and  C_20
REMARK                            x       y       z     vdW  Elec       q    Type
REMARK                         _______ _______ _______ _____ _____    ______ ____
ROOT
ATOM      1  C   UNL     1       3.048   5.440  19.300  0.00  0.00    +0.000 A 
ATOM      2  N   UNL     1       2.615   4.993  20.459  0.00  0.00    +0.000 NA
ATOM      3  N   UNL     1       1.859   5.988  21.040  0.00  0.00    +0.000 NA
ATOM      4  C   UNL     1       1.848   7.008  20.205  0.00  0.00    +0.000 A 
ATOM      5  C   UNL     1       1.206   8.296  20.380  0.00  0.00    +0.000 A 
ATOM      6  O   UNL     1       0.604   8.607  21.409  0.00  0.00    +0.000 OA
ATOM      7  N   UNL     1       1.311   9.155  19.241  0.00  0.00    +0.000 N 
ATOM      8  C   UNL     1       2.005   8.765  18.088  0.00  0.00    +0.000 A 
ATOM      9  C   UNL     1       2.614   7.580  18.000  0.00  0.00    +0.000 A 
ATOM     10  N   UNL     1       2.542   6.693  19.062  0.00  0.00    +0.000 N 
ENDROOT
BRANCH   7  11
ATOM     11  C   UNL     1       0.645  10.409  19.277  0.00  0.00    +0.000 A 
ATOM     12  C   UNL     1       1.190  11.487  19.981  0.00  0.00    +0.000 A 
ATOM     13  C   UNL     1       0.520  12.710  20.019  0.00  0.00    +0.000 A 
ATOM     14  C   UNL     1      -0.713  12.852  19.382  0.00  0.00    +0.000 A 
ATOM     15  C   UNL     1      -1.265  11.778  18.683  0.00  0.00    +0.000 A 
ATOM     16  C   UNL     1      -0.580  10.565  18.612  0.00  0.00    +0.000 A 
ENDBRANCH   7  11
BRANCH   1  17
ATOM     17  S   UNL     1       4.032   4.535  18.205  0.00  0.00    +0.000 S 
BRANCH  17  18
ATOM     18  C   UNL     1       5.509   5.581  18.053  0.00  0.00    +0.000 C 
BRANCH  18  20
ATOM     19  N   UNL     1       6.190   4.603  15.922  0.00  0.00    +0.000 N 
ATOM     20  C   UNL     1       5.844   5.774  16.584  0.00  0.00    +0.000 C 
ATOM     21  O   UNL     1       5.786   6.899  16.093  0.00  0.00    +0.000 OA
ATOM     22  H   UNL     1       6.041   3.732  16.418  0.00  0.00    +0.000 HD
BRANCH  19  27
ATOM     23  C   UNL     1       6.072   3.486  12.375  0.00  0.00    +0.000 A 
ATOM     24  C   UNL     1       7.114   4.234  11.818  0.00  0.00    +0.000 A 
ATOM     25  C   UNL     1       7.850   5.108  12.614  0.00  0.00    +0.000 A 
ATOM     26  C   UNL     1       7.551   5.242  13.970  0.00  0.00    +0.000 A 
ATOM     27  C   UNL     1       6.524   4.501  14.552  0.00  0.00    +0.000 A 
ATOM     28  C   UNL     1       5.795   3.610  13.750  0.00  0.00    +0.000 A 
BRANCH  23  30
ATOM     29  C   UNL     1       3.928   3.142  11.112  0.00  0.00    +0.000 C 
ATOM     30  C   UNL     1       5.268   2.544  11.513  0.00  0.00    +0.000 C 
ENDBRANCH  23  30
ENDBRANCH  19  27
ENDBRANCH  18  20
ENDBRANCH  17  18
ENDBRANCH   1  17
TORSDOF 6
ENDMDL
MODEL 2
REMARK VINA RESULT:      -8.3      1.719      2.361
REMARK  Name = 
REMARK  7 active torsions:
REMARK  status: ('A' for Active; 'I' for Inactive)
REMARK    1  A    between atoms: C_1  and  C_2
REMARK    2  A    between atoms: C_2  and  C_3
REMARK    3  A    between atoms: C_7  and  N_8
REMARK    4  A    between atoms: C_9  and  C_11
REMARK    5  A    between atoms: C_11  and  S_12
REMARK    6  A    between atoms: S_12  and  C_13
REMARK    7  A    between atoms: N_19  and  C_20
REMARK                            x       y       z     vdW  Elec       q    Type
REMARK                         _______ _______ _______ _____ _____    ______ ____
ROOT
ATOM      1  C   UNL     1       3.701   6.016  17.933  0.00  0.00    +0.000 A 
ATOM      2  N   UNL     1       3.901   6.783  16.884  0.00  0.00    +0.000 NA
ATOM      3  N   UNL     1       3.218   7.963  17.087  0.00  0.00    +0.000 NA
ATOM      4  C   UNL     1       2.633   7.879  18.265  0.00  0.00    +0.000 A 
ATOM      5  C   UNL     1       1.784   8.860  18.911  0.00  0.00    +0.000 A 
ATOM      6  O   UNL     1       1.465   9.922  18.375  0.00  0.00    +0.000 OA
ATOM      7  N   UNL     1       1.379   8.494  20.233  0.00  0.00    +0.000 N 
ATOM      8  C   UNL     1       1.764   7.277  20.809  0.00  0.00    +0.000 A 
ATOM      9  C   UNL     1       2.514   6.391  20.149  0.00  0.00    +0.000 A 
ATOM     10  N   UNL     1       2.951   6.686  18.868  0.00  0.00    +0.000 N 
ENDROOT
BRANCH   7  11
ATOM     11  C   UNL     1       0.613   9.425  20.986  0.00  0.00    +0.000 A 
ATOM     12  C   UNL     1       0.631  10.786  20.669  0.00  0.00    +0.000 A 
ATOM     13  C   UNL     1      -0.115  11.691  21.424  0.00  0.00    +0.000 A 
ATOM     14  C   UNL     1      -0.858  11.245  22.516  0.00  0.00    +0.000 A 
ATOM     15  C   UNL     1      -0.875   9.889  22.841  0.00  0.00    +0.000 A 
ATOM     16  C   UNL     1      -0.160   8.975  22.067  0.00  0.00    +0.000 A 
ENDBRANCH   7  11
BRANCH   1  17
ATOM     17  S   UNL     1       4.369   4.436  18.135  0.00  0.00    +0.000 S 
BRANCH  17  18
ATOM     18  C   UNL     1       6.143   4.782  18.311  0.00  0.00    +0.000 C 
BRANCH  18  20
ATOM     19  N   UNL     1       6.025   4.694  15.873  0.00  0.00    +0.000 N 
ATOM     20  C   UNL     1       6.842   4.536  16.985  0.00  0.00    +0.000 C 
ATOM     21  O   UNL     1       8.033   4.231  16.976  0.00  0.00    +0.000 OA
ATOM     22  H   UNL     1       5.109   5.100  16.029  0.00  0.00    +0.000 HD
BRANCH  19  27
ATOM     23  C   UNL     1       6.136   3.407  12.384  0.00  0.00    +0.000 A 
ATOM     24  C   UNL     1       7.165   4.184  11.840  0.00  0.00    +0.000 A 
ATOM     25  C   UNL     1       7.816   5.131  12.625  0.00  0.00    +0.000 A 
ATOM     26  C   UNL     1       7.445   5.313  13.958  0.00  0.00    +0.000 A 
ATOM     27  C   UNL     1       6.430   4.546  14.527  0.00  0.00    +0.000 A 
ATOM     28  C   UNL     1       5.787   3.581  13.737  0.00  0.00    +0.000 A 
BRANCH  23  30
ATOM     29  C   UNL     1       6.341   1.241  11.129  0.00  0.00    +0.000 C 
ATOM     30  C   UNL     1       5.424   2.385  11.533  0.00  0.00    +0.000 C 
ENDBRANCH  23  30
ENDBRANCH  19  27
ENDBRANCH  18  20
ENDBRANCH  17  18
ENDBRANCH   1  17
TORSDOF 6
ENDMDL
MODEL 3
REMARK VINA RESULT:      -8.1      1.103      1.316
REMARK  Name = 
REMARK  7 active torsions:
REMARK  status: ('A' for Active; 'I' for Inactive)
REMARK    1  A    between atoms: C_1  and  C_2
REMARK    2  A    between atoms: C_2  and  C_3
REMARK    3  A    between atoms: C_7  and  N_8
REMARK    4  A    between atoms: C_9  and  C_11
REMARK    5  A    between atoms: C_11  and  S_12
REMARK    6  A    between atoms: S_12  and  C_13
REMARK    7  A    between atoms: N_19  and  C_20
REMARK                            x       y       z     vdW  Elec       q    Type
REMARK                         _______ _______ _______ _____ _____    ______ ____
ROOT
ATOM      1  C   UNL     1       3.409   4.488  19.405  0.00  0.00    +0.000 A 
ATOM      2  N   UNL     1       2.877   3.959  20.485  0.00  0.00    +0.000 NA
ATOM      3  N   UNL     1       2.094   4.921  21.084  0.00  0.00    +0.000 NA
ATOM      4  C   UNL     1       2.165   6.005  20.338  0.00  0.00    +0.000 A 
ATOM      5  C   UNL     1       1.531   7.288  20.567  0.00  0.00    +0.000 A 
ATOM      6  O   UNL     1       0.854   7.528  21.567  0.00  0.00    +0.000 OA
ATOM      7  N   UNL     1       1.739   8.233  19.513  0.00  0.00    +0.000 N 
ATOM      8  C   UNL     1       2.516   7.921  18.390  0.00  0.00    +0.000 A 
ATOM      9  C   UNL     1       3.112   6.734  18.253  0.00  0.00    +0.000 A 
ATOM     10  N   UNL     1       2.943   5.767  19.230  0.00  0.00    +0.000 N 
ENDROOT
BRANCH   7  11
ATOM     11  C   UNL     1       1.091   9.494  19.600  0.00  0.00    +0.000 A 
ATOM     12  C   UNL     1       1.005  10.330  18.482  0.00  0.00    +0.000 A 
ATOM     13  C   UNL     1       0.377  11.572  18.583  0.00  0.00    +0.000 A 
ATOM     14  C   UNL     1      -0.140  11.996  19.806  0.00  0.00    +0.000 A 
ATOM     15  C   UNL     1      -0.052  11.169  20.926  0.00  0.00    +0.000 A 
ATOM     16  C   UNL     1       0.542   9.912  20.821  0.00  0.00    +0.000 A 
ENDBRANCH   7  11
BRANCH   1  17
ATOM     17  S   UNL     1       4.462   3.652  18.319  0.00  0.00    +0.000 S 
BRANCH  17  18
ATOM     18  C   UNL     1       5.943   4.703  18.327  0.00  0.00    +0.000 C 
BRANCH  18  20
ATOM     19  N   UNL     1       5.871   4.576  15.890  0.00  0.00    +0.000 N 
ATOM     20  C   UNL     1       6.687   4.542  17.013  0.00  0.00    +0.000 C 
ATOM     21  O   UNL     1       7.908   4.404  17.022  0.00  0.00    +0.000 OA
ATOM     22  H   UNL     1       4.906   4.854  16.030  0.00  0.00    +0.000 HD
BRANCH  19  27
ATOM     23  C   UNL     1       6.015   3.470  12.341  0.00  0.00    +0.000 A 
ATOM     24  C   UNL     1       7.111   4.203  11.871  0.00  0.00    +0.000 A 
ATOM     25  C   UNL     1       7.796   5.061  12.727  0.00  0.00    +0.000 A 
ATOM     26  C   UNL     1       7.393   5.198  14.055  0.00  0.00    +0.000 A 
ATOM     27  C   UNL     1       6.311   4.472  14.550  0.00  0.00    +0.000 A 
ATOM     28  C   UNL     1       5.633   3.595  13.690  0.00  0.00    +0.000 A 
BRANCH  23  30
ATOM     29  C   UNL     1       3.917   3.116  11.006  0.00  0.00    +0.000 C 
ATOM     30  C   UNL     1       5.266   2.545  11.414  0.00  0.00    +0.000 C 
ENDBRANCH  23  30
ENDBRANCH  19  27
ENDBRANCH  18  20
ENDBRANCH  17  18
ENDBRANCH   1  17
TORSDOF 6
ENDMDL
MODEL 4
REMARK VINA RESULT:      -8.0      0.875      1.349
REMARK  Name = 
REMARK  7 active torsions:
REMARK  status: ('A' for Active; 'I' for Inactive)
REMARK    1  A    between atoms: C_1  and  C_2
REMARK    2  A    between atoms: C_2  and  C_3
REMARK    3  A    between atoms: C_7  and  N_8
REMARK    4  A    between atoms: C_9  and  C_11
REMARK    5  A    between atoms: C_11  and  S_12
REMARK    6  A    between atoms: S_12  and  C_13
REMARK    7  A    between atoms: N_19  and  C_20
REMARK                            x       y       z     vdW  Elec       q    Type
REMARK                         _______ _______ _______ _____ _____    ______ ____
ROOT
ATOM      1  C   UNL     1       2.865   6.135  18.870  0.00  0.00    +0.000 A 
ATOM      2  N   UNL     1       2.612   5.564  20.028  0.00  0.00    +0.000 NA
ATOM      3  N   UNL     1       1.954   6.483  20.816  0.00  0.00    +0.000 NA
ATOM      4  C   UNL     1       1.817   7.583  20.104  0.00  0.00    +0.000 A 
ATOM      5  C   UNL     1       1.209   8.836  20.507  0.00  0.00    +0.000 A 
ATOM      6  O   UNL     1       0.770   9.029  21.642  0.00  0.00    +0.000 OA
ATOM      7  N   UNL     1       1.140   9.809  19.462  0.00  0.00    +0.000 N 
ATOM      8  C   UNL     1       1.651   9.550  18.183  0.00  0.00    +0.000 A 
ATOM      9  C   UNL     1       2.240   8.391  17.881  0.00  0.00    +0.000 A 
ATOM     10  N   UNL     1       2.329   7.398  18.843  0.00  0.00    +0.000 N 
ENDROOT
BRANCH   7  11
ATOM     11  C   UNL     1       0.487  11.042  19.728  0.00  0.00    +0.000 A 
ATOM     12  C   UNL     1      -0.877  11.198  19.466  0.00  0.00    +0.000 A 
ATOM     13  C   UNL     1      -1.505  12.418  19.721  0.00  0.00    +0.000 A 
ATOM     14  C   UNL     1      -0.766  13.495  20.209  0.00  0.00    +0.000 A 
ATOM     15  C   UNL     1       0.596  13.348  20.468  0.00  0.00    +0.000 A 
ATOM     16  C   UNL     1       1.220  12.119  20.249  0.00  0.00    +0.000 A 
ENDBRANCH   7  11
BRANCH   1  17
ATOM     17  S   UNL     1       3.672   5.364  17.551  0.00  0.00    +0.000 S 
BRANCH  17  18
ATOM     18  C   UNL     1       5.415   5.463  18.048  0.00  0.00    +0.000 C 
BRANCH  18  20
ATOM     19  N   UNL     1       5.606   4.912  15.677  0.00  0.00    +0.000 N 
ATOM     20  C   UNL     1       6.302   5.194  16.845  0.00  0.00    +0.000 C 
ATOM     21  O   UNL     1       7.524   5.245  16.970  0.00  0.00    +0.000 OA
ATOM     22  H   UNL     1       4.603   5.061  15.691  0.00  0.00    +0.000 HD
BRANCH  19  27
ATOM     23  C   UNL     1       6.138   3.369  12.334  0.00  0.00    +0.000 A 
ATOM     24  C   UNL     1       7.272   4.059  11.893  0.00  0.00    +0.000 A 
ATOM     25  C   UNL     1       7.854   5.034  12.698  0.00  0.00    +0.000 A 
ATOM     26  C   UNL     1       7.310   5.329  13.948  0.00  0.00    +0.000 A 
ATOM     27  C   UNL     1       6.187   4.649  14.415  0.00  0.00    +0.000 A 
ATOM     28  C   UNL     1       5.613   3.655  13.608  0.00  0.00    +0.000 A 
BRANCH  23  30
ATOM     29  C   UNL     1       6.471   1.196  11.118  0.00  0.00    +0.000 C 
ATOM     30  C   UNL     1       5.501   2.317  11.460  0.00  0.00    +0.000 C 
ENDBRANCH  23  30
ENDBRANCH  19  27
ENDBRANCH  18  20
ENDBRANCH  17  18
ENDBRANCH   1  17
TORSDOF 6
ENDMDL
MODEL 5
REMARK VINA RESULT:      -8.0      1.860      8.670
REMARK  Name = 
REMARK  7 active torsions:
REMARK  status: ('A' for Active; 'I' for Inactive)
REMARK    1  A    between atoms: C_1  and  C_2
REMARK    2  A    between atoms: C_2  and  C_3
REMARK    3  A    between atoms: C_7  and  N_8
REMARK    4  A    between atoms: C_9  and  C_11
REMARK    5  A    between atoms: C_11  and  S_12
REMARK    6  A    between atoms: S_12  and  C_13
REMARK    7  A    between atoms: N_19  and  C_20
REMARK                            x       y       z     vdW  Elec       q    Type
REMARK                         _______ _______ _______ _____ _____    ______ ____
ROOT
ATOM      1  C   UNL     1       4.514   3.589  19.517  0.00  0.00    +0.000 A 
ATOM      2  N   UNL     1       5.409   4.297  20.171  0.00  0.00    +0.000 NA
ATOM      3  N   UNL     1       6.325   4.767  19.256  0.00  0.00    +0.000 NA
ATOM      4  C   UNL     1       5.948   4.338  18.068  0.00  0.00    +0.000 A 
ATOM      5  C   UNL     1       6.603   4.554  16.793  0.00  0.00    +0.000 A 
ATOM      6  O   UNL     1       7.670   5.160  16.686  0.00  0.00    +0.000 OA
ATOM      7  N   UNL     1       5.883   4.026  15.676  0.00  0.00    +0.000 N 
ATOM      8  C   UNL     1       4.671   3.343  15.839  0.00  0.00    +0.000 A 
ATOM      9  C   UNL     1       4.136   3.137  17.045  0.00  0.00    +0.000 A 
ATOM     10  N   UNL     1       4.774   3.632  18.170  0.00  0.00    +0.000 N 
ENDROOT
BRANCH   7  11
ATOM     11  C   UNL     1       6.397   4.257  14.371  0.00  0.00    +0.000 A 
ATOM     12  C   UNL     1       5.968   3.484  13.289  0.00  0.00    +0.000 A 
ATOM     13  C   UNL     1       6.490   3.711  12.015  0.00  0.00    +0.000 A 
ATOM     14  C   UNL     1       7.463   4.691  11.823  0.00  0.00    +0.000 A 
ATOM     15  C   UNL     1       7.899   5.462  12.900  0.00  0.00    +0.000 A 
ATOM     16  C   UNL     1       7.354   5.262  14.169  0.00  0.00    +0.000 A 
ENDBRANCH   7  11
BRANCH   1  17
ATOM     17  S   UNL     1       3.158   2.805  20.248  0.00  0.00    +0.000 S 
BRANCH  17  18
ATOM     18  C   UNL     1       2.578   4.054  21.432  0.00  0.00    +0.000 C 
BRANCH  18  20
ATOM     19  N   UNL     1       2.616   6.268  20.404  0.00  0.00    +0.000 N 
ATOM     20  C   UNL     1       1.839   5.153  20.689  0.00  0.00    +0.000 C 
ATOM     21  O   UNL     1       0.657   4.994  20.393  0.00  0.00    +0.000 OA
ATOM     22  H   UNL     1       3.613   6.190  20.571  0.00  0.00    +0.000 HD
BRANCH  19  27
ATOM     23  C   UNL     1       0.936   9.521  19.740  0.00  0.00    +0.000 A 
ATOM     24  C   UNL     1       1.273   9.733  18.399  0.00  0.00    +0.000 A 
ATOM     25  C   UNL     1       2.057   8.804  17.720  0.00  0.00    +0.000 A 
ATOM     26  C   UNL     1       2.511   7.658  18.373  0.00  0.00    +0.000 A 
ATOM     27  C   UNL     1       2.181   7.418  19.706  0.00  0.00    +0.000 A 
ATOM     28  C   UNL     1       1.377   8.348  20.382  0.00  0.00    +0.000 A 
BRANCH  23  30
ATOM     29  C   UNL     1      -1.051  11.052  19.625  0.00  0.00    +0.000 C 
ATOM     30  C   UNL     1       0.093  10.530  20.480  0.00  0.00    +0.000 C 
ENDBRANCH  23  30
ENDBRANCH  19  27
ENDBRANCH  18  20
ENDBRANCH  17  18
ENDBRANCH   1  17
TORSDOF 6
ENDMDL
MODEL 6
REMARK VINA RESULT:      -8.0      6.328      9.067
REMARK  Name = 
REMARK  7 active torsions:
REMARK  status: ('A' for Active; 'I' for Inactive)
REMARK    1  A    between atoms: C_1  and  C_2
REMARK    2  A    between atoms: C_2  and  C_3
REMARK    3  A    between atoms: C_7  and  N_8
REMARK    4  A    between atoms: C_9  and  C_11
REMARK    5  A    between atoms: C_11  and  S_12
REMARK    6  A    between atoms: S_12  and  C_13
REMARK    7  A    between atoms: N_19  and  C_20
REMARK                            x       y       z     vdW  Elec       q    Type
REMARK                         _______ _______ _______ _____ _____    ______ ____
ROOT
ATOM      1  C   UNL     1       7.464   6.995  18.255  0.00  0.00    +0.000 A 
ATOM      2  N   UNL     1       8.329   6.162  18.791  0.00  0.00    +0.000 NA
ATOM      3  N   UNL     1       7.633   5.057  19.231  0.00  0.00    +0.000 NA
ATOM      4  C   UNL     1       6.364   5.250  18.934  0.00  0.00    +0.000 A 
ATOM      5  C   UNL     1       5.240   4.378  19.215  0.00  0.00    +0.000 A 
ATOM      6  O   UNL     1       5.355   3.322  19.838  0.00  0.00    +0.000 OA
ATOM      7  N   UNL     1       3.998   4.843  18.678  0.00  0.00    +0.000 N 
ATOM      8  C   UNL     1       3.909   6.051  17.974  0.00  0.00    +0.000 A 
ATOM      9  C   UNL     1       4.972   6.835  17.783  0.00  0.00    +0.000 A 
ATOM     10  N   UNL     1       6.209   6.440  18.265  0.00  0.00    +0.000 N 
ENDROOT
BRANCH   7  11
ATOM     11  C   UNL     1       2.849   4.020  18.825  0.00  0.00    +0.000 A 
ATOM     12  C   UNL     1       2.593   2.985  17.922  0.00  0.00    +0.000 A 
ATOM     13  C   UNL     1       1.454   2.192  18.069  0.00  0.00    +0.000 A 
ATOM     14  C   UNL     1       0.553   2.449  19.102  0.00  0.00    +0.000 A 
ATOM     15  C   UNL     1       0.800   3.484  20.003  0.00  0.00    +0.000 A 
ATOM     16  C   UNL     1       1.956   4.256  19.880  0.00  0.00    +0.000 A 
ENDBRANCH   7  11
BRANCH   1  17
ATOM     17  S   UNL     1       7.875   8.522  17.556  0.00  0.00    +0.000 S 
BRANCH  17  18
ATOM     18  C   UNL     1       8.847   9.305  18.875  0.00  0.00    +0.000 C 
BRANCH  18  20
ATOM     19  N   UNL     1      10.428  11.162  18.988  0.00  0.00    +0.000 N 
ATOM     20  C   UNL     1       9.225  10.715  18.457  0.00  0.00    +0.000 C 
ATOM     21  O   UNL     1       8.483  11.343  17.705  0.00  0.00    +0.000 OA
ATOM     22  H   UNL     1      11.005  10.477  19.463  0.00  0.00    +0.000 HD
BRANCH  19  27
ATOM     23  C   UNL     1      11.417  14.712  19.497  0.00  0.00    +0.000 A 
ATOM     24  C   UNL     1      12.158  14.957  18.336  0.00  0.00    +0.000 A 
ATOM     25  C   UNL     1      12.332  13.950  17.392  0.00  0.00    +0.000 A 
ATOM     26  C   UNL     1      11.770  12.690  17.598  0.00  0.00    +0.000 A 
ATOM     27  C   UNL     1      11.019  12.422  18.741  0.00  0.00    +0.000 A 
ATOM     28  C   UNL     1      10.832  13.445  19.683  0.00  0.00    +0.000 A 
BRANCH  23  30
ATOM     29  C   UNL     1      10.457  15.313  21.739  0.00  0.00    +0.000 C 
ATOM     30  C   UNL     1      11.234  15.801  20.525  0.00  0.00    +0.000 C 
ENDBRANCH  23  30
ENDBRANCH  19  27
ENDBRANCH  18  20
ENDBRANCH  17  18
ENDBRANCH   1  17
TORSDOF 6
ENDMDL
MODEL 7
REMARK VINA RESULT:      -8.0      1.931      8.711
REMARK  Name = 
REMARK  7 active torsions:
REMARK  status: ('A' for Active; 'I' for Inactive)
REMARK    1  A    between atoms: C_1  and  C_2
REMARK    2  A    between atoms: C_2  and  C_3
REMARK    3  A    between atoms: C_7  and  N_8
REMARK    4  A    between atoms: C_9  and  C_11
REMARK    5  A    between atoms: C_11  and  S_12
REMARK    6  A    between atoms: S_12  and  C_13
REMARK    7  A    between atoms: N_19  and  C_20
REMARK                            x       y       z     vdW  Elec       q    Type
REMARK                         _______ _______ _______ _____ _____    ______ ____
ROOT
ATOM      1  C   UNL     1       4.475   3.527  19.471  0.00  0.00    +0.000 A 
ATOM      2  N   UNL     1       5.381   4.188  20.159  0.00  0.00    +0.000 NA
ATOM      3  N   UNL     1       6.329   4.651  19.272  0.00  0.00    +0.000 NA
ATOM      4  C   UNL     1       5.959   4.266  18.067  0.00  0.00    +0.000 A 
ATOM      5  C   UNL     1       6.644   4.493  16.810  0.00  0.00    +0.000 A 
ATOM      6  O   UNL     1       7.732   5.066  16.737  0.00  0.00    +0.000 OA
ATOM      7  N   UNL     1       5.928   4.018  15.667  0.00  0.00    +0.000 N 
ATOM      8  C   UNL     1       4.692   3.370  15.791  0.00  0.00    +0.000 A 
ATOM      9  C   UNL     1       4.128   3.151  16.982  0.00  0.00    +0.000 A 
ATOM     10  N   UNL     1       4.761   3.596  18.130  0.00  0.00    +0.000 N 
ENDROOT
BRANCH   7  11
ATOM     11  C   UNL     1       6.473   4.265  14.378  0.00  0.00    +0.000 A 
ATOM     12  C   UNL     1       7.398   5.294  14.180  0.00  0.00    +0.000 A 
ATOM     13  C   UNL     1       7.916   5.535  12.907  0.00  0.00    +0.000 A 
ATOM     14  C   UNL     1       7.490   4.769  11.823  0.00  0.00    +0.000 A 
ATOM     15  C   UNL     1       6.564   3.744  12.013  0.00  0.00    +0.000 A 
ATOM     16  C   UNL     1       6.071   3.476  13.290  0.00  0.00    +0.000 A 
ENDBRANCH   7  11
BRANCH   1  17
ATOM     17  S   UNL     1       3.081   2.770  20.157  0.00  0.00    +0.000 S 
BRANCH  17  18
ATOM     18  C   UNL     1       2.554   3.981  21.404  0.00  0.00    +0.000 C 
BRANCH  18  20
ATOM     19  N   UNL     1       2.593   6.208  20.405  0.00  0.00    +0.000 N 
ATOM     20  C   UNL     1       1.803   5.112  20.726  0.00  0.00    +0.000 C 
ATOM     21  O   UNL     1       0.599   4.993  20.507  0.00  0.00    +0.000 OA
ATOM     22  H   UNL     1       3.596   6.098  20.504  0.00  0.00    +0.000 HD
BRANCH  19  27
ATOM     23  C   UNL     1       0.938   9.500  19.885  0.00  0.00    +0.000 A 
ATOM     24  C   UNL     1       1.225   9.739  18.537  0.00  0.00    +0.000 A 
ATOM     25  C   UNL     1       1.967   8.816  17.806  0.00  0.00    +0.000 A 
ATOM     26  C   UNL     1       2.429   7.648  18.413  0.00  0.00    +0.000 A 
ATOM     27  C   UNL     1       2.148   7.381  19.751  0.00  0.00    +0.000 A 
ATOM     28  C   UNL     1       1.386   8.306  20.481  0.00  0.00    +0.000 A 
BRANCH  23  30
ATOM     29  C   UNL     1      -0.313   9.936  22.019  0.00  0.00    +0.000 C 
ATOM     30  C   UNL     1       0.141  10.503  20.682  0.00  0.00    +0.000 C 
ENDBRANCH  23  30
ENDBRANCH  19  27
ENDBRANCH  18  20
ENDBRANCH  17  18
ENDBRANCH   1  17
TORSDOF 6
ENDMDL
MODEL 8
REMARK VINA RESULT:      -7.7      1.671      2.279
REMARK  Name = 
REMARK  7 active torsions:
REMARK  status: ('A' for Active; 'I' for Inactive)
REMARK    1  A    between atoms: C_1  and  C_2
REMARK    2  A    between atoms: C_2  and  C_3
REMARK    3  A    between atoms: C_7  and  N_8
REMARK    4  A    between atoms: C_9  and  C_11
REMARK    5  A    between atoms: C_11  and  S_12
REMARK    6  A    between atoms: S_12  and  C_13
REMARK    7  A    between atoms: N_19  and  C_20
REMARK                            x       y       z     vdW  Elec       q    Type
REMARK                         _______ _______ _______ _____ _____    ______ ____
ROOT
ATOM      1  C   UNL     1       2.849   6.184  19.322  0.00  0.00    +0.000 A 
ATOM      2  N   UNL     1       3.416   6.434  18.162  0.00  0.00    +0.000 NA
ATOM      3  N   UNL     1       3.024   7.693  17.763  0.00  0.00    +0.000 NA
ATOM      4  C   UNL     1       2.237   8.174  18.704  0.00  0.00    +0.000 A 
ATOM      5  C   UNL     1       1.558   9.455  18.730  0.00  0.00    +0.000 A 
ATOM      6  O   UNL     1       1.613  10.258  17.797  0.00  0.00    +0.000 OA
ATOM      7  N   UNL     1       0.847   9.709  19.945  0.00  0.00    +0.000 N 
ATOM      8  C   UNL     1       0.809   8.770  20.983  0.00  0.00    +0.000 A 
ATOM      9  C   UNL     1       1.419   7.586  20.886  0.00  0.00    +0.000 A 
ATOM     10  N   UNL     1       2.136   7.279  19.742  0.00  0.00    +0.000 N 
ENDROOT
BRANCH   7  11
ATOM     11  C   UNL     1       0.216  10.971  20.106  0.00  0.00    +0.000 A 
ATOM     12  C   UNL     1       0.867  12.015  20.770  0.00  0.00    +0.000 A 
ATOM     13  C   UNL     1       0.232  13.247  20.933  0.00  0.00    +0.000 A 
ATOM     14  C   UNL     1      -1.068  13.430  20.461  0.00  0.00    +0.000 A 
ATOM     15  C   UNL     1      -1.725  12.391  19.803  0.00  0.00    +0.000 A 
ATOM     16  C   UNL     1      -1.079  11.170  19.605  0.00  0.00    +0.000 A 
ENDBRANCH   7  11
BRANCH   1  17
ATOM     17  S   UNL     1       3.057   4.723  20.221  0.00  0.00    +0.000 S 
BRANCH  17  18
ATOM     18  C   UNL     1       3.180   3.472  18.910  0.00  0.00    +0.000 C 
BRANCH  18  20
ATOM     19  N   UNL     1       4.248   3.987  16.776  0.00  0.00    +0.000 N 
ATOM     20  C   UNL     1       4.456   3.693  18.117  0.00  0.00    +0.000 C 
ATOM     21  O   UNL     1       5.543   3.608  18.684  0.00  0.00    +0.000 OA
ATOM     22  H   UNL     1       3.295   4.177  16.488  0.00  0.00    +0.000 HD
BRANCH  19  27
ATOM     23  C   UNL     1       6.140   3.904  13.573  0.00  0.00    +0.000 A 
ATOM     24  C   UNL     1       7.223   4.736  13.875  0.00  0.00    +0.000 A 
ATOM     25  C   UNL     1       7.323   5.325  15.133  0.00  0.00    +0.000 A 
ATOM     26  C   UNL     1       6.344   5.089  16.098  0.00  0.00    +0.000 A 
ATOM     27  C   UNL     1       5.260   4.256  15.826  0.00  0.00    +0.000 A 
ATOM     28  C   UNL     1       5.171   3.652  14.563  0.00  0.00    +0.000 A 
BRANCH  23  30
ATOM     29  C   UNL     1       4.596   3.296  11.688  0.00  0.00    +0.000 C 
ATOM     30  C   UNL     1       6.025   3.272  12.208  0.00  0.00    +0.000 C 
ENDBRANCH  23  30
ENDBRANCH  19  27
ENDBRANCH  18  20
ENDBRANCH  17  18
ENDBRANCH   1  17
TORSDOF 6
ENDMDL
MODEL 9
REMARK VINA RESULT:      -7.7      3.722     10.554
REMARK  Name = 
REMARK  7 active torsions:
REMARK  status: ('A' for Active; 'I' for Inactive)
REMARK    1  A    between atoms: C_1  and  C_2
REMARK    2  A    between atoms: C_2  and  C_3
REMARK    3  A    between atoms: C_7  and  N_8
REMARK    4  A    between atoms: C_9  and  C_11
REMARK    5  A    between atoms: C_11  and  S_12
REMARK    6  A    between atoms: S_12  and  C_13
REMARK    7  A    between atoms: N_19  and  C_20
REMARK                            x       y       z     vdW  Elec       q    Type
REMARK                         _______ _______ _______ _____ _____    ______ ____
ROOT
ATOM      1  C   UNL     1       0.438  10.844  20.281  0.00  0.00    +0.000 A 
ATOM      2  N   UNL     1       0.301  10.426  21.521  0.00  0.00    +0.000 NA
ATOM      3  N   UNL     1       0.784   9.137  21.587  0.00  0.00    +0.000 NA
ATOM      4  C   UNL     1       1.212   8.817  20.383  0.00  0.00    +0.000 A 
ATOM      5  C   UNL     1       1.785   7.559  19.946  0.00  0.00    +0.000 A 
ATOM      6  O   UNL     1       1.897   6.583  20.689  0.00  0.00    +0.000 OA
ATOM      7  N   UNL     1       2.232   7.567  18.587  0.00  0.00    +0.000 N 
ATOM      8  C   UNL     1       2.086   8.698  17.773  0.00  0.00    +0.000 A 
ATOM      9  C   UNL     1       1.511   9.818  18.219  0.00  0.00    +0.000 A 
ATOM     10  N   UNL     1       1.066   9.883  19.529  0.00  0.00    +0.000 N 
ENDROOT
BRANCH   7  11
ATOM     11  C   UNL     1       2.885   6.410  18.084  0.00  0.00    +0.000 A 
ATOM     12  C   UNL     1       2.208   5.190  17.996  0.00  0.00    +0.000 A 
ATOM     13  C   UNL     1       2.864   4.058  17.512  0.00  0.00    +0.000 A 
ATOM     14  C   UNL     1       4.207   4.133  17.143  0.00  0.00    +0.000 A 
ATOM     15  C   UNL     1       4.889   5.346  17.234  0.00  0.00    +0.000 A 
ATOM     16  C   UNL     1       4.227   6.489  17.683  0.00  0.00    +0.000 A 
ENDBRANCH   7  11
BRANCH   1  17
ATOM     17  S   UNL     1      -0.022  12.411  19.718  0.00  0.00    +0.000 S 
BRANCH  17  18
ATOM     18  C   UNL     1      -0.851  12.033  18.147  0.00  0.00    +0.000 C 
BRANCH  18  20
ATOM     19  N   UNL     1      -3.218  12.292  18.689  0.00  0.00    +0.000 N 
ATOM     20  C   UNL     1      -2.197  11.388  18.426  0.00  0.00    +0.000 C 
ATOM     21  O   UNL     1      -2.298  10.163  18.399  0.00  0.00    +0.000 OA
ATOM     22  H   UNL     1      -3.019  13.272  18.522  0.00  0.00    +0.000 HD
BRANCH  19  27
ATOM     23  C   UNL     1      -6.451  12.024  20.510  0.00  0.00    +0.000 A 
ATOM     24  C   UNL     1      -7.233  11.336  19.577  0.00  0.00    +0.000 A 
ATOM     25  C   UNL     1      -6.693  10.967  18.348  0.00  0.00    +0.000 A 
ATOM     26  C   UNL     1      -5.369  11.281  18.041  0.00  0.00    +0.000 A 
ATOM     27  C   UNL     1      -4.565  11.957  18.957  0.00  0.00    +0.000 A 
ATOM     28  C   UNL     1      -5.108  12.313  20.201  0.00  0.00    +0.000 A 
BRANCH  23  30
ATOM     29  C   UNL     1      -5.974  12.957  22.793  0.00  0.00    +0.000 C 
ATOM     30  C   UNL     1      -7.037  12.432  21.839  0.00  0.00    +0.000 C 
ENDBRANCH  23  30
ENDBRANCH  19  27
ENDBRANCH  18  20
ENDBRANCH  17  18
ENDBRANCH   1  17
TORSDOF 6
ENDMDL
