MODEL 1
REMARK VINA RESULT:      -7.0      0.000      0.000
REMARK  Name = 
REMARK  11 active torsions:
REMARK  status: ('A' for Active; 'I' for Inactive)
REMARK    1  A    between atoms: C_1  and  C_2
REMARK    2  A    between atoms: C_2  and  O_3
REMARK    3  A    between atoms: O_3  and  C_4
REMARK    4  A    between atoms: C_13  and  C_14
REMARK    5  A    between atoms: C_20  and  C_21
REMARK    6  A    between atoms: C_24  and  O_25
REMARK    7  A    between atoms: O_25  and  C_26
REMARK    8  A    between atoms: C_26  and  C_27
REMARK    9  A    between atoms: C_27  and  N_28
REMARK   10  A    between atoms: N_28  and  C_29
REMARK   11  A    between atoms: N_28  and  C_30
REMARK                            x       y       z     vdW  Elec       q    Type
REMARK                         _______ _______ _______ _____ _____    ______ ____
ROOT
ATOM      1  C   UNL     1       1.317  10.301  19.001  0.00  0.00    +0.000 A 
ATOM      2  C   UNL     1       1.803   9.854  17.781  0.00  0.00    +0.000 A 
ATOM      3  C   UNL     1       2.275   8.550  17.656  0.00  0.00    +0.000 A 
ATOM      4  C   UNL     1       2.288   7.656  18.749  0.00  0.00    +0.000 A 
ATOM      5  C   UNL     1       1.774   8.095  19.984  0.00  0.00    +0.000 A 
ATOM      6  C   UNL     1       1.291   9.420  20.088  0.00  0.00    +0.000 A 
ATOM      7  C   UNL     1       1.852   7.250  21.237  0.00  0.00    +0.000 C 
ATOM      8  C   UNL     1       1.251   5.837  21.201  0.00  0.00    +0.000 C 
ATOM      9  C   UNL     1       1.037   5.223  19.822  0.00  0.00    +0.000 C 
ATOM     10  C   UNL     1       2.318   5.191  19.029  0.00  0.00    +0.000 C 
ATOM     11  C   UNL     1       2.911   6.310  18.542  0.00  0.00    +0.000 C 
ENDROOT
BRANCH  10  12
ATOM     12  C   UNL     1       2.869   3.830  18.837  0.00  0.00    +0.000 A 
ATOM     13  C   UNL     1       2.638   3.145  17.638  0.00  0.00    +0.000 A 
ATOM     14  C   UNL     1       3.158   1.864  17.445  0.00  0.00    +0.000 A 
ATOM     15  C   UNL     1       3.911   1.256  18.449  0.00  0.00    +0.000 A 
ATOM     16  C   UNL     1       4.145   1.930  19.647  0.00  0.00    +0.000 A 
ATOM     17  C   UNL     1       3.627   3.213  19.841  0.00  0.00    +0.000 A 
ENDBRANCH  10  12
BRANCH  11  18
ATOM     18  C   UNL     1       4.148   6.162  17.740  0.00  0.00    +0.000 A 
ATOM     19  C   UNL     1       4.105   6.439  16.373  0.00  0.00    +0.000 A 
ATOM     20  C   UNL     1       5.253   6.318  15.601  0.00  0.00    +0.000 A 
ATOM     21  C   UNL     1       6.458   5.897  16.177  0.00  0.00    +0.000 A 
ATOM     22  C   UNL     1       6.505   5.630  17.546  0.00  0.00    +0.000 A 
ATOM     23  C   UNL     1       5.355   5.770  18.330  0.00  0.00    +0.000 A 
BRANCH  21  24
ATOM     24  O   UNL     1       7.634   5.714  15.483  0.00  0.00    +0.000 OA
BRANCH  24  25
ATOM     25  C   UNL     1       7.437   5.160  14.179  0.00  0.00    +0.000 C 
BRANCH  25  26
ATOM     26  C   UNL     1       6.398   4.037  14.168  0.00  0.00    +0.000 C 
BRANCH  26  27
ATOM     27  N   UNL     1       6.299   3.399  12.836  0.00  0.00    +0.000 NA
ATOM     28  C   UNL     1       4.932   3.409  12.308  0.00  0.00    +0.000 C 
ATOM     29  C   UNL     1       7.203   4.051  11.891  0.00  0.00    +0.000 C 
ENDBRANCH  26  27
ENDBRANCH  25  26
ENDBRANCH  24  25
ENDBRANCH  21  24
ENDBRANCH  11  18
BRANCH   1  30
ATOM     30  O   UNL     1       0.861  11.571  19.249  0.00  0.00    +0.000 OA
BRANCH  30  32
ATOM     31  C   UNL     1      -1.534  11.714  19.321  0.00  0.00    +0.000 C 
ATOM     32  C   UNL     1      -0.287  11.984  18.502  0.00  0.00    +0.000 C 
ENDBRANCH  30  32
ENDBRANCH   1  30
TORSDOF 8
ENDMDL
MODEL 2
REMARK VINA RESULT:      -6.9      0.613      1.181
REMARK  Name = 
REMARK  11 active torsions:
REMARK  status: ('A' for Active; 'I' for Inactive)
REMARK    1  A    between atoms: C_1  and  C_2
REMARK    2  A    between atoms: C_2  and  O_3
REMARK    3  A    between atoms: O_3  and  C_4
REMARK    4  A    between atoms: C_13  and  C_14
REMARK    5  A    between atoms: C_20  and  C_21
REMARK    6  A    between atoms: C_24  and  O_25
REMARK    7  A    between atoms: O_25  and  C_26
REMARK    8  A    between atoms: C_26  and  C_27
REMARK    9  A    between atoms: C_27  and  N_28
REMARK   10  A    between atoms: N_28  and  C_29
REMARK   11  A    between atoms: N_28  and  C_30
REMARK                            x       y       z     vdW  Elec       q    Type
REMARK                         _______ _______ _______ _____ _____    ______ ____
ROOT
ATOM      1  C   UNL     1       1.371  10.417  19.054  0.00  0.00    +0.000 A 
ATOM      2  C   UNL     1       1.855   9.969  17.834  0.00  0.00    +0.000 A 
ATOM      3  C   UNL     1       2.301   8.656  17.703  0.00  0.00    +0.000 A 
ATOM      4  C   UNL     1       2.288   7.754  18.790  0.00  0.00    +0.000 A 
ATOM      5  C   UNL     1       1.776   8.195  20.024  0.00  0.00    +0.000 A 
ATOM      6  C   UNL     1       1.320   9.529  20.135  0.00  0.00    +0.000 A 
ATOM      7  C   UNL     1       1.829   7.340  21.271  0.00  0.00    +0.000 C 
ATOM      8  C   UNL     1       1.198   5.940  21.222  0.00  0.00    +0.000 C 
ATOM      9  C   UNL     1       0.980   5.341  19.838  0.00  0.00    +0.000 C 
ATOM     10  C   UNL     1       2.265   5.287  19.052  0.00  0.00    +0.000 C 
ATOM     11  C   UNL     1       2.885   6.397  18.576  0.00  0.00    +0.000 C 
ENDROOT
BRANCH  10  12
ATOM     12  C   UNL     1       2.789   3.916  18.854  0.00  0.00    +0.000 A 
ATOM     13  C   UNL     1       2.528   3.233  17.660  0.00  0.00    +0.000 A 
ATOM     14  C   UNL     1       3.022   1.943  17.461  0.00  0.00    +0.000 A 
ATOM     15  C   UNL     1       3.780   1.324  18.454  0.00  0.00    +0.000 A 
ATOM     16  C   UNL     1       4.044   1.996  19.647  0.00  0.00    +0.000 A 
ATOM     17  C   UNL     1       3.552   3.288  19.847  0.00  0.00    +0.000 A 
ENDBRANCH  10  12
BRANCH  11  18
ATOM     18  C   UNL     1       4.124   6.229  17.781  0.00  0.00    +0.000 A 
ATOM     19  C   UNL     1       5.279   5.773  18.417  0.00  0.00    +0.000 A 
ATOM     20  C   UNL     1       6.450   5.597  17.692  0.00  0.00    +0.000 A 
ATOM     21  C   UNL     1       6.493   5.895  16.324  0.00  0.00    +0.000 A 
ATOM     22  C   UNL     1       5.335   6.340  15.685  0.00  0.00    +0.000 A 
ATOM     23  C   UNL     1       4.149   6.500  16.408  0.00  0.00    +0.000 A 
BRANCH  21  24
ATOM     24  O   UNL     1       7.617   5.786  15.536  0.00  0.00    +0.000 OA
BRANCH  24  25
ATOM     25  C   UNL     1       7.337   5.305  14.218  0.00  0.00    +0.000 C 
BRANCH  25  26
ATOM     26  C   UNL     1       6.517   4.014  14.226  0.00  0.00    +0.000 C 
BRANCH  26  27
ATOM     27  N   UNL     1       6.367   3.455  12.863  0.00  0.00    +0.000 NA
ATOM     28  C   UNL     1       4.973   3.440  12.412  0.00  0.00    +0.000 C 
ATOM     29  C   UNL     1       7.190   4.202  11.914  0.00  0.00    +0.000 C 
ENDBRANCH  26  27
ENDBRANCH  25  26
ENDBRANCH  24  25
ENDBRANCH  21  24
ENDBRANCH  11  18
BRANCH   1  30
ATOM     30  O   UNL     1       0.940  11.694  19.308  0.00  0.00    +0.000 OA
BRANCH  30  32
ATOM     31  C   UNL     1       2.270  13.568  18.611  0.00  0.00    +0.000 C 
ATOM     32  C   UNL     1       1.124  12.642  18.251  0.00  0.00    +0.000 C 
ENDBRANCH  30  32
ENDBRANCH   1  30
TORSDOF 8
ENDMDL
MODEL 3
REMARK VINA RESULT:      -6.7      0.581      1.246
REMARK  Name = 
REMARK  11 active torsions:
REMARK  status: ('A' for Active; 'I' for Inactive)
REMARK    1  A    between atoms: C_1  and  C_2
REMARK    2  A    between atoms: C_2  and  O_3
REMARK    3  A    between atoms: O_3  and  C_4
REMARK    4  A    between atoms: C_13  and  C_14
REMARK    5  A    between atoms: C_20  and  C_21
REMARK    6  A    between atoms: C_24  and  O_25
REMARK    7  A    between atoms: O_25  and  C_26
REMARK    8  A    between atoms: C_26  and  C_27
REMARK    9  A    between atoms: C_27  and  N_28
REMARK   10  A    between atoms: N_28  and  C_29
REMARK   11  A    between atoms: N_28  and  C_30
REMARK                            x       y       z     vdW  Elec       q    Type
REMARK                         _______ _______ _______ _____ _____    ______ ____
ROOT
ATOM      1  C   UNL     1       1.237  10.313  18.870  0.00  0.00    +0.000 A 
ATOM      2  C   UNL     1       1.678   9.815  17.653  0.00  0.00    +0.000 A 
ATOM      3  C   UNL     1       2.155   8.510  17.568  0.00  0.00    +0.000 A 
ATOM      4  C   UNL     1       2.218   7.665  18.698  0.00  0.00    +0.000 A 
ATOM      5  C   UNL     1       1.750   8.156  19.931  0.00  0.00    +0.000 A 
ATOM      6  C   UNL     1       1.261   9.482  19.996  0.00  0.00    +0.000 A 
ATOM      7  C   UNL     1       1.885   7.368  21.216  0.00  0.00    +0.000 C 
ATOM      8  C   UNL     1       1.293   5.952  21.267  0.00  0.00    +0.000 C 
ATOM      9  C   UNL     1       1.030   5.276  19.927  0.00  0.00    +0.000 C 
ATOM     10  C   UNL     1       2.278   5.216  19.085  0.00  0.00    +0.000 C 
ATOM     11  C   UNL     1       2.843   6.315  18.525  0.00  0.00    +0.000 C 
ENDROOT
BRANCH  10  12
ATOM     12  C   UNL     1       2.832   3.850  18.932  0.00  0.00    +0.000 A 
ATOM     13  C   UNL     1       3.867   3.417  19.769  0.00  0.00    +0.000 A 
ATOM     14  C   UNL     1       4.392   2.131  19.636  0.00  0.00    +0.000 A 
ATOM     15  C   UNL     1       3.887   1.267  18.665  0.00  0.00    +0.000 A 
ATOM     16  C   UNL     1       2.857   1.690  17.826  0.00  0.00    +0.000 A 
ATOM     17  C   UNL     1       2.329   2.977  17.959  0.00  0.00    +0.000 A 
ENDBRANCH  10  12
BRANCH  11  18
ATOM     18  C   UNL     1       4.049   6.139  17.682  0.00  0.00    +0.000 A 
ATOM     19  C   UNL     1       5.272   6.628  18.140  0.00  0.00    +0.000 A 
ATOM     20  C   UNL     1       6.418   6.467  17.374  0.00  0.00    +0.000 A 
ATOM     21  C   UNL     1       6.358   5.833  16.126  0.00  0.00    +0.000 A 
ATOM     22  C   UNL     1       5.136   5.334  15.672  0.00  0.00    +0.000 A 
ATOM     23  C   UNL     1       3.984   5.478  16.450  0.00  0.00    +0.000 A 
BRANCH  21  24
ATOM     24  O   UNL     1       7.434   5.662  15.284  0.00  0.00    +0.000 OA
BRANCH  24  25
ATOM     25  C   UNL     1       7.389   4.433  14.554  0.00  0.00    +0.000 C 
BRANCH  25  26
ATOM     26  C   UNL     1       6.857   4.614  13.131  0.00  0.00    +0.000 C 
BRANCH  26  27
ATOM     27  N   UNL     1       6.291   3.355  12.597  0.00  0.00    +0.000 NA
ATOM     28  C   UNL     1       4.949   3.537  12.036  0.00  0.00    +0.000 C 
ATOM     29  C   UNL     1       7.180   2.785  11.587  0.00  0.00    +0.000 C 
ENDBRANCH  26  27
ENDBRANCH  25  26
ENDBRANCH  24  25
ENDBRANCH  21  24
ENDBRANCH  11  18
BRANCH   1  30
ATOM     30  O   UNL     1       0.782  11.590  19.080  0.00  0.00    +0.000 OA
BRANCH  30  32
ATOM     31  C   UNL     1      -1.443  11.899  18.233  0.00  0.00    +0.000 C 
ATOM     32  C   UNL     1      -0.589  11.712  19.472  0.00  0.00    +0.000 C 
ENDBRANCH  30  32
ENDBRANCH   1  30
TORSDOF 8
ENDMDL
MODEL 4
REMARK VINA RESULT:      -6.7      4.339     10.032
REMARK  Name = 
REMARK  11 active torsions:
REMARK  status: ('A' for Active; 'I' for Inactive)
REMARK    1  A    between atoms: C_1  and  C_2
REMARK    2  A    between atoms: C_2  and  O_3
REMARK    3  A    between atoms: O_3  and  C_4
REMARK    4  A    between atoms: C_13  and  C_14
REMARK    5  A    between atoms: C_20  and  C_21
REMARK    6  A    between atoms: C_24  and  O_25
REMARK    7  A    between atoms: O_25  and  C_26
REMARK    8  A    between atoms: C_26  and  C_27
REMARK    9  A    between atoms: C_27  and  N_28
REMARK   10  A    between atoms: N_28  and  C_29
REMARK   11  A    between atoms: N_28  and  C_30
REMARK                            x       y       z     vdW  Elec       q    Type
REMARK                         _______ _______ _______ _____ _____    ______ ____
ROOT
ATOM      1  C   UNL     1       2.940   7.138  18.214  0.00  0.00    +0.000 A 
ATOM      2  C   UNL     1       2.482   8.182  17.425  0.00  0.00    +0.000 A 
ATOM      3  C   UNL     1       1.628   9.139  17.966  0.00  0.00    +0.000 A 
ATOM      4  C   UNL     1       1.194   9.076  19.308  0.00  0.00    +0.000 A 
ATOM      5  C   UNL     1       1.674   8.032  20.122  0.00  0.00    +0.000 A 
ATOM      6  C   UNL     1       2.548   7.075  19.556  0.00  0.00    +0.000 A 
ATOM      7  C   UNL     1       1.177   7.816  21.534  0.00  0.00    +0.000 C 
ATOM      8  C   UNL     1       1.283   8.981  22.530  0.00  0.00    +0.000 C 
ATOM      9  C   UNL     1       1.445  10.374  21.932  0.00  0.00    +0.000 C 
ATOM     10  C   UNL     1       0.327  10.696  20.975  0.00  0.00    +0.000 C 
ATOM     11  C   UNL     1       0.194  10.092  19.767  0.00  0.00    +0.000 C 
ENDROOT
BRANCH  10  12
ATOM     12  C   UNL     1      -0.613  11.726  21.476  0.00  0.00    +0.000 A 
ATOM     13  C   UNL     1      -0.457  13.063  21.089  0.00  0.00    +0.000 A 
ATOM     14  C   UNL     1      -1.340  14.039  21.552  0.00  0.00    +0.000 A 
ATOM     15  C   UNL     1      -2.386  13.689  22.405  0.00  0.00    +0.000 A 
ATOM     16  C   UNL     1      -2.548  12.361  22.797  0.00  0.00    +0.000 A 
ATOM     17  C   UNL     1      -1.666  11.381  22.334  0.00  0.00    +0.000 A 
ENDBRANCH  10  12
BRANCH  11  18
ATOM     18  C   UNL     1      -0.920  10.512  18.885  0.00  0.00    +0.000 A 
ATOM     19  C   UNL     1      -0.831  11.736  18.220  0.00  0.00    +0.000 A 
ATOM     20  C   UNL     1      -1.856  12.149  17.380  0.00  0.00    +0.000 A 
ATOM     21  C   UNL     1      -2.998  11.356  17.206  0.00  0.00    +0.000 A 
ATOM     22  C   UNL     1      -3.083  10.127  17.862  0.00  0.00    +0.000 A 
ATOM     23  C   UNL     1      -2.043   9.700  18.693  0.00  0.00    +0.000 A 
BRANCH  21  24
ATOM     24  O   UNL     1      -4.077  11.702  16.424  0.00  0.00    +0.000 OA
BRANCH  24  25
ATOM     25  C   UNL     1      -5.335  11.463  17.061  0.00  0.00    +0.000 C 
BRANCH  25  26
ATOM     26  C   UNL     1      -6.208  12.718  17.127  0.00  0.00    +0.000 C 
BRANCH  26  27
ATOM     27  N   UNL     1      -7.410  12.502  17.964  0.00  0.00    +0.000 NA
ATOM     28  C   UNL     1      -7.170  11.560  19.060  0.00  0.00    +0.000 C 
ATOM     29  C   UNL     1      -7.894  13.773  18.497  0.00  0.00    +0.000 C 
ENDBRANCH  26  27
ENDBRANCH  25  26
ENDBRANCH  24  25
ENDBRANCH  21  24
ENDBRANCH  11  18
BRANCH   1  30
ATOM     30  O   UNL     1       3.754   6.122  17.780  0.00  0.00    +0.000 OA
BRANCH  30  32
ATOM     31  C   UNL     1       6.032   6.741  17.345  0.00  0.00    +0.000 C 
ATOM     32  C   UNL     1       4.673   6.456  16.736  0.00  0.00    +0.000 C 
ENDBRANCH  30  32
ENDBRANCH   1  30
TORSDOF 8
ENDMDL
MODEL 5
REMARK VINA RESULT:      -6.7      8.503     12.249
REMARK  Name = 
REMARK  11 active torsions:
REMARK  status: ('A' for Active; 'I' for Inactive)
REMARK    1  A    between atoms: C_1  and  C_2
REMARK    2  A    between atoms: C_2  and  O_3
REMARK    3  A    between atoms: O_3  and  C_4
REMARK    4  A    between atoms: C_13  and  C_14
REMARK    5  A    between atoms: C_20  and  C_21
REMARK    6  A    between atoms: C_24  and  O_25
REMARK    7  A    between atoms: O_25  and  C_26
REMARK    8  A    between atoms: C_26  and  C_27
REMARK    9  A    between atoms: C_27  and  N_28
REMARK   10  A    between atoms: N_28  and  C_29
REMARK   11  A    between atoms: N_28  and  C_30
REMARK                            x       y       z     vdW  Elec       q    Type
REMARK                         _______ _______ _______ _____ _____    ______ ____
ROOT
ATOM      1  C   UNL     1       8.649   9.696  18.382  0.00  0.00    +0.000 A 
ATOM      2  C   UNL     1       7.905  10.650  17.703  0.00  0.00    +0.000 A 
ATOM      3  C   UNL     1       8.241  11.997  17.806  0.00  0.00    +0.000 A 
ATOM      4  C   UNL     1       9.323  12.435  18.600  0.00  0.00    +0.000 A 
ATOM      5  C   UNL     1      10.098  11.471  19.273  0.00  0.00    +0.000 A 
ATOM      6  C   UNL     1       9.745  10.107  19.148  0.00  0.00    +0.000 A 
ATOM      7  C   UNL     1      11.201  11.851  20.236  0.00  0.00    +0.000 C 
ATOM      8  C   UNL     1      12.324  12.769  19.731  0.00  0.00    +0.000 C 
ATOM      9  C   UNL     1      12.024  13.587  18.480  0.00  0.00    +0.000 C 
ATOM     10  C   UNL     1      10.791  14.435  18.659  0.00  0.00    +0.000 C 
ATOM     11  C   UNL     1       9.540  13.911  18.730  0.00  0.00    +0.000 C 
ENDROOT
BRANCH  10  12
ATOM     12  C   UNL     1      11.071  15.886  18.754  0.00  0.00    +0.000 A 
ATOM     13  C   UNL     1      11.213  16.490  20.010  0.00  0.00    +0.000 A 
ATOM     14  C   UNL     1      11.483  17.855  20.110  0.00  0.00    +0.000 A 
ATOM     15  C   UNL     1      11.611  18.629  18.957  0.00  0.00    +0.000 A 
ATOM     16  C   UNL     1      11.469  18.037  17.703  0.00  0.00    +0.000 A 
ATOM     17  C   UNL     1      11.201  16.670  17.600  0.00  0.00    +0.000 A 
ENDBRANCH  10  12
BRANCH  11  18
ATOM     18  C   UNL     1       8.393  14.838  18.866  0.00  0.00    +0.000 A 
ATOM     19  C   UNL     1       7.912  15.490  17.730  0.00  0.00    +0.000 A 
ATOM     20  C   UNL     1       6.831  16.356  17.829  0.00  0.00    +0.000 A 
ATOM     21  C   UNL     1       6.226  16.603  19.068  0.00  0.00    +0.000 A 
ATOM     22  C   UNL     1       6.700  15.942  20.203  0.00  0.00    +0.000 A 
ATOM     23  C   UNL     1       7.775  15.055  20.103  0.00  0.00    +0.000 A 
BRANCH  21  24
ATOM     24  O   UNL     1       5.176  17.472  19.265  0.00  0.00    +0.000 OA
BRANCH  24  25
ATOM     25  C   UNL     1       3.944  16.808  19.559  0.00  0.00    +0.000 C 
BRANCH  25  26
ATOM     26  C   UNL     1       3.214  16.338  18.299  0.00  0.00    +0.000 C 
BRANCH  26  27
ATOM     27  N   UNL     1       2.414  15.119  18.556  0.00  0.00    +0.000 NA
ATOM     28  C   UNL     1       3.104  14.168  19.432  0.00  0.00    +0.000 C 
ATOM     29  C   UNL     1       1.117  15.474  19.129  0.00  0.00    +0.000 C 
ENDBRANCH  26  27
ENDBRANCH  25  26
ENDBRANCH  24  25
ENDBRANCH  21  24
ENDBRANCH  11  18
BRANCH   1  30
ATOM     30  O   UNL     1       8.389   8.349  18.383  0.00  0.00    +0.000 OA
BRANCH  30  32
ATOM     31  C   UNL     1       7.255   6.399  17.562  0.00  0.00    +0.000 C 
ATOM     32  C   UNL     1       7.532   7.874  17.340  0.00  0.00    +0.000 C 
ENDBRANCH  30  32
ENDBRANCH   1  30
TORSDOF 8
ENDMDL
MODEL 6
REMARK VINA RESULT:      -6.7      4.358     10.045
REMARK  Name = 
REMARK  11 active torsions:
REMARK  status: ('A' for Active; 'I' for Inactive)
REMARK    1  A    between atoms: C_1  and  C_2
REMARK    2  A    between atoms: C_2  and  O_3
REMARK    3  A    between atoms: O_3  and  C_4
REMARK    4  A    between atoms: C_13  and  C_14
REMARK    5  A    between atoms: C_20  and  C_21
REMARK    6  A    between atoms: C_24  and  O_25
REMARK    7  A    between atoms: O_25  and  C_26
REMARK    8  A    between atoms: C_26  and  C_27
REMARK    9  A    between atoms: C_27  and  N_28
REMARK   10  A    between atoms: N_28  and  C_29
REMARK   11  A    between atoms: N_28  and  C_30
REMARK                            x       y       z     vdW  Elec       q    Type
REMARK                         _______ _______ _______ _____ _____    ______ ____
ROOT
ATOM      1  C   UNL     1       2.767   7.215  18.374  0.00  0.00    +0.000 A 
ATOM      2  C   UNL     1       2.251   8.170  17.511  0.00  0.00    +0.000 A 
ATOM      3  C   UNL     1       1.364   9.132  17.989  0.00  0.00    +0.000 A 
ATOM      4  C   UNL     1       0.957   9.162  19.341  0.00  0.00    +0.000 A 
ATOM      5  C   UNL     1       1.496   8.210  20.227  0.00  0.00    +0.000 A 
ATOM      6  C   UNL     1       2.401   7.247  19.724  0.00  0.00    +0.000 A 
ATOM      7  C   UNL     1       1.032   8.091  21.662  0.00  0.00    +0.000 C 
ATOM      8  C   UNL     1       1.104   9.338  22.557  0.00  0.00    +0.000 C 
ATOM      9  C   UNL     1       1.196  10.682  21.844  0.00  0.00    +0.000 C 
ATOM     10  C   UNL     1       0.048  10.877  20.886  0.00  0.00    +0.000 C 
ATOM     11  C   UNL     1      -0.079  10.169  19.735  0.00  0.00    +0.000 C 
ENDROOT
BRANCH  10  12
ATOM     12  C   UNL     1      -0.926  11.904  21.321  0.00  0.00    +0.000 A 
ATOM     13  C   UNL     1      -2.002  11.545  22.141  0.00  0.00    +0.000 A 
ATOM     14  C   UNL     1      -2.922  12.507  22.560  0.00  0.00    +0.000 A 
ATOM     15  C   UNL     1      -2.776  13.835  22.162  0.00  0.00    +0.000 A 
ATOM     16  C   UNL     1      -1.709  14.202  21.344  0.00  0.00    +0.000 A 
ATOM     17  C   UNL     1      -0.785  13.241  20.925  0.00  0.00    +0.000 A 
ENDBRANCH  10  12
BRANCH  11  18
ATOM     18  C   UNL     1      -1.224  10.469  18.844  0.00  0.00    +0.000 A 
ATOM     19  C   UNL     1      -1.192  11.627  18.067  0.00  0.00    +0.000 A 
ATOM     20  C   UNL     1      -2.248  11.925  17.217  0.00  0.00    +0.000 A 
ATOM     21  C   UNL     1      -3.365  11.082  17.145  0.00  0.00    +0.000 A 
ATOM     22  C   UNL     1      -3.393   9.918  17.914  0.00  0.00    +0.000 A 
ATOM     23  C   UNL     1      -2.322   9.605  18.757  0.00  0.00    +0.000 A 
BRANCH  21  24
ATOM     24  O   UNL     1      -4.472  11.318  16.359  0.00  0.00    +0.000 OA
BRANCH  24  25
ATOM     25  C   UNL     1      -5.396  12.236  16.949  0.00  0.00    +0.000 C 
BRANCH  25  26
ATOM     26  C   UNL     1      -6.506  11.531  17.731  0.00  0.00    +0.000 C 
BRANCH  26  27
ATOM     27  N   UNL     1      -6.684  12.121  19.077  0.00  0.00    +0.000 NA
ATOM     28  C   UNL     1      -6.993  11.114  20.096  0.00  0.00    +0.000 C 
ATOM     29  C   UNL     1      -5.492  12.872  19.465  0.00  0.00    +0.000 C 
ENDBRANCH  26  27
ENDBRANCH  25  26
ENDBRANCH  24  25
ENDBRANCH  21  24
ENDBRANCH  11  18
BRANCH   1  30
ATOM     30  O   UNL     1       3.616   6.202  18.008  0.00  0.00    +0.000 OA
BRANCH  30  32
ATOM     31  C   UNL     1       5.677   5.192  18.712  0.00  0.00    +0.000 C 
ATOM     32  C   UNL     1       4.235   5.483  19.079  0.00  0.00    +0.000 C 
ENDBRANCH  30  32
ENDBRANCH   1  30
TORSDOF 8
ENDMDL
MODEL 7
REMARK VINA RESULT:      -6.6      8.780     12.630
REMARK  Name = 
REMARK  11 active torsions:
REMARK  status: ('A' for Active; 'I' for Inactive)
REMARK    1  A    between atoms: C_1  and  C_2
REMARK    2  A    between atoms: C_2  and  O_3
REMARK    3  A    between atoms: O_3  and  C_4
REMARK    4  A    between atoms: C_13  and  C_14
REMARK    5  A    between atoms: C_20  and  C_21
REMARK    6  A    between atoms: C_24  and  O_25
REMARK    7  A    between atoms: O_25  and  C_26
REMARK    8  A    between atoms: C_26  and  C_27
REMARK    9  A    between atoms: C_27  and  N_28
REMARK   10  A    between atoms: N_28  and  C_29
REMARK   11  A    between atoms: N_28  and  C_30
REMARK                            x       y       z     vdW  Elec       q    Type
REMARK                         _______ _______ _______ _____ _____    ______ ____
ROOT
ATOM      1  C   UNL     1      -3.139  10.917  16.617  0.00  0.00    +0.000 A 
ATOM      2  C   UNL     1      -2.505  10.854  17.850  0.00  0.00    +0.000 A 
ATOM      3  C   UNL     1      -3.121  11.392  18.976  0.00  0.00    +0.000 A 
ATOM      4  C   UNL     1      -4.384  12.021  18.905  0.00  0.00    +0.000 A 
ATOM      5  C   UNL     1      -5.044  12.066  17.662  0.00  0.00    +0.000 A 
ATOM      6  C   UNL     1      -4.405  11.506  16.531  0.00  0.00    +0.000 A 
ATOM      7  C   UNL     1      -6.342  12.818  17.465  0.00  0.00    +0.000 C 
ATOM      8  C   UNL     1      -7.533  12.465  18.370  0.00  0.00    +0.000 C 
ATOM      9  C   UNL     1      -7.208  11.737  19.669  0.00  0.00    +0.000 C 
ATOM     10  C   UNL     1      -6.219  12.511  20.502  0.00  0.00    +0.000 C 
ATOM     11  C   UNL     1      -4.916  12.660  20.150  0.00  0.00    +0.000 C 
ENDROOT
BRANCH  10  12
ATOM     12  C   UNL     1      -6.801  13.096  21.732  0.00  0.00    +0.000 A 
ATOM     13  C   UNL     1      -7.337  14.389  21.705  0.00  0.00    +0.000 A 
ATOM     14  C   UNL     1      -7.892  14.947  22.858  0.00  0.00    +0.000 A 
ATOM     15  C   UNL     1      -7.916  14.218  24.046  0.00  0.00    +0.000 A 
ATOM     16  C   UNL     1      -7.384  12.930  24.082  0.00  0.00    +0.000 A 
ATOM     17  C   UNL     1      -6.828  12.369  22.929  0.00  0.00    +0.000 A 
ENDBRANCH  10  12
BRANCH  11  18
ATOM     18  C   UNL     1      -4.019  13.408  21.063  0.00  0.00    +0.000 A 
ATOM     19  C   UNL     1      -3.814  14.770  20.843  0.00  0.00    +0.000 A 
ATOM     20  C   UNL     1      -2.986  15.495  21.689  0.00  0.00    +0.000 A 
ATOM     21  C   UNL     1      -2.332  14.868  22.757  0.00  0.00    +0.000 A 
ATOM     22  C   UNL     1      -2.546  13.507  22.984  0.00  0.00    +0.000 A 
ATOM     23  C   UNL     1      -3.394  12.778  22.145  0.00  0.00    +0.000 A 
BRANCH  21  24
ATOM     24  O   UNL     1      -1.467  15.499  23.622  0.00  0.00    +0.000 OA
BRANCH  24  25
ATOM     25  C   UNL     1      -0.458  16.262  22.954  0.00  0.00    +0.000 C 
BRANCH  25  26
ATOM     26  C   UNL     1       0.665  15.388  22.393  0.00  0.00    +0.000 C 
BRANCH  26  27
ATOM     27  N   UNL     1       1.997  15.873  22.817  0.00  0.00    +0.000 NA
ATOM     28  C   UNL     1       2.912  16.062  21.688  0.00  0.00    +0.000 C 
ATOM     29  C   UNL     1       1.869  17.121  23.567  0.00  0.00    +0.000 C 
ENDBRANCH  26  27
ENDBRANCH  25  26
ENDBRANCH  24  25
ENDBRANCH  21  24
ENDBRANCH  11  18
BRANCH   1  30
ATOM     30  O   UNL     1      -2.613  10.454  15.438  0.00  0.00    +0.000 OA
BRANCH  30  32
ATOM     31  C   UNL     1      -2.815   9.566  13.216  0.00  0.00    +0.000 C 
ATOM     32  C   UNL     1      -3.559  10.120  14.417  0.00  0.00    +0.000 C 
ENDBRANCH  30  32
ENDBRANCH   1  30
TORSDOF 8
ENDMDL
MODEL 8
REMARK VINA RESULT:      -6.6      4.217     10.076
REMARK  Name = 
REMARK  11 active torsions:
REMARK  status: ('A' for Active; 'I' for Inactive)
REMARK    1  A    between atoms: C_1  and  C_2
REMARK    2  A    between atoms: C_2  and  O_3
REMARK    3  A    between atoms: O_3  and  C_4
REMARK    4  A    between atoms: C_13  and  C_14
REMARK    5  A    between atoms: C_20  and  C_21
REMARK    6  A    between atoms: C_24  and  O_25
REMARK    7  A    between atoms: O_25  and  C_26
REMARK    8  A    between atoms: C_26  and  C_27
REMARK    9  A    between atoms: C_27  and  N_28
REMARK   10  A    between atoms: N_28  and  C_29
REMARK   11  A    between atoms: N_28  and  C_30
REMARK                            x       y       z     vdW  Elec       q    Type
REMARK                         _______ _______ _______ _____ _____    ______ ____
ROOT
ATOM      1  C   UNL     1       2.765   7.354  18.244  0.00  0.00    +0.000 A 
ATOM      2  C   UNL     1       2.226   8.337  17.427  0.00  0.00    +0.000 A 
ATOM      3  C   UNL     1       1.326   9.261  17.953  0.00  0.00    +0.000 A 
ATOM      4  C   UNL     1       0.927   9.223  19.307  0.00  0.00    +0.000 A 
ATOM      5  C   UNL     1       1.490   8.243  20.147  0.00  0.00    +0.000 A 
ATOM      6  C   UNL     1       2.408   7.320  19.596  0.00  0.00    +0.000 A 
ATOM      7  C   UNL     1       1.038   8.052  21.579  0.00  0.00    +0.000 C 
ATOM      8  C   UNL     1       1.094   9.259  22.527  0.00  0.00    +0.000 C 
ATOM      9  C   UNL     1       1.156  10.635  21.874  0.00  0.00    +0.000 C 
ATOM     10  C   UNL     1      -0.001  10.851  20.933  0.00  0.00    +0.000 C 
ATOM     11  C   UNL     1      -0.123  10.193  19.752  0.00  0.00    +0.000 C 
ENDROOT
BRANCH  10  12
ATOM     12  C   UNL     1      -0.991  11.840  21.418  0.00  0.00    +0.000 A 
ATOM     13  C   UNL     1      -0.944  13.161  20.956  0.00  0.00    +0.000 A 
ATOM     14  C   UNL     1      -1.876  14.099  21.403  0.00  0.00    +0.000 A 
ATOM     15  C   UNL     1      -2.861  13.726  22.317  0.00  0.00    +0.000 A 
ATOM     16  C   UNL     1      -2.914  12.413  22.784  0.00  0.00    +0.000 A 
ATOM     17  C   UNL     1      -1.983  11.473  22.336  0.00  0.00    +0.000 A 
ENDBRANCH  10  12
BRANCH  11  18
ATOM     18  C   UNL     1      -1.281  10.510  18.883  0.00  0.00    +0.000 A 
ATOM     19  C   UNL     1      -1.280  11.707  18.166  0.00  0.00    +0.000 A 
ATOM     20  C   UNL     1      -2.347  12.024  17.337  0.00  0.00    +0.000 A 
ATOM     21  C   UNL     1      -3.444  11.160  17.226  0.00  0.00    +0.000 A 
ATOM     22  C   UNL     1      -3.440   9.957  17.934  0.00  0.00    +0.000 A 
ATOM     23  C   UNL     1      -2.358   9.627  18.755  0.00  0.00    +0.000 A 
BRANCH  21  24
ATOM     24  O   UNL     1      -4.560  11.409  16.458  0.00  0.00    +0.000 OA
BRANCH  24  25
ATOM     25  C   UNL     1      -5.445  12.367  17.045  0.00  0.00    +0.000 C 
BRANCH  25  26
ATOM     26  C   UNL     1      -6.715  11.725  17.607  0.00  0.00    +0.000 C 
BRANCH  26  27
ATOM     27  N   UNL     1      -6.615  11.507  19.067  0.00  0.00    +0.000 NA
ATOM     28  C   UNL     1      -7.471  12.418  19.832  0.00  0.00    +0.000 C 
ATOM     29  C   UNL     1      -6.943  10.121  19.399  0.00  0.00    +0.000 C 
ENDBRANCH  26  27
ENDBRANCH  25  26
ENDBRANCH  24  25
ENDBRANCH  21  24
ENDBRANCH  11  18
BRANCH   1  30
ATOM     30  O   UNL     1       3.630   6.374  17.828  0.00  0.00    +0.000 OA
BRANCH  30  32
ATOM     31  C   UNL     1       3.554   3.995  18.145  0.00  0.00    +0.000 C 
ATOM     32  C   UNL     1       3.899   5.332  18.772  0.00  0.00    +0.000 C 
ENDBRANCH  30  32
ENDBRANCH   1  30
TORSDOF 8
ENDMDL
MODEL 9
REMARK VINA RESULT:      -6.5      4.241      9.957
REMARK  Name = 
REMARK  11 active torsions:
REMARK  status: ('A' for Active; 'I' for Inactive)
REMARK    1  A    between atoms: C_1  and  C_2
REMARK    2  A    between atoms: C_2  and  O_3
REMARK    3  A    between atoms: O_3  and  C_4
REMARK    4  A    between atoms: C_13  and  C_14
REMARK    5  A    between atoms: C_20  and  C_21
REMARK    6  A    between atoms: C_24  and  O_25
REMARK    7  A    between atoms: O_25  and  C_26
REMARK    8  A    between atoms: C_26  and  C_27
REMARK    9  A    between atoms: C_27  and  N_28
REMARK   10  A    between atoms: N_28  and  C_29
REMARK   11  A    between atoms: N_28  and  C_30
REMARK                            x       y       z     vdW  Elec       q    Type
REMARK                         _______ _______ _______ _____ _____    ______ ____
ROOT
ATOM      1  C   UNL     1       2.822   7.052  18.279  0.00  0.00    +0.000 A 
ATOM      2  C   UNL     1       2.337   8.043  17.437  0.00  0.00    +0.000 A 
ATOM      3  C   UNL     1       1.489   9.027  17.939  0.00  0.00    +0.000 A 
ATOM      4  C   UNL     1       1.088   9.044  19.293  0.00  0.00    +0.000 A 
ATOM      5  C   UNL     1       1.596   8.056  20.158  0.00  0.00    +0.000 A 
ATOM      6  C   UNL     1       2.463   7.071  19.631  0.00  0.00    +0.000 A 
ATOM      7  C   UNL     1       1.134   7.926  21.592  0.00  0.00    +0.000 C 
ATOM      8  C   UNL     1       1.255   9.151  22.511  0.00  0.00    +0.000 C 
ATOM      9  C   UNL     1       1.392  10.505  21.824  0.00  0.00    +0.000 C 
ATOM     10  C   UNL     1       0.249  10.760  20.876  0.00  0.00    +0.000 C 
ATOM     11  C   UNL     1       0.092  10.081  19.712  0.00  0.00    +0.000 C 
ENDROOT
BRANCH  10  12
ATOM     12  C   UNL     1      -0.686  11.813  21.335  0.00  0.00    +0.000 A 
ATOM     13  C   UNL     1      -1.841  11.463  22.045  0.00  0.00    +0.000 A 
ATOM     14  C   UNL     1      -2.724  12.448  22.487  0.00  0.00    +0.000 A 
ATOM     15  C   UNL     1      -2.463  13.792  22.222  0.00  0.00    +0.000 A 
ATOM     16  C   UNL     1      -1.316  14.151  21.514  0.00  0.00    +0.000 A 
ATOM     17  C   UNL     1      -0.429  13.166  21.073  0.00  0.00    +0.000 A 
ENDBRANCH  10  12
BRANCH  11  18
ATOM     18  C   UNL     1      -1.046  10.439  18.833  0.00  0.00    +0.000 A 
ATOM     19  C   UNL     1      -2.081   9.520  18.657  0.00  0.00    +0.000 A 
ATOM     20  C   UNL     1      -3.163   9.835  17.847  0.00  0.00    +0.000 A 
ATOM     21  C   UNL     1      -3.220  11.065  17.180  0.00  0.00    +0.000 A 
ATOM     22  C   UNL     1      -2.191  11.990  17.364  0.00  0.00    +0.000 A 
ATOM     23  C   UNL     1      -1.109  11.683  18.195  0.00  0.00    +0.000 A 
BRANCH  21  24
ATOM     24  O   UNL     1      -4.234  11.447  16.330  0.00  0.00    +0.000 OA
BRANCH  24  25
ATOM     25  C   UNL     1      -5.275  12.175  16.987  0.00  0.00    +0.000 C 
BRANCH  25  26
ATOM     26  C   UNL     1      -6.161  11.279  17.855  0.00  0.00    +0.000 C 
BRANCH  26  27
ATOM     27  N   UNL     1      -6.069  11.644  19.286  0.00  0.00    +0.000 NA
ATOM     28  C   UNL     1      -5.338  12.897  19.501  0.00  0.00    +0.000 C 
ATOM     29  C   UNL     1      -7.404  11.740  19.875  0.00  0.00    +0.000 C 
ENDBRANCH  26  27
ENDBRANCH  25  26
ENDBRANCH  24  25
ENDBRANCH  21  24
ENDBRANCH  11  18
BRANCH   1  30
ATOM     30  O   UNL     1       3.632   6.016  17.889  0.00  0.00    +0.000 OA
BRANCH  30  32
ATOM     31  C   UNL     1       5.644   5.202  18.917  0.00  0.00    +0.000 C 
ATOM     32  C   UNL     1       5.041   6.246  17.996  0.00  0.00    +0.000 C 
ENDBRANCH  30  32
ENDBRANCH   1  30
TORSDOF 8
ENDMDL
