MODEL 1
REMARK VINA RESULT:      -6.0      0.000      0.000
REMARK  Name = 
REMARK  8 active torsions:
REMARK  status: ('A' for Active; 'I' for Inactive)
REMARK    1  A    between atoms: C_1  and  O_2
REMARK    2  A    between atoms: O_2  and  C_3
REMARK    3  A    between atoms: C_3  and  C_4
REMARK    4  A    between atoms: C_4  and  N_5
REMARK    5  A    between atoms: N_5  and  C_13
REMARK    6  A    between atoms: N_25  and  C_26
REMARK    7  A    between atoms: C_26  and  C_27
REMARK    8  A    between atoms: C_27  and  O_29
REMARK                            x       y       z     vdW  Elec       q    Type
REMARK                         _______ _______ _______ _____ _____    ______ ____
ROOT
ATOM      1  C   UNL     1       1.269   9.601  18.089  0.00  0.00    +0.000 C 
ATOM      2  C   UNL     1      -0.268   9.710  17.891  0.00  0.00    +0.000 C 
ATOM      3  C   UNL     1      -1.016  10.375  19.062  0.00  0.00    +0.000 C 
ATOM      4  C   UNL     1      -0.223  11.527  19.599  0.00  0.00    +0.000 A 
ATOM      5  C   UNL     1       1.077  11.826  19.245  0.00  0.00    +0.000 A 
ATOM      6  C   UNL     1       1.502  12.922  20.027  0.00  0.00    +0.000 A 
ATOM      7  C   UNL     1       2.715  13.633  20.092  0.00  0.00    +0.000 A 
ATOM      8  C   UNL     1       2.841  14.659  21.020  0.00  0.00    +0.000 A 
ATOM      9  F   UNL     1       3.989  15.344  21.084  0.00  0.00    +0.000 F 
ATOM     10  C   UNL     1       1.802  14.979  21.883  0.00  0.00    +0.000 A 
ATOM     11  C   UNL     1       0.589  14.283  21.839  0.00  0.00    +0.000 A 
ATOM     12  C   UNL     1       0.451  13.251  20.893  0.00  0.00    +0.000 A 
ATOM     13  N   UNL     1      -0.603  12.389  20.603  0.00  0.00    +0.000 N 
ATOM     14  C   UNL     1       1.869  11.018  18.265  0.00  0.00    +0.000 C 
ENDROOT
BRANCH   1  15
ATOM     15  N   UNL     1       1.654   8.655  19.169  0.00  0.00    +0.000 N 
ATOM     16  C   UNL     1       2.369   7.549  18.754  0.00  0.00    +0.000 A 
ATOM     17  N   UNL     1       2.026   6.328  19.201  0.00  0.00    +0.000 NA
ATOM     18  C   UNL     1       2.853   5.299  18.912  0.00  0.00    +0.000 A 
ATOM     19  C   UNL     1       4.003   5.433  18.181  0.00  0.00    +0.000 A 
ATOM     20 CL   UNL     1       5.065   4.128  17.893  0.00  0.00    +0.000 Cl
ATOM     21  C   UNL     1       4.240   6.697  17.706  0.00  0.00    +0.000 A 
ATOM     22  N   UNL     1       3.432   7.750  17.955  0.00  0.00    +0.000 NA
BRANCH  15  23
ATOM     23  C   UNL     1       0.914   8.592  20.441  0.00  0.00    +0.000 C 
BRANCH  23  24
ATOM     24  C   UNL     1       1.668   8.957  21.731  0.00  0.00    +0.000 C 
BRANCH  24  26
ATOM     25  C   UNL     1      -0.146   9.584  23.078  0.00  0.00    +0.000 C 
ATOM     26  O   UNL     1       1.036  10.031  22.428  0.00  0.00    +0.000 OA
ENDBRANCH  24  26
ENDBRANCH  23  24
ENDBRANCH  15  23
ENDBRANCH   1  15
BRANCH  13  27
ATOM     27  C   UNL     1      -1.909  12.393  21.254  0.00  0.00    +0.000 C 
BRANCH  27  28
ATOM     28  C   UNL     1      -2.927  13.309  20.625  0.00  0.00    +0.000 C 
ATOM     29  O   UNL     1      -3.212  14.402  21.100  0.00  0.00    +0.000 OA
BRANCH  28  30
ATOM     30  O   UNL     1      -3.594  12.829  19.551  0.00  0.00    +0.000 OA
ATOM     31  H   UNL     1      -3.237  12.003  19.172  0.00  0.00    +0.000 HD
ENDBRANCH  28  30
ENDBRANCH  27  28
ENDBRANCH  13  27
TORSDOF 7
ENDMDL
MODEL 2
REMARK VINA RESULT:      -6.0      4.712      6.644
REMARK  Name = 
REMARK  8 active torsions:
REMARK  status: ('A' for Active; 'I' for Inactive)
REMARK    1  A    between atoms: C_1  and  O_2
REMARK    2  A    between atoms: O_2  and  C_3
REMARK    3  A    between atoms: C_3  and  C_4
REMARK    4  A    between atoms: C_4  and  N_5
REMARK    5  A    between atoms: N_5  and  C_13
REMARK    6  A    between atoms: N_25  and  C_26
REMARK    7  A    between atoms: C_26  and  C_27
REMARK    8  A    between atoms: C_27  and  O_29
REMARK                            x       y       z     vdW  Elec       q    Type
REMARK                         _______ _______ _______ _____ _____    ______ ____
ROOT
ATOM      1  C   UNL     1      -0.055  12.485  21.077  0.00  0.00    +0.000 C 
ATOM      2  C   UNL     1      -1.141  12.462  22.189  0.00  0.00    +0.000 C 
ATOM      3  C   UNL     1      -2.550  12.862  21.710  0.00  0.00    +0.000 C 
ATOM      4  C   UNL     1      -2.821  12.288  20.353  0.00  0.00    +0.000 A 
ATOM      5  C   UNL     1      -1.882  11.670  19.553  0.00  0.00    +0.000 A 
ATOM      6  C   UNL     1      -2.499  11.348  18.324  0.00  0.00    +0.000 A 
ATOM      7  C   UNL     1      -2.025  10.724  17.155  0.00  0.00    +0.000 A 
ATOM      8  C   UNL     1      -2.884  10.588  16.073  0.00  0.00    +0.000 A 
ATOM      9  F   UNL     1      -2.443   9.991  14.959  0.00  0.00    +0.000 F 
ATOM     10  C   UNL     1      -4.186  11.067  16.125  0.00  0.00    +0.000 A 
ATOM     11  C   UNL     1      -4.678  11.695  17.275  0.00  0.00    +0.000 A 
ATOM     12  C   UNL     1      -3.815  11.824  18.379  0.00  0.00    +0.000 A 
ATOM     13  N   UNL     1      -3.995  12.387  19.640  0.00  0.00    +0.000 N 
ATOM     14  C   UNL     1      -0.449  11.497  19.950  0.00  0.00    +0.000 C 
ENDROOT
BRANCH   1  15
ATOM     15  N   UNL     1       0.253  13.854  20.588  0.00  0.00    +0.000 N 
ATOM     16  C   UNL     1       1.502  14.007  20.020  0.00  0.00    +0.000 A 
ATOM     17  N   UNL     1       2.266  15.059  20.366  0.00  0.00    +0.000 NA
ATOM     18  C   UNL     1       3.400  15.268  19.663  0.00  0.00    +0.000 A 
ATOM     19  C   UNL     1       3.817  14.461  18.638  0.00  0.00    +0.000 A 
ATOM     20 CL   UNL     1       5.219  14.792  17.721  0.00  0.00    +0.000 Cl
ATOM     21  C   UNL     1       3.017  13.375  18.398  0.00  0.00    +0.000 A 
ATOM     22  N   UNL     1       1.884  13.117  19.087  0.00  0.00    +0.000 NA
BRANCH  15  23
ATOM     23  C   UNL     1      -0.443  15.038  21.117  0.00  0.00    +0.000 C 
BRANCH  23  24
ATOM     24  C   UNL     1      -1.291  15.872  20.142  0.00  0.00    +0.000 C 
BRANCH  24  26
ATOM     25  C   UNL     1      -0.094  17.861  20.470  0.00  0.00    +0.000 C 
ATOM     26  O   UNL     1      -0.521  16.898  19.515  0.00  0.00    +0.000 OA
ENDBRANCH  24  26
ENDBRANCH  23  24
ENDBRANCH  15  23
ENDBRANCH   1  15
BRANCH  13  27
ATOM     27  C   UNL     1      -5.229  12.985  20.136  0.00  0.00    +0.000 C 
BRANCH  27  28
ATOM     28  C   UNL     1      -6.107  12.056  20.934  0.00  0.00    +0.000 C 
ATOM     29  O   UNL     1      -6.171  12.100  22.158  0.00  0.00    +0.000 OA
BRANCH  28  30
ATOM     30  O   UNL     1      -6.758  11.093  20.244  0.00  0.00    +0.000 OA
ATOM     31  H   UNL     1      -7.661  11.325  19.954  0.00  0.00    +0.000 HD
ENDBRANCH  28  30
ENDBRANCH  27  28
ENDBRANCH  13  27
TORSDOF 7
ENDMDL
MODEL 3
REMARK VINA RESULT:      -5.9      3.582      5.389
REMARK  Name = 
REMARK  8 active torsions:
REMARK  status: ('A' for Active; 'I' for Inactive)
REMARK    1  A    between atoms: C_1  and  O_2
REMARK    2  A    between atoms: O_2  and  C_3
REMARK    3  A    between atoms: C_3  and  C_4
REMARK    4  A    between atoms: C_4  and  N_5
REMARK    5  A    between atoms: N_5  and  C_13
REMARK    6  A    between atoms: N_25  and  C_26
REMARK    7  A    between atoms: C_26  and  C_27
REMARK    8  A    between atoms: C_27  and  O_29
REMARK                            x       y       z     vdW  Elec       q    Type
REMARK                         _______ _______ _______ _____ _____    ______ ____
ROOT
ATOM      1  C   UNL     1      -0.683  12.546  20.562  0.00  0.00    +0.000 C 
ATOM      2  C   UNL     1       0.598  12.492  21.439  0.00  0.00    +0.000 C 
ATOM      3  C   UNL     1       1.846  13.116  20.783  0.00  0.00    +0.000 C 
ATOM      4  C   UNL     1       1.473  14.359  20.036  0.00  0.00    +0.000 A 
ATOM      5  C   UNL     1       0.182  14.777  19.788  0.00  0.00    +0.000 A 
ATOM      6  C   UNL     1       0.243  15.935  18.983  0.00  0.00    +0.000 A 
ATOM      7  C   UNL     1      -0.750  16.768  18.433  0.00  0.00    +0.000 A 
ATOM      8  C   UNL     1      -0.362  17.830  17.628  0.00  0.00    +0.000 A 
ATOM      9  F   UNL     1      -1.300  18.630  17.106  0.00  0.00    +0.000 F 
ATOM     10  C   UNL     1       0.977  18.072  17.352  0.00  0.00    +0.000 A 
ATOM     11  C   UNL     1       1.981  17.255  17.884  0.00  0.00    +0.000 A 
ATOM     12  C   UNL     1       1.594  16.184  18.710  0.00  0.00    +0.000 A 
ATOM     13  N   UNL     1       2.333  15.210  19.378  0.00  0.00    +0.000 N 
ATOM     14  C   UNL     1      -1.028  14.022  20.243  0.00  0.00    +0.000 C 
ENDROOT
BRANCH   1  15
ATOM     15  N   UNL     1      -0.604  11.679  19.357  0.00  0.00    +0.000 N 
ATOM     16  C   UNL     1       0.283  10.625  19.449  0.00  0.00    +0.000 A 
ATOM     17  N   UNL     1       1.129  10.377  18.434  0.00  0.00    +0.000 NA
ATOM     18  C   UNL     1       1.855   9.239  18.487  0.00  0.00    +0.000 A 
ATOM     19  C   UNL     1       1.787   8.343  19.520  0.00  0.00    +0.000 A 
ATOM     20 CL   UNL     1       2.663   6.878  19.525  0.00  0.00    +0.000 Cl
ATOM     21  C   UNL     1       0.953   8.708  20.545  0.00  0.00    +0.000 A 
ATOM     22  N   UNL     1       0.221   9.844  20.542  0.00  0.00    +0.000 NA
BRANCH  15  23
ATOM     23  C   UNL     1      -0.997  12.170  18.026  0.00  0.00    +0.000 C 
BRANCH  23  24
ATOM     24  C   UNL     1      -2.350  11.709  17.458  0.00  0.00    +0.000 C 
BRANCH  24  26
ATOM     25  C   UNL     1      -2.755  10.568  15.450  0.00  0.00    +0.000 C 
ATOM     26  O   UNL     1      -2.239  10.463  16.770  0.00  0.00    +0.000 OA
ENDBRANCH  24  26
ENDBRANCH  23  24
ENDBRANCH  15  23
ENDBRANCH   1  15
BRANCH  13  27
ATOM     27  C   UNL     1       3.787  15.103  19.387  0.00  0.00    +0.000 C 
BRANCH  27  28
ATOM     28  C   UNL     1       4.376  14.380  18.203  0.00  0.00    +0.000 C 
ATOM     29  O   UNL     1       5.458  14.686  17.715  0.00  0.00    +0.000 OA
BRANCH  28  30
ATOM     30  O   UNL     1       3.607  13.427  17.629  0.00  0.00    +0.000 OA
ATOM     31  H   UNL     1       3.357  13.595  16.700  0.00  0.00    +0.000 HD
ENDBRANCH  28  30
ENDBRANCH  27  28
ENDBRANCH  13  27
TORSDOF 7
ENDMDL
MODEL 4
REMARK VINA RESULT:      -5.9      2.304      3.129
REMARK  Name = 
REMARK  8 active torsions:
REMARK  status: ('A' for Active; 'I' for Inactive)
REMARK    1  A    between atoms: C_1  and  O_2
REMARK    2  A    between atoms: O_2  and  C_3
REMARK    3  A    between atoms: C_3  and  C_4
REMARK    4  A    between atoms: C_4  and  N_5
REMARK    5  A    between atoms: N_5  and  C_13
REMARK    6  A    between atoms: N_25  and  C_26
REMARK    7  A    between atoms: C_26  and  C_27
REMARK    8  A    between atoms: C_27  and  O_29
REMARK                            x       y       z     vdW  Elec       q    Type
REMARK                         _______ _______ _______ _____ _____    ______ ____
ROOT
ATOM      1  C   UNL     1       2.179   9.200  18.973  0.00  0.00    +0.000 C 
ATOM      2  C   UNL     1       1.595   8.813  17.586  0.00  0.00    +0.000 C 
ATOM      3  C   UNL     1       0.058   8.894  17.497  0.00  0.00    +0.000 C 
ATOM      4  C   UNL     1      -0.442  10.096  18.238  0.00  0.00    +0.000 A 
ATOM      5  C   UNL     1       0.326  10.898  19.057  0.00  0.00    +0.000 A 
ATOM      6  C   UNL     1      -0.521  11.866  19.640  0.00  0.00    +0.000 A 
ATOM      7  C   UNL     1      -0.284  12.918  20.545  0.00  0.00    +0.000 A 
ATOM      8  C   UNL     1      -1.358  13.685  20.976  0.00  0.00    +0.000 A 
ATOM      9  F   UNL     1      -1.141  14.691  21.831  0.00  0.00    +0.000 F 
ATOM     10  C   UNL     1      -2.650  13.422  20.540  0.00  0.00    +0.000 A 
ATOM     11  C   UNL     1      -2.910  12.379  19.644  0.00  0.00    +0.000 A 
ATOM     12  C   UNL     1      -1.823  11.605  19.195  0.00  0.00    +0.000 A 
ATOM     13  N   UNL     1      -1.749  10.522  18.324  0.00  0.00    +0.000 N 
ATOM     14  C   UNL     1       1.781  10.658  19.311  0.00  0.00    +0.000 C 
ENDROOT
BRANCH   1  15
ATOM     15  N   UNL     1       1.838   8.227  20.043  0.00  0.00    +0.000 N 
ATOM     16  C   UNL     1       2.233   6.926  19.801  0.00  0.00    +0.000 A 
ATOM     17  N   UNL     1       1.370   5.917  20.016  0.00  0.00    +0.000 NA
ATOM     18  C   UNL     1       1.846   4.656  19.936  0.00  0.00    +0.000 A 
ATOM     19  C   UNL     1       3.147   4.354  19.632  0.00  0.00    +0.000 A 
ATOM     20 CL   UNL     1       3.737   2.753  19.608  0.00  0.00    +0.000 Cl
ATOM     21  C   UNL     1       3.941   5.438  19.360  0.00  0.00    +0.000 A 
ATOM     22  N   UNL     1       3.503   6.715  19.411  0.00  0.00    +0.000 NA
BRANCH  15  23
ATOM     23  C   UNL     1       0.743   8.477  20.995  0.00  0.00    +0.000 C 
BRANCH  23  24
ATOM     24  C   UNL     1       1.109   9.013  22.389  0.00  0.00    +0.000 C 
BRANCH  24  26
ATOM     25  C   UNL     1      -0.781  10.211  23.090  0.00  0.00    +0.000 C 
ATOM     26  O   UNL     1       0.557  10.309  22.620  0.00  0.00    +0.000 OA
ENDBRANCH  24  26
ENDBRANCH  23  24
ENDBRANCH  15  23
ENDBRANCH   1  15
BRANCH  13  27
ATOM     27  C   UNL     1      -2.873   9.926  17.610  0.00  0.00    +0.000 C 
BRANCH  27  28
ATOM     28  C   UNL     1      -3.004  10.352  16.170  0.00  0.00    +0.000 C 
ATOM     29  O   UNL     1      -3.481   9.622  15.308  0.00  0.00    +0.000 OA
BRANCH  28  30
ATOM     30  O   UNL     1      -2.478  11.553  15.841  0.00  0.00    +0.000 OA
ATOM     31  H   UNL     1      -2.189  11.643  14.912  0.00  0.00    +0.000 HD
ENDBRANCH  28  30
ENDBRANCH  27  28
ENDBRANCH  13  27
TORSDOF 7
ENDMDL
MODEL 5
REMARK VINA RESULT:      -5.8      1.174      1.385
REMARK  Name = 
REMARK  8 active torsions:
REMARK  status: ('A' for Active; 'I' for Inactive)
REMARK    1  A    between atoms: C_1  and  O_2
REMARK    2  A    between atoms: O_2  and  C_3
REMARK    3  A    between atoms: C_3  and  C_4
REMARK    4  A    between atoms: C_4  and  N_5
REMARK    5  A    between atoms: N_5  and  C_13
REMARK    6  A    between atoms: N_25  and  C_26
REMARK    7  A    between atoms: C_26  and  C_27
REMARK    8  A    between atoms: C_27  and  O_29
REMARK                            x       y       z     vdW  Elec       q    Type
REMARK                         _______ _______ _______ _____ _____    ______ ____
ROOT
ATOM      1  C   UNL     1       1.096   9.410  18.261  0.00  0.00    +0.000 C 
ATOM      2  C   UNL     1      -0.435   9.655  18.155  0.00  0.00    +0.000 C 
ATOM      3  C   UNL     1      -0.990  10.668  19.176  0.00  0.00    +0.000 C 
ATOM      4  C   UNL     1      -0.034  11.809  19.349  0.00  0.00    +0.000 A 
ATOM      5  C   UNL     1       1.246  11.853  18.837  0.00  0.00    +0.000 A 
ATOM      6  C   UNL     1       1.856  13.044  19.287  0.00  0.00    +0.000 A 
ATOM      7  C   UNL     1       3.135  13.597  19.084  0.00  0.00    +0.000 A 
ATOM      8  C   UNL     1       3.457  14.791  19.714  0.00  0.00    +0.000 A 
ATOM      9  F   UNL     1       4.668  15.326  19.521  0.00  0.00    +0.000 F 
ATOM     10  C   UNL     1       2.548  15.433  20.545  0.00  0.00    +0.000 A 
ATOM     11  C   UNL     1       1.273  14.900  20.766  0.00  0.00    +0.000 A 
ATOM     12  C   UNL     1       0.937  13.696  20.119  0.00  0.00    +0.000 A 
ATOM     13  N   UNL     1      -0.223  12.925  20.132  0.00  0.00    +0.000 N 
ATOM     14  C   UNL     1       1.849  10.744  18.032  0.00  0.00    +0.000 C 
ENDROOT
BRANCH   1  15
ATOM     15  N   UNL     1       1.491   8.710  19.511  0.00  0.00    +0.000 N 
ATOM     16  C   UNL     1       2.161   7.516  19.328  0.00  0.00    +0.000 A 
ATOM     17  N   UNL     1       1.800   6.435  20.041  0.00  0.00    +0.000 NA
ATOM     18  C   UNL     1       2.588   5.340  19.963  0.00  0.00    +0.000 A 
ATOM     19  C   UNL     1       3.715   5.271  19.188  0.00  0.00    +0.000 A 
ATOM     20 CL   UNL     1       4.730   3.899  19.164  0.00  0.00    +0.000 Cl
ATOM     21  C   UNL     1       3.970   6.392  18.442  0.00  0.00    +0.000 A 
ATOM     22  N   UNL     1       3.201   7.502  18.476  0.00  0.00    +0.000 NA
BRANCH  15  23
ATOM     23  C   UNL     1       0.795   8.952  20.785  0.00  0.00    +0.000 C 
BRANCH  23  24
ATOM     24  C   UNL     1       1.568   9.673  21.903  0.00  0.00    +0.000 C 
BRANCH  24  26
ATOM     25  C   UNL     1      -0.497   9.228  22.920  0.00  0.00    +0.000 C 
ATOM     26  O   UNL     1       0.753   9.891  23.054  0.00  0.00    +0.000 OA
ENDBRANCH  24  26
ENDBRANCH  23  24
ENDBRANCH  15  23
ENDBRANCH   1  15
BRANCH  13  27
ATOM     27  C   UNL     1      -1.448  13.244  20.856  0.00  0.00    +0.000 C 
BRANCH  27  28
ATOM     28  C   UNL     1      -1.570  12.595  22.211  0.00  0.00    +0.000 C 
ATOM     29  O   UNL     1      -2.618  12.105  22.615  0.00  0.00    +0.000 OA
BRANCH  28  30
ATOM     30  O   UNL     1      -0.485  12.662  23.016  0.00  0.00    +0.000 OA
ATOM     31  H   UNL     1       0.235  12.039  22.798  0.00  0.00    +0.000 HD
ENDBRANCH  28  30
ENDBRANCH  27  28
ENDBRANCH  13  27
TORSDOF 7
ENDMDL
MODEL 6
REMARK VINA RESULT:      -5.8      3.836      5.549
REMARK  Name = 
REMARK  8 active torsions:
REMARK  status: ('A' for Active; 'I' for Inactive)
REMARK    1  A    between atoms: C_1  and  O_2
REMARK    2  A    between atoms: O_2  and  C_3
REMARK    3  A    between atoms: C_3  and  C_4
REMARK    4  A    between atoms: C_4  and  N_5
REMARK    5  A    between atoms: N_5  and  C_13
REMARK    6  A    between atoms: N_25  and  C_26
REMARK    7  A    between atoms: C_26  and  C_27
REMARK    8  A    between atoms: C_27  and  O_29
REMARK                            x       y       z     vdW  Elec       q    Type
REMARK                         _______ _______ _______ _____ _____    ______ ____
ROOT
ATOM      1  C   UNL     1       0.168  12.616  20.660  0.00  0.00    +0.000 C 
ATOM      2  C   UNL     1       1.685  12.673  20.992  0.00  0.00    +0.000 C 
ATOM      3  C   UNL     1       2.541  13.406  19.941  0.00  0.00    +0.000 C 
ATOM      4  C   UNL     1       1.816  14.613  19.430  0.00  0.00    +0.000 A 
ATOM      5  C   UNL     1       0.497  14.916  19.697  0.00  0.00    +0.000 A 
ATOM      6  C   UNL     1       0.159  16.078  18.969  0.00  0.00    +0.000 A 
ATOM      7  C   UNL     1      -1.032  16.821  18.858  0.00  0.00    +0.000 A 
ATOM      8  C   UNL     1      -1.061  17.916  18.005  0.00  0.00    +0.000 A 
ATOM      9  F   UNL     1      -2.187  18.631  17.899  0.00  0.00    +0.000 F 
ATOM     10  C   UNL     1       0.052  18.274  17.257  0.00  0.00    +0.000 A 
ATOM     11  C   UNL     1       1.245  17.548  17.347  0.00  0.00    +0.000 A 
ATOM     12  C   UNL     1       1.284  16.445  18.220  0.00  0.00    +0.000 A 
ATOM     13  N   UNL     1       2.295  15.538  18.529  0.00  0.00    +0.000 N 
ATOM     14  C   UNL     1      -0.389  14.057  20.544  0.00  0.00    +0.000 C 
ENDROOT
BRANCH   1  15
ATOM     15  N   UNL     1      -0.141  11.763  19.483  0.00  0.00    +0.000 N 
ATOM     16  C   UNL     1       0.636  10.628  19.360  0.00  0.00    +0.000 A 
ATOM     17  N   UNL     1       1.173  10.314  18.168  0.00  0.00    +0.000 NA
ATOM     18  C   UNL     1       1.777   9.112  18.048  0.00  0.00    +0.000 A 
ATOM     19  C   UNL     1       1.885   8.212  19.075  0.00  0.00    +0.000 A 
ATOM     20 CL   UNL     1       2.591   6.671  18.876  0.00  0.00    +0.000 Cl
ATOM     21  C   UNL     1       1.373   8.641  20.272  0.00  0.00    +0.000 A 
ATOM     22  N   UNL     1       0.776   9.841  20.441  0.00  0.00    +0.000 NA
BRANCH  15  23
ATOM     23  C   UNL     1      -0.806  12.307  18.287  0.00  0.00    +0.000 C 
BRANCH  23  24
ATOM     24  C   UNL     1      -2.209  11.780  17.940  0.00  0.00    +0.000 C 
BRANCH  24  26
ATOM     25  C   UNL     1      -3.619  11.116  16.188  0.00  0.00    +0.000 C 
ATOM     26  O   UNL     1      -2.269  11.276  16.606  0.00  0.00    +0.000 OA
ENDBRANCH  24  26
ENDBRANCH  23  24
ENDBRANCH  15  23
ENDBRANCH   1  15
BRANCH  13  27
ATOM     27  C   UNL     1       3.651  15.559  17.991  0.00  0.00    +0.000 C 
BRANCH  27  28
ATOM     28  C   UNL     1       4.671  16.232  18.872  0.00  0.00    +0.000 C 
ATOM     29  O   UNL     1       4.734  17.450  18.996  0.00  0.00    +0.000 OA
BRANCH  28  30
ATOM     30  O   UNL     1       5.592  15.432  19.456  0.00  0.00    +0.000 OA
ATOM     31  H   UNL     1       5.311  14.508  19.601  0.00  0.00    +0.000 HD
ENDBRANCH  28  30
ENDBRANCH  27  28
ENDBRANCH  13  27
TORSDOF 7
ENDMDL
MODEL 7
REMARK VINA RESULT:      -5.7      4.937      6.966
REMARK  Name = 
REMARK  8 active torsions:
REMARK  status: ('A' for Active; 'I' for Inactive)
REMARK    1  A    between atoms: C_1  and  O_2
REMARK    2  A    between atoms: O_2  and  C_3
REMARK    3  A    between atoms: C_3  and  C_4
REMARK    4  A    between atoms: C_4  and  N_5
REMARK    5  A    between atoms: N_5  and  C_13
REMARK    6  A    between atoms: N_25  and  C_26
REMARK    7  A    between atoms: C_26  and  C_27
REMARK    8  A    between atoms: C_27  and  O_29
REMARK                            x       y       z     vdW  Elec       q    Type
REMARK                         _______ _______ _______ _____ _____    ______ ____
ROOT
ATOM      1  C   UNL     1       0.269  12.397  21.241  0.00  0.00    +0.000 C 
ATOM      2  C   UNL     1      -0.782  12.428  22.385  0.00  0.00    +0.000 C 
ATOM      3  C   UNL     1      -2.187  12.886  21.947  0.00  0.00    +0.000 C 
ATOM      4  C   UNL     1      -2.524  12.316  20.603  0.00  0.00    +0.000 A 
ATOM      5  C   UNL     1      -1.638  11.654  19.779  0.00  0.00    +0.000 A 
ATOM      6  C   UNL     1      -2.305  11.352  18.572  0.00  0.00    +0.000 A 
ATOM      7  C   UNL     1      -1.894  10.702  17.392  0.00  0.00    +0.000 A 
ATOM      8  C   UNL     1      -2.792  10.598  16.338  0.00  0.00    +0.000 A 
ATOM      9  F   UNL     1      -2.411   9.976  15.216  0.00  0.00    +0.000 F 
ATOM     10  C   UNL     1      -4.070  11.133  16.427  0.00  0.00    +0.000 A 
ATOM     11  C   UNL     1      -4.499  11.787  17.587  0.00  0.00    +0.000 A 
ATOM     12  C   UNL     1      -3.597  11.885  18.663  0.00  0.00    +0.000 A 
ATOM     13  N   UNL     1      -3.714  12.461  19.925  0.00  0.00    +0.000 N 
ATOM     14  C   UNL     1      -0.202  11.422  20.133  0.00  0.00    +0.000 C 
ENDROOT
BRANCH   1  15
ATOM     15  N   UNL     1       0.620  13.749  20.733  0.00  0.00    +0.000 N 
ATOM     16  C   UNL     1       1.758  14.306  21.282  0.00  0.00    +0.000 A 
ATOM     17  N   UNL     1       1.738  15.583  21.703  0.00  0.00    +0.000 NA
ATOM     18  C   UNL     1       2.913  16.140  22.070  0.00  0.00    +0.000 A 
ATOM     19  C   UNL     1       4.108  15.472  22.051  0.00  0.00    +0.000 A 
ATOM     20 CL   UNL     1       5.587  16.224  22.453  0.00  0.00    +0.000 Cl
ATOM     21  C   UNL     1       4.027  14.157  21.676  0.00  0.00    +0.000 A 
ATOM     22  N   UNL     1       2.872  13.553  21.318  0.00  0.00    +0.000 NA
BRANCH  15  23
ATOM     23  C   UNL     1      -0.391  14.635  20.132  0.00  0.00    +0.000 C 
BRANCH  23  24
ATOM     24  C   UNL     1      -0.288  14.929  18.626  0.00  0.00    +0.000 C 
BRANCH  24  26
ATOM     25  C   UNL     1       0.842  16.983  18.595  0.00  0.00    +0.000 C 
ATOM     26  O   UNL     1      -0.394  16.325  18.350  0.00  0.00    +0.000 OA
ENDBRANCH  24  26
ENDBRANCH  23  24
ENDBRANCH  15  23
ENDBRANCH   1  15
BRANCH  13  27
ATOM     27  C   UNL     1      -4.905  13.115  20.455  0.00  0.00    +0.000 C 
BRANCH  27  28
ATOM     28  C   UNL     1      -5.776  12.240  21.320  0.00  0.00    +0.000 C 
ATOM     29  O   UNL     1      -6.553  11.415  20.852  0.00  0.00    +0.000 OA
BRANCH  28  30
ATOM     30  O   UNL     1      -5.737  12.471  22.652  0.00  0.00    +0.000 OA
ATOM     31  H   UNL     1      -6.360  13.149  22.977  0.00  0.00    +0.000 HD
ENDBRANCH  28  30
ENDBRANCH  27  28
ENDBRANCH  13  27
TORSDOF 7
ENDMDL
MODEL 8
REMARK VINA RESULT:      -5.7      5.052      7.307
REMARK  Name = 
REMARK  8 active torsions:
REMARK  status: ('A' for Active; 'I' for Inactive)
REMARK    1  A    between atoms: C_1  and  O_2
REMARK    2  A    between atoms: O_2  and  C_3
REMARK    3  A    between atoms: C_3  and  C_4
REMARK    4  A    between atoms: C_4  and  N_5
REMARK    5  A    between atoms: N_5  and  C_13
REMARK    6  A    between atoms: N_25  and  C_26
REMARK    7  A    between atoms: C_26  and  C_27
REMARK    8  A    between atoms: C_27  and  O_29
REMARK                            x       y       z     vdW  Elec       q    Type
REMARK                         _______ _______ _______ _____ _____    ______ ____
ROOT
ATOM      1  C   UNL     1       0.619  12.238  20.861  0.00  0.00    +0.000 C 
ATOM      2  C   UNL     1      -0.372  12.493  22.030  0.00  0.00    +0.000 C 
ATOM      3  C   UNL     1      -1.765  12.984  21.587  0.00  0.00    +0.000 C 
ATOM      4  C   UNL     1      -2.201  12.264  20.348  0.00  0.00    +0.000 A 
ATOM      5  C   UNL     1      -1.397  11.438  19.589  0.00  0.00    +0.000 A 
ATOM      6  C   UNL     1      -2.138  11.024  18.460  0.00  0.00    +0.000 A 
ATOM      7  C   UNL     1      -1.825  10.195  17.366  0.00  0.00    +0.000 A 
ATOM      8  C   UNL     1      -2.776  10.012  16.371  0.00  0.00    +0.000 A 
ATOM      9  F   UNL     1      -2.489   9.221  15.331  0.00  0.00    +0.000 F 
ATOM     10  C   UNL     1      -4.013  10.640  16.435  0.00  0.00    +0.000 A 
ATOM     11  C   UNL     1      -4.344  11.472  17.510  0.00  0.00    +0.000 A 
ATOM     12  C   UNL     1      -3.389  11.651  18.528  0.00  0.00    +0.000 A 
ATOM     13  N   UNL     1      -3.410  12.398  19.703  0.00  0.00    +0.000 N 
ATOM     14  C   UNL     1       0.036  11.158  19.916  0.00  0.00    +0.000 C 
ENDROOT
BRANCH   1  15
ATOM     15  N   UNL     1       1.030  13.483  20.160  0.00  0.00    +0.000 N 
ATOM     16  C   UNL     1       0.935  14.638  20.910  0.00  0.00    +0.000 A 
ATOM     17  N   UNL     1       0.368  15.734  20.377  0.00  0.00    +0.000 NA
ATOM     18  C   UNL     1       0.452  16.887  21.076  0.00  0.00    +0.000 A 
ATOM     19  C   UNL     1       1.064  16.991  22.296  0.00  0.00    +0.000 A 
ATOM     20 CL   UNL     1       1.217  18.477  23.123  0.00  0.00    +0.000 Cl
ATOM     21  C   UNL     1       1.553  15.813  22.798  0.00  0.00    +0.000 A 
ATOM     22  N   UNL     1       1.477  14.635  22.142  0.00  0.00    +0.000 NA
BRANCH  15  23
ATOM     23  C   UNL     1       1.020  13.581  18.691  0.00  0.00    +0.000 C 
BRANCH  23  24
ATOM     24  C   UNL     1       2.323  13.261  17.938  0.00  0.00    +0.000 C 
BRANCH  24  26
ATOM     25  C   UNL     1       3.180  15.444  17.945  0.00  0.00    +0.000 C 
ATOM     26  O   UNL     1       3.397  14.101  18.359  0.00  0.00    +0.000 OA
ENDBRANCH  24  26
ENDBRANCH  23  24
ENDBRANCH  15  23
ENDBRANCH   1  15
BRANCH  13  27
ATOM     27  C   UNL     1      -4.531  13.197  20.183  0.00  0.00    +0.000 C 
BRANCH  27  28
ATOM     28  C   UNL     1      -5.480  12.469  21.100  0.00  0.00    +0.000 C 
ATOM     29  O   UNL     1      -5.326  12.436  22.316  0.00  0.00    +0.000 OA
BRANCH  28  30
ATOM     30  O   UNL     1      -6.471  11.761  20.511  0.00  0.00    +0.000 OA
ATOM     31  H   UNL     1      -6.180  11.118  19.836  0.00  0.00    +0.000 HD
ENDBRANCH  28  30
ENDBRANCH  27  28
ENDBRANCH  13  27
TORSDOF 7
ENDMDL
MODEL 9
REMARK VINA RESULT:      -5.7      4.449      7.695
REMARK  Name = 
REMARK  8 active torsions:
REMARK  status: ('A' for Active; 'I' for Inactive)
REMARK    1  A    between atoms: C_1  and  O_2
REMARK    2  A    between atoms: O_2  and  C_3
REMARK    3  A    between atoms: C_3  and  C_4
REMARK    4  A    between atoms: C_4  and  N_5
REMARK    5  A    between atoms: N_5  and  C_13
REMARK    6  A    between atoms: N_25  and  C_26
REMARK    7  A    between atoms: C_26  and  C_27
REMARK    8  A    between atoms: C_27  and  O_29
REMARK                            x       y       z     vdW  Elec       q    Type
REMARK                         _______ _______ _______ _____ _____    ______ ____
ROOT
ATOM      1  C   UNL     1      -1.414  12.732  22.753  0.00  0.00    +0.000 C 
ATOM      2  C   UNL     1      -2.711  12.964  21.930  0.00  0.00    +0.000 C 
ATOM      3  C   UNL     1      -2.521  12.878  20.403  0.00  0.00    +0.000 C 
ATOM      4  C   UNL     1      -1.576  11.767  20.059  0.00  0.00    +0.000 A 
ATOM      5  C   UNL     1      -0.821  11.059  20.971  0.00  0.00    +0.000 A 
ATOM      6  C   UNL     1       0.004  10.165  20.255  0.00  0.00    +0.000 A 
ATOM      7  C   UNL     1       0.964   9.219  20.662  0.00  0.00    +0.000 A 
ATOM      8  C   UNL     1       1.657   8.507  19.692  0.00  0.00    +0.000 A 
ATOM      9  F   UNL     1       2.566   7.602  20.072  0.00  0.00    +0.000 F 
ATOM     10  C   UNL     1       1.427   8.724  18.341  0.00  0.00    +0.000 A 
ATOM     11  C   UNL     1       0.482   9.663  17.912  0.00  0.00    +0.000 A 
ATOM     12  C   UNL     1      -0.232  10.378  18.891  0.00  0.00    +0.000 A 
ATOM     13  N   UNL     1      -1.217  11.358  18.794  0.00  0.00    +0.000 N 
ATOM     14  C   UNL     1      -0.853  11.321  22.444  0.00  0.00    +0.000 C 
ENDROOT
BRANCH   1  15
ATOM     15  N   UNL     1      -0.414  13.819  22.588  0.00  0.00    +0.000 N 
ATOM     16  C   UNL     1      -0.672  14.968  23.309  0.00  0.00    +0.000 A 
ATOM     17  N   UNL     1      -0.569  16.167  22.709  0.00  0.00    +0.000 NA
ATOM     18  C   UNL     1      -0.657  17.268  23.487  0.00  0.00    +0.000 A 
ATOM     19  C   UNL     1      -0.862  17.225  24.841  0.00  0.00    +0.000 A 
ATOM     20 CL   UNL     1      -0.898  18.630  25.809  0.00  0.00    +0.000 Cl
ATOM     21  C   UNL     1      -1.025  15.967  25.359  0.00  0.00    +0.000 A 
ATOM     22  N   UNL     1      -0.962  14.840  24.616  0.00  0.00    +0.000 NA
BRANCH  15  23
ATOM     23  C   UNL     1       0.452  13.898  21.400  0.00  0.00    +0.000 C 
BRANCH  23  24
ATOM     24  C   UNL     1       1.941  14.221  21.614  0.00  0.00    +0.000 C 
BRANCH  24  26
ATOM     25  C   UNL     1       2.100  13.140  19.539  0.00  0.00    +0.000 C 
ATOM     26  O   UNL     1       2.778  13.454  20.749  0.00  0.00    +0.000 OA
ENDBRANCH  24  26
ENDBRANCH  23  24
ENDBRANCH  15  23
ENDBRANCH   1  15
BRANCH  13  27
ATOM     27  C   UNL     1      -1.785  11.874  17.554  0.00  0.00    +0.000 C 
BRANCH  27  28
ATOM     28  C   UNL     1      -2.586  10.874  16.761  0.00  0.00    +0.000 C 
ATOM     29  O   UNL     1      -3.357  10.080  17.288  0.00  0.00    +0.000 OA
BRANCH  28  30
ATOM     30  O   UNL     1      -2.346  10.821  15.431  0.00  0.00    +0.000 OA
ATOM     31  H   UNL     1      -1.421  10.993  15.166  0.00  0.00    +0.000 HD
ENDBRANCH  28  30
ENDBRANCH  27  28
ENDBRANCH  13  27
TORSDOF 7
ENDMDL
