MODEL 1
REMARK VINA RESULT:      -8.4      0.000      0.000
REMARK  Name = 
REMARK  2 active torsions:
REMARK  status: ('A' for Active; 'I' for Inactive)
REMARK    1  A    between atoms: C_2  and  C_3
REMARK    2  A    between atoms: N_7  and  C_8
REMARK                            x       y       z     vdW  Elec       q    Type
REMARK                         _______ _______ _______ _____ _____    ______ ____
ROOT
ATOM      1  O   UNL     1       2.211   9.214  17.424  0.00  0.00    +0.000 OA
ATOM      2  C   UNL     1       2.044   8.556  18.450  0.00  0.00    +0.000 C 
ATOM      3  N   UNL     1       1.205   8.932  19.517  0.00  0.00    +0.000 N 
ATOM      4  C   UNL     1       1.385   8.389  20.868  0.00  0.00    +0.000 C 
ATOM      5  C   UNL     1       1.306   9.452  21.940  0.00  0.00    +0.000 C 
ATOM      6  C   UNL     1      -0.042  10.134  21.900  0.00  0.00    +0.000 C 
ATOM      7  C   UNL     1      -0.492  10.439  20.498  0.00  0.00    +0.000 A 
ATOM      8  C   UNL     1      -1.592  11.306  20.354  0.00  0.00    +0.000 A 
ATOM      9  C   UNL     1      -2.108  11.596  19.097  0.00  0.00    +0.000 A 
ATOM     10  C   UNL     1      -1.533  11.020  17.972  0.00  0.00    +0.000 A 
ATOM     11  C   UNL     1      -0.430  10.166  18.102  0.00  0.00    +0.000 A 
ATOM     12  C   UNL     1       0.114   9.863  19.360  0.00  0.00    +0.000 A 
ENDROOT
BRANCH   2  13
ATOM     13  C   UNL     1       2.704   7.191  18.571  0.00  0.00    +0.000 C 
ATOM     14  C   UNL     1       1.759   6.092  18.088  0.00  0.00    +0.000 C 
ATOM     15  C   UNL     1       2.730   4.989  17.744  0.00  0.00    +0.000 C 
ATOM     16  O   UNL     1       2.433   3.810  17.624  0.00  0.00    +0.000 OA
ATOM     17  N   UNL     1       3.988   5.556  17.583  0.00  0.00    +0.000 N 
ATOM     18  C   UNL     1       3.931   7.000  17.696  0.00  0.00    +0.000 C 
BRANCH  17  19
ATOM     19  C   UNL     1       5.169   4.797  17.166  0.00  0.00    +0.000 C 
ATOM     20  C   UNL     1       6.405   5.152  17.998  0.00  0.00    +0.000 C 
ATOM     21  C   UNL     1       7.631   4.420  17.472  0.00  0.00    +0.000 C 
ATOM     22  O   UNL     1       7.817   4.687  16.083  0.00  0.00    +0.000 OA
ATOM     23  C   UNL     1       6.727   4.209  15.295  0.00  0.00    +0.000 C 
ATOM     24  C   UNL     1       5.442   4.934  15.668  0.00  0.00    +0.000 C 
ENDBRANCH  17  19
ENDBRANCH   2  13
TORSDOF 2
ENDMDL
MODEL 2
REMARK VINA RESULT:      -7.3      2.447      8.137
REMARK  Name = 
REMARK  2 active torsions:
REMARK  status: ('A' for Active; 'I' for Inactive)
REMARK    1  A    between atoms: C_2  and  C_3
REMARK    2  A    between atoms: N_7  and  C_8
REMARK                            x       y       z     vdW  Elec       q    Type
REMARK                         _______ _______ _______ _____ _____    ______ ____
ROOT
ATOM      1  O   UNL     1       1.791   6.411  20.785  0.00  0.00    +0.000 OA
ATOM      2  C   UNL     1       2.142   7.037  19.787  0.00  0.00    +0.000 C 
ATOM      3  N   UNL     1       2.779   6.470  18.666  0.00  0.00    +0.000 N 
ATOM      4  C   UNL     1       3.577   7.281  17.740  0.00  0.00    +0.000 C 
ATOM      5  C   UNL     1       4.894   6.630  17.381  0.00  0.00    +0.000 C 
ATOM      6  C   UNL     1       4.652   5.291  16.721  0.00  0.00    +0.000 C 
ATOM      7  C   UNL     1       3.577   4.496  17.410  0.00  0.00    +0.000 A 
ATOM      8  C   UNL     1       3.459   3.139  17.052  0.00  0.00    +0.000 A 
ATOM      9  C   UNL     1       2.456   2.346  17.598  0.00  0.00    +0.000 A 
ATOM     10  C   UNL     1       1.562   2.901  18.504  0.00  0.00    +0.000 A 
ATOM     11  C   UNL     1       1.679   4.246  18.877  0.00  0.00    +0.000 A 
ATOM     12  C   UNL     1       2.686   5.066  18.345  0.00  0.00    +0.000 A 
ENDROOT
BRANCH   2  13
ATOM     13  C   UNL     1       1.801   8.516  19.681  0.00  0.00    +0.000 C 
ATOM     14  C   UNL     1       0.952   8.784  18.439  0.00  0.00    +0.000 C 
ATOM     15  C   UNL     1       0.270  10.077  18.814  0.00  0.00    +0.000 C 
ATOM     16  O   UNL     1      -0.252  10.846  18.021  0.00  0.00    +0.000 OA
ATOM     17  N   UNL     1       0.338  10.217  20.194  0.00  0.00    +0.000 N 
ATOM     18  C   UNL     1       0.937   9.050  20.811  0.00  0.00    +0.000 C 
BRANCH  17  19
ATOM     19  C   UNL     1      -0.291  11.318  20.926  0.00  0.00    +0.000 C 
ATOM     20  C   UNL     1       0.628  12.540  21.030  0.00  0.00    +0.000 C 
ATOM     21  C   UNL     1      -0.018  13.624  21.880  0.00  0.00    +0.000 C 
ATOM     22  O   UNL     1      -0.381  13.108  23.160  0.00  0.00    +0.000 OA
ATOM     23  C   UNL     1      -1.359  12.073  23.062  0.00  0.00    +0.000 C 
ATOM     24  C   UNL     1      -0.800  10.881  22.300  0.00  0.00    +0.000 C 
ENDBRANCH  17  19
ENDBRANCH   2  13
TORSDOF 2
ENDMDL
MODEL 3
REMARK VINA RESULT:      -7.3      1.798      2.726
REMARK  Name = 
REMARK  2 active torsions:
REMARK  status: ('A' for Active; 'I' for Inactive)
REMARK    1  A    between atoms: C_2  and  C_3
REMARK    2  A    between atoms: N_7  and  C_8
REMARK                            x       y       z     vdW  Elec       q    Type
REMARK                         _______ _______ _______ _____ _____    ______ ____
ROOT
ATOM      1  O   UNL     1       1.223   5.775  20.828  0.00  0.00    +0.000 OA
ATOM      2  C   UNL     1       2.019   6.423  20.150  0.00  0.00    +0.000 C 
ATOM      3  N   UNL     1       1.843   7.768  19.773  0.00  0.00    +0.000 N 
ATOM      4  C   UNL     1       2.544   8.344  18.620  0.00  0.00    +0.000 C 
ATOM      5  C   UNL     1       1.637   9.177  17.742  0.00  0.00    +0.000 C 
ATOM      6  C   UNL     1       1.050  10.322  18.536  0.00  0.00    +0.000 C 
ATOM      7  C   UNL     1       0.597   9.899  19.907  0.00  0.00    +0.000 A 
ATOM      8  C   UNL     1      -0.203  10.810  20.624  0.00  0.00    +0.000 A 
ATOM      9  C   UNL     1      -0.616  10.524  21.919  0.00  0.00    +0.000 A 
ATOM     10  C   UNL     1      -0.233   9.327  22.512  0.00  0.00    +0.000 A 
ATOM     11  C   UNL     1       0.552   8.409  21.803  0.00  0.00    +0.000 A 
ATOM     12  C   UNL     1       0.978   8.672  20.492  0.00  0.00    +0.000 A 
ENDROOT
BRANCH   2  13
ATOM     13  C   UNL     1       3.339   5.785  19.745  0.00  0.00    +0.000 C 
ATOM     14  C   UNL     1       3.411   4.340  20.235  0.00  0.00    +0.000 C 
ATOM     15  C   UNL     1       4.432   3.751  19.291  0.00  0.00    +0.000 C 
ATOM     16  O   UNL     1       5.055   2.720  19.492  0.00  0.00    +0.000 OA
ATOM     17  N   UNL     1       4.518   4.578  18.178  0.00  0.00    +0.000 N 
ATOM     18  C   UNL     1       3.546   5.651  18.245  0.00  0.00    +0.000 C 
BRANCH  17  19
ATOM     19  C   UNL     1       5.353   4.280  17.013  0.00  0.00    +0.000 C 
ATOM     20  C   UNL     1       6.733   4.939  17.110  0.00  0.00    +0.000 C 
ATOM     21  C   UNL     1       7.534   4.690  15.841  0.00  0.00    +0.000 C 
ATOM     22  O   UNL     1       6.805   5.125  14.694  0.00  0.00    +0.000 OA
ATOM     23  C   UNL     1       5.591   4.393  14.523  0.00  0.00    +0.000 C 
ATOM     24  C   UNL     1       4.655   4.630  15.699  0.00  0.00    +0.000 C 
ENDBRANCH  17  19
ENDBRANCH   2  13
TORSDOF 2
ENDMDL
MODEL 4
REMARK VINA RESULT:      -7.1      1.989      8.117
REMARK  Name = 
REMARK  2 active torsions:
REMARK  status: ('A' for Active; 'I' for Inactive)
REMARK    1  A    between atoms: C_2  and  C_3
REMARK    2  A    between atoms: N_7  and  C_8
REMARK                            x       y       z     vdW  Elec       q    Type
REMARK                         _______ _______ _______ _____ _____    ______ ____
ROOT
ATOM      1  O   UNL     1       3.205   8.473  17.123  0.00  0.00    +0.000 OA
ATOM      2  C   UNL     1       2.692   7.601  17.823  0.00  0.00    +0.000 C 
ATOM      3  N   UNL     1       3.099   6.254  17.854  0.00  0.00    +0.000 N 
ATOM      4  C   UNL     1       2.203   5.188  18.317  0.00  0.00    +0.000 C 
ATOM      5  C   UNL     1       2.220   3.977  17.412  0.00  0.00    +0.000 C 
ATOM      6  C   UNL     1       3.615   3.399  17.338  0.00  0.00    +0.000 C 
ATOM      7  C   UNL     1       4.671   4.461  17.201  0.00  0.00    +0.000 A 
ATOM      8  C   UNL     1       5.967   4.032  16.855  0.00  0.00    +0.000 A 
ATOM      9  C   UNL     1       7.015   4.940  16.764  0.00  0.00    +0.000 A 
ATOM     10  C   UNL     1       6.779   6.284  17.020  0.00  0.00    +0.000 A 
ATOM     11  C   UNL     1       5.491   6.724  17.353  0.00  0.00    +0.000 A 
ATOM     12  C   UNL     1       4.416   5.828  17.446  0.00  0.00    +0.000 A 
ENDROOT
BRANCH   2  13
ATOM     13  C   UNL     1       1.594   7.988  18.803  0.00  0.00    +0.000 C 
ATOM     14  C   UNL     1       2.081   7.839  20.242  0.00  0.00    +0.000 C 
ATOM     15  C   UNL     1       1.146   8.769  20.976  0.00  0.00    +0.000 C 
ATOM     16  O   UNL     1       0.936   8.741  22.179  0.00  0.00    +0.000 OA
ATOM     17  N   UNL     1       0.594   9.644  20.050  0.00  0.00    +0.000 N 
ATOM     18  C   UNL     1       1.165   9.444  18.733  0.00  0.00    +0.000 C 
BRANCH  17  19
ATOM     19  C   UNL     1      -0.304  10.743  20.412  0.00  0.00    +0.000 C 
ATOM     20  C   UNL     1      -1.311  11.055  19.299  0.00  0.00    +0.000 C 
ATOM     21  C   UNL     1      -2.158  12.263  19.669  0.00  0.00    +0.000 C 
ATOM     22  O   UNL     1      -1.329  13.381  19.980  0.00  0.00    +0.000 OA
ATOM     23  C   UNL     1      -0.505  13.137  21.120  0.00  0.00    +0.000 C 
ATOM     24  C   UNL     1       0.461  11.994  20.843  0.00  0.00    +0.000 C 
ENDBRANCH  17  19
ENDBRANCH   2  13
TORSDOF 2
ENDMDL
MODEL 5
REMARK VINA RESULT:      -7.0      2.695      8.463
REMARK  Name = 
REMARK  2 active torsions:
REMARK  status: ('A' for Active; 'I' for Inactive)
REMARK    1  A    between atoms: C_2  and  C_3
REMARK    2  A    between atoms: N_7  and  C_8
REMARK                            x       y       z     vdW  Elec       q    Type
REMARK                         _______ _______ _______ _____ _____    ______ ____
ROOT
ATOM      1  O   UNL     1       1.474   9.323  17.413  0.00  0.00    +0.000 OA
ATOM      2  C   UNL     1       1.552   9.162  18.630  0.00  0.00    +0.000 C 
ATOM      3  N   UNL     1       2.020   7.991  19.257  0.00  0.00    +0.000 N 
ATOM      4  C   UNL     1       1.669   7.666  20.644  0.00  0.00    +0.000 C 
ATOM      5  C   UNL     1       1.260   6.220  20.818  0.00  0.00    +0.000 C 
ATOM      6  C   UNL     1       2.391   5.305  20.409  0.00  0.00    +0.000 C 
ATOM      7  C   UNL     1       3.064   5.753  19.140  0.00  0.00    +0.000 A 
ATOM      8  C   UNL     1       3.941   4.839  18.526  0.00  0.00    +0.000 A 
ATOM      9  C   UNL     1       4.648   5.193  17.382  0.00  0.00    +0.000 A 
ATOM     10  C   UNL     1       4.487   6.463  16.844  0.00  0.00    +0.000 A 
ATOM     11  C   UNL     1       3.607   7.375  17.441  0.00  0.00    +0.000 A 
ATOM     12  C   UNL     1       2.878   7.041  18.592  0.00  0.00    +0.000 A 
ENDROOT
BRANCH   2  13
ATOM     13  C   UNL     1       1.210  10.321  19.555  0.00  0.00    +0.000 C 
ATOM     14  C   UNL     1       1.542  11.655  18.890  0.00  0.00    +0.000 C 
ATOM     15  C   UNL     1       0.644  12.602  19.647  0.00  0.00    +0.000 C 
ATOM     16  O   UNL     1       0.789  13.814  19.695  0.00  0.00    +0.000 OA
ATOM     17  N   UNL     1      -0.357  11.854  20.254  0.00  0.00    +0.000 N 
ATOM     18  C   UNL     1      -0.268  10.456  19.882  0.00  0.00    +0.000 C 
BRANCH  17  19
ATOM     19  C   UNL     1      -1.461  12.447  21.013  0.00  0.00    +0.000 C 
ATOM     20  C   UNL     1      -1.647  11.777  22.378  0.00  0.00    +0.000 C 
ATOM     21  C   UNL     1      -2.861  12.350  23.093  0.00  0.00    +0.000 C 
ATOM     22  O   UNL     1      -4.024  12.241  22.273  0.00  0.00    +0.000 OA
ATOM     23  C   UNL     1      -3.903  13.000  21.070  0.00  0.00    +0.000 C 
ATOM     24  C   UNL     1      -2.765  12.464  20.214  0.00  0.00    +0.000 C 
ENDBRANCH  17  19
ENDBRANCH   2  13
TORSDOF 2
ENDMDL
MODEL 6
REMARK VINA RESULT:      -6.9      3.094      8.384
REMARK  Name = 
REMARK  2 active torsions:
REMARK  status: ('A' for Active; 'I' for Inactive)
REMARK    1  A    between atoms: C_2  and  C_3
REMARK    2  A    between atoms: N_7  and  C_8
REMARK                            x       y       z     vdW  Elec       q    Type
REMARK                         _______ _______ _______ _____ _____    ______ ____
ROOT
ATOM      1  O   UNL     1       1.510   7.900  21.664  0.00  0.00    +0.000 OA
ATOM      2  C   UNL     1       1.568   8.237  20.483  0.00  0.00    +0.000 C 
ATOM      3  N   UNL     1       2.031   7.417  19.436  0.00  0.00    +0.000 N 
ATOM      4  C   UNL     1       2.515   7.981  18.171  0.00  0.00    +0.000 C 
ATOM      5  C   UNL     1       3.804   7.343  17.703  0.00  0.00    +0.000 C 
ATOM      6  C   UNL     1       3.605   5.858  17.493  0.00  0.00    +0.000 C 
ATOM      7  C   UNL     1       2.804   5.224  18.596  0.00  0.00    +0.000 A 
ATOM      8  C   UNL     1       2.789   3.817  18.645  0.00  0.00    +0.000 A 
ATOM      9  C   UNL     1       2.027   3.148  19.597  0.00  0.00    +0.000 A 
ATOM     10  C   UNL     1       1.272   3.878  20.505  0.00  0.00    +0.000 A 
ATOM     11  C   UNL     1       1.290   5.279  20.473  0.00  0.00    +0.000 A 
ATOM     12  C   UNL     1       2.055   5.977  19.526  0.00  0.00    +0.000 A 
ENDROOT
BRANCH   2  13
ATOM     13  C   UNL     1       1.027   9.599  20.072  0.00  0.00    +0.000 C 
ATOM     14  C   UNL     1      -0.428   9.485  19.621  0.00  0.00    +0.000 C 
ATOM     15  C   UNL     1      -0.919  10.897  19.824  0.00  0.00    +0.000 C 
ATOM     16  O   UNL     1      -1.917  11.371  19.304  0.00  0.00    +0.000 OA
ATOM     17  N   UNL     1      -0.048  11.535  20.699  0.00  0.00    +0.000 N 
ATOM     18  C   UNL     1       0.961  10.620  21.195  0.00  0.00    +0.000 C 
BRANCH  17  19
ATOM     19  C   UNL     1      -0.252  12.899  21.191  0.00  0.00    +0.000 C 
ATOM     20  C   UNL     1       1.037  13.726  21.146  0.00  0.00    +0.000 C 
ATOM     21  C   UNL     1       0.810  15.102  21.756  0.00  0.00    +0.000 C 
ATOM     22  O   UNL     1       0.287  14.984  23.078  0.00  0.00    +0.000 OA
ATOM     23  C   UNL     1      -0.992  14.350  23.094  0.00  0.00    +0.000 C 
ATOM     24  C   UNL     1      -0.884  12.921  22.583  0.00  0.00    +0.000 C 
ENDBRANCH  17  19
ENDBRANCH   2  13
TORSDOF 2
ENDMDL
MODEL 7
REMARK VINA RESULT:      -6.8      2.311      3.567
REMARK  Name = 
REMARK  2 active torsions:
REMARK  status: ('A' for Active; 'I' for Inactive)
REMARK    1  A    between atoms: C_2  and  C_3
REMARK    2  A    between atoms: N_7  and  C_8
REMARK                            x       y       z     vdW  Elec       q    Type
REMARK                         _______ _______ _______ _____ _____    ______ ____
ROOT
ATOM      1  O   UNL     1       1.595   8.996  20.690  0.00  0.00    +0.000 OA
ATOM      2  C   UNL     1       1.233   9.000  19.515  0.00  0.00    +0.000 C 
ATOM      3  N   UNL     1       0.426   9.992  18.927  0.00  0.00    +0.000 N 
ATOM      4  C   UNL     1      -0.348   9.735  17.707  0.00  0.00    +0.000 C 
ATOM      5  C   UNL     1      -1.764  10.255  17.793  0.00  0.00    +0.000 C 
ATOM      6  C   UNL     1      -1.759  11.750  18.022  0.00  0.00    +0.000 C 
ATOM      7  C   UNL     1      -0.735  12.173  19.038  0.00  0.00    +0.000 A 
ATOM      8  C   UNL     1      -0.825  13.491  19.524  0.00  0.00    +0.000 A 
ATOM      9  C   UNL     1       0.116  13.982  20.422  0.00  0.00    +0.000 A 
ATOM     10  C   UNL     1       1.156  13.162  20.840  0.00  0.00    +0.000 A 
ATOM     11  C   UNL     1       1.247  11.845  20.373  0.00  0.00    +0.000 A 
ATOM     12  C   UNL     1       0.307  11.324  19.471  0.00  0.00    +0.000 A 
ENDROOT
BRANCH   2  13
ATOM     13  C   UNL     1       1.749   7.919  18.576  0.00  0.00    +0.000 C 
ATOM     14  C   UNL     1       3.050   8.362  17.910  0.00  0.00    +0.000 C 
ATOM     15  C   UNL     1       3.661   7.035  17.530  0.00  0.00    +0.000 C 
ATOM     16  O   UNL     1       4.540   6.885  16.695  0.00  0.00    +0.000 OA
ATOM     17  N   UNL     1       3.058   6.047  18.298  0.00  0.00    +0.000 N 
ATOM     18  C   UNL     1       2.136   6.618  19.260  0.00  0.00    +0.000 C 
BRANCH  17  19
ATOM     19  C   UNL     1       3.455   4.638  18.258  0.00  0.00    +0.000 C 
ATOM     20  C   UNL     1       2.359   3.747  17.664  0.00  0.00    +0.000 C 
ATOM     21  C   UNL     1       2.766   2.283  17.731  0.00  0.00    +0.000 C 
ATOM     22  O   UNL     1       3.099   1.915  19.069  0.00  0.00    +0.000 OA
ATOM     23  C   UNL     1       4.226   2.642  19.559  0.00  0.00    +0.000 C 
ATOM     24  C   UNL     1       3.913   4.129  19.625  0.00  0.00    +0.000 C 
ENDBRANCH  17  19
ENDBRANCH   2  13
TORSDOF 2
ENDMDL
MODEL 8
REMARK VINA RESULT:      -6.8      2.520      7.976
REMARK  Name = 
REMARK  2 active torsions:
REMARK  status: ('A' for Active; 'I' for Inactive)
REMARK    1  A    between atoms: C_2  and  C_3
REMARK    2  A    between atoms: N_7  and  C_8
REMARK                            x       y       z     vdW  Elec       q    Type
REMARK                         _______ _______ _______ _____ _____    ______ ____
ROOT
ATOM      1  O   UNL     1       1.225   5.926  20.874  0.00  0.00    +0.000 OA
ATOM      2  C   UNL     1       2.097   6.358  20.122  0.00  0.00    +0.000 C 
ATOM      3  N   UNL     1       3.003   5.557  19.400  0.00  0.00    +0.000 N 
ATOM      4  C   UNL     1       4.279   6.088  18.907  0.00  0.00    +0.000 C 
ATOM      5  C   UNL     1       5.439   5.155  19.168  0.00  0.00    +0.000 C 
ATOM      6  C   UNL     1       5.205   3.827  18.485  0.00  0.00    +0.000 C 
ATOM      7  C   UNL     1       3.791   3.339  18.644  0.00  0.00    +0.000 A 
ATOM      8  C   UNL     1       3.534   2.002  18.286  0.00  0.00    +0.000 A 
ATOM      9  C   UNL     1       2.244   1.487  18.347  0.00  0.00    +0.000 A 
ATOM     10  C   UNL     1       1.201   2.303  18.764  0.00  0.00    +0.000 A 
ATOM     11  C   UNL     1       1.448   3.631  19.135  0.00  0.00    +0.000 A 
ATOM     12  C   UNL     1       2.741   4.173  19.087  0.00  0.00    +0.000 A 
ENDROOT
BRANCH   2  13
ATOM     13  C   UNL     1       2.176   7.854  19.860  0.00  0.00    +0.000 C 
ATOM     14  C   UNL     1       2.152   8.139  18.360  0.00  0.00    +0.000 C 
ATOM     15  C   UNL     1       1.663   9.566  18.330  0.00  0.00    +0.000 C 
ATOM     16  O   UNL     1       1.790  10.329  17.385  0.00  0.00    +0.000 OA
ATOM     17  N   UNL     1       1.049   9.837  19.547  0.00  0.00    +0.000 N 
ATOM     18  C   UNL     1       0.992   8.653  20.381  0.00  0.00    +0.000 C 
BRANCH  17  19
ATOM     19  C   UNL     1       0.382  11.105  19.851  0.00  0.00    +0.000 C 
ATOM     20  C   UNL     1       0.388  11.413  21.352  0.00  0.00    +0.000 C 
ATOM     21  C   UNL     1      -0.397  12.683  21.640  0.00  0.00    +0.000 C 
ATOM     22  O   UNL     1      -1.719  12.586  21.111  0.00  0.00    +0.000 OA
ATOM     23  C   UNL     1      -1.719  12.458  19.689  0.00  0.00    +0.000 C 
ATOM     24  C   UNL     1      -1.031  11.166  19.271  0.00  0.00    +0.000 C 
ENDBRANCH  17  19
ENDBRANCH   2  13
TORSDOF 2
ENDMDL
MODEL 9
REMARK VINA RESULT:      -6.8      3.209      7.902
REMARK  Name = 
REMARK  2 active torsions:
REMARK  status: ('A' for Active; 'I' for Inactive)
REMARK    1  A    between atoms: C_2  and  C_3
REMARK    2  A    between atoms: N_7  and  C_8
REMARK                            x       y       z     vdW  Elec       q    Type
REMARK                         _______ _______ _______ _____ _____    ______ ____
ROOT
ATOM      1  O   UNL     1       1.482   8.456  20.994  0.00  0.00    +0.000 OA
ATOM      2  C   UNL     1       1.654   8.504  19.778  0.00  0.00    +0.000 C 
ATOM      3  N   UNL     1       2.267   7.492  19.014  0.00  0.00    +0.000 N 
ATOM      4  C   UNL     1       2.862   7.770  17.701  0.00  0.00    +0.000 C 
ATOM      5  C   UNL     1       4.222   7.132  17.530  0.00  0.00    +0.000 C 
ATOM      6  C   UNL     1       4.116   5.630  17.673  0.00  0.00    +0.000 C 
ATOM      7  C   UNL     1       3.228   5.222  18.816  0.00  0.00    +0.000 A 
ATOM      8  C   UNL     1       3.272   3.871  19.207  0.00  0.00    +0.000 A 
ATOM      9  C   UNL     1       2.442   3.397  20.216  0.00  0.00    +0.000 A 
ATOM     10  C   UNL     1       1.558   4.267  20.841  0.00  0.00    +0.000 A 
ATOM     11  C   UNL     1       1.516   5.617  20.468  0.00  0.00    +0.000 A 
ATOM     12  C   UNL     1       2.347   6.121  19.457  0.00  0.00    +0.000 A 
ENDROOT
BRANCH   2  13
ATOM     13  C   UNL     1       1.099   9.685  18.995  0.00  0.00    +0.000 C 
ATOM     14  C   UNL     1      -0.381   9.889  19.309  0.00  0.00    +0.000 C 
ATOM     15  C   UNL     1      -0.569  11.342  18.944  0.00  0.00    +0.000 C 
ATOM     16  O   UNL     1      -1.647  11.871  18.719  0.00  0.00    +0.000 OA
ATOM     17  N   UNL     1       0.681  11.947  18.924  0.00  0.00    +0.000 N 
ATOM     18  C   UNL     1       1.716  11.027  19.352  0.00  0.00    +0.000 C 
BRANCH  17  19
ATOM     19  C   UNL     1       0.882  13.378  18.685  0.00  0.00    +0.000 C 
ATOM     20  C   UNL     1       2.321  13.695  18.265  0.00  0.00    +0.000 C 
ATOM     21  C   UNL     1       2.518  15.197  18.124  0.00  0.00    +0.000 C 
ATOM     22  O   UNL     1       2.143  15.867  19.326  0.00  0.00    +0.000 OA
ATOM     23  C   UNL     1       0.757  15.696  19.625  0.00  0.00    +0.000 C 
ATOM     24  C   UNL     1       0.445  14.228  19.878  0.00  0.00    +0.000 C 
ENDBRANCH  17  19
ENDBRANCH   2  13
TORSDOF 2
ENDMDL
