MODEL 1
REMARK VINA RESULT:      -6.2      0.000      0.000
REMARK  Name = 
REMARK  8 active torsions:
REMARK  status: ('A' for Active; 'I' for Inactive)
REMARK    1  A    between atoms: C_4  and  O_5
REMARK    2  A    between atoms: O_5  and  C_6
REMARK    3  A    between atoms: C_6  and  C_7
REMARK    4  A    between atoms: C_7  and  C_8
REMARK    5  A    between atoms: C_8  and  N_9
REMARK    6  A    between atoms: N_9  and  C_10
REMARK    7  A    between atoms: C_10  and  C_11
REMARK    8  A    between atoms: C_11  and  N_12
REMARK                            x       y       z     vdW  Elec       q    Type
REMARK                         _______ _______ _______ _____ _____    ______ ____
ROOT
ATOM      1  C   UNL     1       5.750   7.614  17.509  0.00  0.00    +0.000 C 
ENDROOT
BRANCH   1   2
ATOM      2  N   UNL     1       6.973   6.979  17.006  0.00  0.00    +0.000 NA
ATOM      3  H   UNL     1       7.678   7.703  16.851  0.00  0.00    +0.000 HD
BRANCH   2   4
ATOM      4  C   UNL     1       7.520   5.990  17.949  0.00  0.00    +0.000 C 
BRANCH   4   5
ATOM      5  C   UNL     1       7.598   4.571  17.384  0.00  0.00    +0.000 C 
BRANCH   5   6
ATOM      6  N   UNL     1       7.038   4.495  16.049  0.00  0.00    +0.000 N 
ATOM      7  C   UNL     1       5.911   3.828  15.667  0.00  0.00    +0.000 A 
ATOM      8  C   UNL     1       5.821   3.992  14.305  0.00  0.00    +0.000 A 
ATOM      9  C   UNL     1       6.939   4.775  13.965  0.00  0.00    +0.000 A 
ATOM     10  N   UNL     1       7.678   5.094  15.029  0.00  0.00    +0.000 NA
ENDBRANCH   5   6
ENDBRANCH   4   5
ENDBRANCH   2   4
ENDBRANCH   1   2
BRANCH   1  11
ATOM     11  C   UNL     1       4.505   6.895  16.995  0.00  0.00    +0.000 C 
BRANCH  11  12
ATOM     12  C   UNL     1       3.607   6.423  18.136  0.00  0.00    +0.000 C 
BRANCH  12  13
ATOM     13  O   UNL     1       2.749   5.395  17.637  0.00  0.00    +0.000 OA
BRANCH  13  17
ATOM     14  C   UNL     1       0.894   2.875  20.381  0.00  0.00    +0.000 A 
ATOM     15  C   UNL     1       0.935   2.574  19.021  0.00  0.00    +0.000 A 
ATOM     16  C   UNL     1       1.568   3.444  18.133  0.00  0.00    +0.000 A 
ATOM     17  C   UNL     1       2.147   4.626  18.596  0.00  0.00    +0.000 A 
ATOM     18  C   UNL     1       2.116   4.918  19.962  0.00  0.00    +0.000 A 
ATOM     19  C   UNL     1       1.489   4.043  20.852  0.00  0.00    +0.000 A 
ENDBRANCH  13  17
ENDBRANCH  12  13
ENDBRANCH  11  12
ENDBRANCH   1  11
TORSDOF 8
ENDMDL
MODEL 2
REMARK VINA RESULT:      -6.0      1.934      2.643
REMARK  Name = 
REMARK  8 active torsions:
REMARK  status: ('A' for Active; 'I' for Inactive)
REMARK    1  A    between atoms: C_4  and  O_5
REMARK    2  A    between atoms: O_5  and  C_6
REMARK    3  A    between atoms: C_6  and  C_7
REMARK    4  A    between atoms: C_7  and  C_8
REMARK    5  A    between atoms: C_8  and  N_9
REMARK    6  A    between atoms: N_9  and  C_10
REMARK    7  A    between atoms: C_10  and  C_11
REMARK    8  A    between atoms: C_11  and  N_12
REMARK                            x       y       z     vdW  Elec       q    Type
REMARK                         _______ _______ _______ _____ _____    ______ ____
ROOT
ATOM      1  C   UNL     1       7.782   4.613  17.911  0.00  0.00    +0.000 C 
ENDROOT
BRANCH   1   2
ATOM      2  N   UNL     1       7.669   4.749  16.456  0.00  0.00    +0.000 NA
ATOM      3  H   UNL     1       7.674   3.816  16.038  0.00  0.00    +0.000 HD
BRANCH   2   4
ATOM      4  C   UNL     1       6.430   5.434  16.052  0.00  0.00    +0.000 C 
BRANCH   4   5
ATOM      5  C   UNL     1       5.548   4.615  15.107  0.00  0.00    +0.000 C 
BRANCH   5   6
ATOM      6  N   UNL     1       6.186   4.412  13.821  0.00  0.00    +0.000 N 
ATOM      7  C   UNL     1       5.865   3.474  12.883  0.00  0.00    +0.000 A 
ATOM      8  C   UNL     1       6.780   3.628  11.870  0.00  0.00    +0.000 A 
ATOM      9  C   UNL     1       7.608   4.684  12.293  0.00  0.00    +0.000 A 
ATOM     10  N   UNL     1       7.239   5.173  13.478  0.00  0.00    +0.000 NA
ENDBRANCH   5   6
ENDBRANCH   4   5
ENDBRANCH   2   4
ENDBRANCH   1   2
BRANCH   1  11
ATOM     11  C   UNL     1       7.050   5.744  18.630  0.00  0.00    +0.000 C 
BRANCH  11  12
ATOM     12  C   UNL     1       5.930   5.220  19.526  0.00  0.00    +0.000 C 
BRANCH  12  13
ATOM     13  O   UNL     1       5.496   3.960  19.012  0.00  0.00    +0.000 OA
BRANCH  13  17
ATOM     14  C   UNL     1       1.563   3.618  17.693  0.00  0.00    +0.000 A 
ATOM     15  C   UNL     1       2.369   2.499  17.892  0.00  0.00    +0.000 A 
ATOM     16  C   UNL     1       3.682   2.656  18.336  0.00  0.00    +0.000 A 
ATOM     17  C   UNL     1       4.202   3.930  18.568  0.00  0.00    +0.000 A 
ATOM     18  C   UNL     1       3.387   5.049  18.381  0.00  0.00    +0.000 A 
ATOM     19  C   UNL     1       2.070   4.891  17.943  0.00  0.00    +0.000 A 
ENDBRANCH  13  17
ENDBRANCH  12  13
ENDBRANCH  11  12
ENDBRANCH   1  11
TORSDOF 8
ENDMDL
MODEL 3
REMARK VINA RESULT:      -6.0      1.120      1.320
REMARK  Name = 
REMARK  8 active torsions:
REMARK  status: ('A' for Active; 'I' for Inactive)
REMARK    1  A    between atoms: C_4  and  O_5
REMARK    2  A    between atoms: O_5  and  C_6
REMARK    3  A    between atoms: C_6  and  C_7
REMARK    4  A    between atoms: C_7  and  C_8
REMARK    5  A    between atoms: C_8  and  N_9
REMARK    6  A    between atoms: N_9  and  C_10
REMARK    7  A    between atoms: C_10  and  C_11
REMARK    8  A    between atoms: C_11  and  N_12
REMARK                            x       y       z     vdW  Elec       q    Type
REMARK                         _______ _______ _______ _____ _____    ______ ____
ROOT
ATOM      1  C   UNL     1       4.864   5.516  19.428  0.00  0.00    +0.000 C 
ENDROOT
BRANCH   1   2
ATOM      2  N   UNL     1       6.128   4.788  19.275  0.00  0.00    +0.000 NA
ATOM      3  H   UNL     1       5.927   3.855  18.907  0.00  0.00    +0.000 HD
BRANCH   2   4
ATOM      4  C   UNL     1       7.056   5.463  18.354  0.00  0.00    +0.000 C 
BRANCH   4   5
ATOM      5  C   UNL     1       7.758   4.517  17.378  0.00  0.00    +0.000 C 
BRANCH   5   6
ATOM      6  N   UNL     1       7.107   4.504  16.082  0.00  0.00    +0.000 N 
ATOM      7  C   UNL     1       5.993   3.801  15.729  0.00  0.00    +0.000 A 
ATOM      8  C   UNL     1       5.795   4.058  14.393  0.00  0.00    +0.000 A 
ATOM      9  C   UNL     1       6.842   4.927  14.037  0.00  0.00    +0.000 A 
ATOM     10  N   UNL     1       7.637   5.212  15.069  0.00  0.00    +0.000 NA
ENDBRANCH   5   6
ENDBRANCH   4   5
ENDBRANCH   2   4
ENDBRANCH   1   2
BRANCH   1  11
ATOM     11  C   UNL     1       4.428   6.145  18.107  0.00  0.00    +0.000 C 
BRANCH  11  12
ATOM     12  C   UNL     1       2.911   6.304  18.025  0.00  0.00    +0.000 C 
BRANCH  12  13
ATOM     13  O   UNL     1       2.367   6.103  19.331  0.00  0.00    +0.000 OA
BRANCH  13  17
ATOM     14  C   UNL     1       0.869   2.247  19.794  0.00  0.00    +0.000 A 
ATOM     15  C   UNL     1       1.049   2.817  18.535  0.00  0.00    +0.000 A 
ATOM     16  C   UNL     1       1.555   4.112  18.422  0.00  0.00    +0.000 A 
ATOM     17  C   UNL     1       1.867   4.851  19.564  0.00  0.00    +0.000 A 
ATOM     18  C   UNL     1       1.699   4.271  20.824  0.00  0.00    +0.000 A 
ATOM     19  C   UNL     1       1.199   2.972  20.937  0.00  0.00    +0.000 A 
ENDBRANCH  13  17
ENDBRANCH  12  13
ENDBRANCH  11  12
ENDBRANCH   1  11
TORSDOF 8
ENDMDL
MODEL 4
REMARK VINA RESULT:      -5.9      1.326      2.503
REMARK  Name = 
REMARK  8 active torsions:
REMARK  status: ('A' for Active; 'I' for Inactive)
REMARK    1  A    between atoms: C_4  and  O_5
REMARK    2  A    between atoms: O_5  and  C_6
REMARK    3  A    between atoms: C_6  and  C_7
REMARK    4  A    between atoms: C_7  and  C_8
REMARK    5  A    between atoms: C_8  and  N_9
REMARK    6  A    between atoms: N_9  and  C_10
REMARK    7  A    between atoms: C_10  and  C_11
REMARK    8  A    between atoms: C_11  and  N_12
REMARK                            x       y       z     vdW  Elec       q    Type
REMARK                         _______ _______ _______ _____ _____    ______ ____
ROOT
ATOM      1  C   UNL     1       4.513   7.131  16.618  0.00  0.00    +0.000 C 
ENDROOT
BRANCH   1   2
ATOM      2  N   UNL     1       5.161   6.692  15.378  0.00  0.00    +0.000 NA
ATOM      3  H   UNL     1       6.021   7.229  15.250  0.00  0.00    +0.000 HD
BRANCH   2   4
ATOM      4  C   UNL     1       5.503   5.260  15.400  0.00  0.00    +0.000 C 
BRANCH   4   5
ATOM      5  C   UNL     1       6.986   4.981  15.655  0.00  0.00    +0.000 C 
BRANCH   5   6
ATOM      6  N   UNL     1       7.420   5.518  16.930  0.00  0.00    +0.000 N 
ATOM      7  C   UNL     1       7.590   4.832  18.096  0.00  0.00    +0.000 A 
ATOM      8  C   UNL     1       7.947   5.769  19.036  0.00  0.00    +0.000 A 
ATOM      9  C   UNL     1       7.966   6.989  18.334  0.00  0.00    +0.000 A 
ATOM     10  N   UNL     1       7.657   6.837  17.045  0.00  0.00    +0.000 NA
ENDBRANCH   5   6
ENDBRANCH   4   5
ENDBRANCH   2   4
ENDBRANCH   1   2
BRANCH   1  11
ATOM     11  C   UNL     1       3.868   5.956  17.349  0.00  0.00    +0.000 C 
BRANCH  11  12
ATOM     12  C   UNL     1       4.231   5.938  18.833  0.00  0.00    +0.000 C 
BRANCH  12  13
ATOM     13  O   UNL     1       4.274   4.578  19.269  0.00  0.00    +0.000 OA
BRANCH  13  17
ATOM     14  C   UNL     1       0.659   2.523  19.467  0.00  0.00    +0.000 A 
ATOM     15  C   UNL     1       1.698   2.102  18.637  0.00  0.00    +0.000 A 
ATOM     16  C   UNL     1       2.894   2.818  18.601  0.00  0.00    +0.000 A 
ATOM     17  C   UNL     1       3.055   3.966  19.377  0.00  0.00    +0.000 A 
ATOM     18  C   UNL     1       2.017   4.377  20.218  0.00  0.00    +0.000 A 
ATOM     19  C   UNL     1       0.821   3.656  20.260  0.00  0.00    +0.000 A 
ENDBRANCH  13  17
ENDBRANCH  12  13
ENDBRANCH  11  12
ENDBRANCH   1  11
TORSDOF 8
ENDMDL
MODEL 5
REMARK VINA RESULT:      -5.9      1.044      1.205
REMARK  Name = 
REMARK  8 active torsions:
REMARK  status: ('A' for Active; 'I' for Inactive)
REMARK    1  A    between atoms: C_4  and  O_5
REMARK    2  A    between atoms: O_5  and  C_6
REMARK    3  A    between atoms: C_6  and  C_7
REMARK    4  A    between atoms: C_7  and  C_8
REMARK    5  A    between atoms: C_8  and  N_9
REMARK    6  A    between atoms: N_9  and  C_10
REMARK    7  A    between atoms: C_10  and  C_11
REMARK    8  A    between atoms: C_11  and  N_12
REMARK                            x       y       z     vdW  Elec       q    Type
REMARK                         _______ _______ _______ _____ _____    ______ ____
ROOT
ATOM      1  C   UNL     1       4.367   6.826  16.820  0.00  0.00    +0.000 C 
ENDROOT
BRANCH   1   2
ATOM      2  N   UNL     1       5.820   6.939  16.977  0.00  0.00    +0.000 NA
ATOM      3  H   UNL     1       6.047   7.896  17.256  0.00  0.00    +0.000 HD
BRANCH   2   4
ATOM      4  C   UNL     1       6.348   6.018  17.997  0.00  0.00    +0.000 C 
BRANCH   4   5
ATOM      5  C   UNL     1       7.198   4.881  17.426  0.00  0.00    +0.000 C 
BRANCH   5   6
ATOM      6  N   UNL     1       6.923   4.661  16.020  0.00  0.00    +0.000 N 
ATOM      7  C   UNL     1       6.060   3.750  15.484  0.00  0.00    +0.000 A 
ATOM      8  C   UNL     1       6.187   3.870  14.120  0.00  0.00    +0.000 A 
ATOM      9  C   UNL     1       7.149   4.880  13.938  0.00  0.00    +0.000 A 
ATOM     10  N   UNL     1       7.591   5.374  15.096  0.00  0.00    +0.000 NA
ENDBRANCH   5   6
ENDBRANCH   4   5
ENDBRANCH   2   4
ENDBRANCH   1   2
BRANCH   1  11
ATOM     11  C   UNL     1       3.634   7.719  17.818  0.00  0.00    +0.000 C 
BRANCH  11  12
ATOM     12  C   UNL     1       2.545   6.958  18.571  0.00  0.00    +0.000 C 
BRANCH  12  13
ATOM     13  O   UNL     1       3.170   6.149  19.569  0.00  0.00    +0.000 OA
BRANCH  13  17
ATOM     14  C   UNL     1       1.735   2.255  19.896  0.00  0.00    +0.000 A 
ATOM     15  C   UNL     1       2.782   2.581  19.035  0.00  0.00    +0.000 A 
ATOM     16  C   UNL     1       3.235   3.898  18.955  0.00  0.00    +0.000 A 
ATOM     17  C   UNL     1       2.635   4.899  19.721  0.00  0.00    +0.000 A 
ATOM     18  C   UNL     1       1.595   4.566  20.593  0.00  0.00    +0.000 A 
ATOM     19  C   UNL     1       1.147   3.246  20.678  0.00  0.00    +0.000 A 
ENDBRANCH  13  17
ENDBRANCH  12  13
ENDBRANCH  11  12
ENDBRANCH   1  11
TORSDOF 8
ENDMDL
MODEL 6
REMARK VINA RESULT:      -5.8      2.323      4.191
REMARK  Name = 
REMARK  8 active torsions:
REMARK  status: ('A' for Active; 'I' for Inactive)
REMARK    1  A    between atoms: C_4  and  O_5
REMARK    2  A    between atoms: O_5  and  C_6
REMARK    3  A    between atoms: C_6  and  C_7
REMARK    4  A    between atoms: C_7  and  C_8
REMARK    5  A    between atoms: C_8  and  N_9
REMARK    6  A    between atoms: N_9  and  C_10
REMARK    7  A    between atoms: C_10  and  C_11
REMARK    8  A    between atoms: C_11  and  N_12
REMARK                            x       y       z     vdW  Elec       q    Type
REMARK                         _______ _______ _______ _____ _____    ______ ____
ROOT
ATOM      1  C   UNL     1       3.662   3.335  17.506  0.00  0.00    +0.000 C 
ENDROOT
BRANCH   1   2
ATOM      2  N   UNL     1       4.870   4.139  17.300  0.00  0.00    +0.000 NA
ATOM      3  H   UNL     1       5.533   3.934  18.051  0.00  0.00    +0.000 HD
BRANCH   2   4
ATOM      4  C   UNL     1       5.522   3.852  16.012  0.00  0.00    +0.000 C 
BRANCH   4   5
ATOM      5  C   UNL     1       6.888   4.521  15.845  0.00  0.00    +0.000 C 
BRANCH   5   6
ATOM      6  N   UNL     1       7.262   5.276  17.024  0.00  0.00    +0.000 N 
ATOM      7  C   UNL     1       7.382   6.630  17.130  0.00  0.00    +0.000 A 
ATOM      8  C   UNL     1       7.817   6.870  18.412  0.00  0.00    +0.000 A 
ATOM      9  C   UNL     1       7.927   5.595  18.996  0.00  0.00    +0.000 A 
ATOM     10  N   UNL     1       7.576   4.620  18.156  0.00  0.00    +0.000 NA
ENDBRANCH   5   6
ENDBRANCH   4   5
ENDBRANCH   2   4
ENDBRANCH   1   2
BRANCH   1  11
ATOM     11  C   UNL     1       2.479   4.211  17.910  0.00  0.00    +0.000 C 
BRANCH  11  12
ATOM     12  C   UNL     1       2.884   5.293  18.910  0.00  0.00    +0.000 C 
BRANCH  12  13
ATOM     13  O   UNL     1       3.086   6.513  18.194  0.00  0.00    +0.000 OA
BRANCH  13  17
ATOM     14  C   UNL     1       0.947   9.868  19.417  0.00  0.00    +0.000 A 
ATOM     15  C   UNL     1       1.452   9.752  18.123  0.00  0.00    +0.000 A 
ATOM     16  C   UNL     1       2.162   8.610  17.752  0.00  0.00    +0.000 A 
ATOM     17  C   UNL     1       2.388   7.588  18.674  0.00  0.00    +0.000 A 
ATOM     18  C   UNL     1       1.869   7.701  19.966  0.00  0.00    +0.000 A 
ATOM     19  C   UNL     1       1.151   8.841  20.336  0.00  0.00    +0.000 A 
ENDBRANCH  13  17
ENDBRANCH  12  13
ENDBRANCH  11  12
ENDBRANCH   1  11
TORSDOF 8
ENDMDL
MODEL 7
REMARK VINA RESULT:      -5.8      1.224      2.066
REMARK  Name = 
REMARK  8 active torsions:
REMARK  status: ('A' for Active; 'I' for Inactive)
REMARK    1  A    between atoms: C_4  and  O_5
REMARK    2  A    between atoms: O_5  and  C_6
REMARK    3  A    between atoms: C_6  and  C_7
REMARK    4  A    between atoms: C_7  and  C_8
REMARK    5  A    between atoms: C_8  and  N_9
REMARK    6  A    between atoms: N_9  and  C_10
REMARK    7  A    between atoms: C_10  and  C_11
REMARK    8  A    between atoms: C_11  and  N_12
REMARK                            x       y       z     vdW  Elec       q    Type
REMARK                         _______ _______ _______ _____ _____    ______ ____
ROOT
ATOM      1  C   UNL     1       6.244   6.227  17.692  0.00  0.00    +0.000 C 
ENDROOT
BRANCH   1   2
ATOM      2  N   UNL     1       5.869   6.240  16.276  0.00  0.00    +0.000 NA
ATOM      3  H   UNL     1       6.718   6.314  15.711  0.00  0.00    +0.000 HD
BRANCH   2   4
ATOM      4  C   UNL     1       5.148   5.020  15.875  0.00  0.00    +0.000 C 
BRANCH   4   5
ATOM      5  C   UNL     1       6.053   3.919  15.320  0.00  0.00    +0.000 C 
BRANCH   5   6
ATOM      6  N   UNL     1       6.648   4.301  14.054  0.00  0.00    +0.000 N 
ATOM      7  C   UNL     1       6.420   3.734  12.835  0.00  0.00    +0.000 A 
ATOM      8  C   UNL     1       7.251   4.388  11.956  0.00  0.00    +0.000 A 
ATOM      9  C   UNL     1       7.934   5.331  12.744  0.00  0.00    +0.000 A 
ATOM     10  N   UNL     1       7.559   5.289  14.024  0.00  0.00    +0.000 NA
ENDBRANCH   5   6
ENDBRANCH   4   5
ENDBRANCH   2   4
ENDBRANCH   1   2
BRANCH   1  11
ATOM     11  C   UNL     1       5.225   5.455  18.527  0.00  0.00    +0.000 C 
BRANCH  11  12
ATOM     12  C   UNL     1       4.086   6.351  19.009  0.00  0.00    +0.000 C 
BRANCH  12  13
ATOM     13  O   UNL     1       2.911   6.022  18.267  0.00  0.00    +0.000 OA
BRANCH  13  17
ATOM     14  C   UNL     1       0.781   2.830  19.881  0.00  0.00    +0.000 A 
ATOM     15  C   UNL     1       1.198   3.904  20.665  0.00  0.00    +0.000 A 
ATOM     16  C   UNL     1       1.909   4.955  20.086  0.00  0.00    +0.000 A 
ATOM     17  C   UNL     1       2.222   4.932  18.726  0.00  0.00    +0.000 A 
ATOM     18  C   UNL     1       1.790   3.860  17.940  0.00  0.00    +0.000 A 
ATOM     19  C   UNL     1       1.072   2.811  18.519  0.00  0.00    +0.000 A 
ENDBRANCH  13  17
ENDBRANCH  12  13
ENDBRANCH  11  12
ENDBRANCH   1  11
TORSDOF 8
ENDMDL
MODEL 8
REMARK VINA RESULT:      -5.7      2.949      6.798
REMARK  Name = 
REMARK  8 active torsions:
REMARK  status: ('A' for Active; 'I' for Inactive)
REMARK    1  A    between atoms: C_4  and  O_5
REMARK    2  A    between atoms: O_5  and  C_6
REMARK    3  A    between atoms: C_6  and  C_7
REMARK    4  A    between atoms: C_7  and  C_8
REMARK    5  A    between atoms: C_8  and  N_9
REMARK    6  A    between atoms: N_9  and  C_10
REMARK    7  A    between atoms: C_10  and  C_11
REMARK    8  A    between atoms: C_11  and  N_12
REMARK                            x       y       z     vdW  Elec       q    Type
REMARK                         _______ _______ _______ _____ _____    ______ ____
ROOT
ATOM      1  C   UNL     1       4.460   5.582  16.909  0.00  0.00    +0.000 C 
ENDROOT
BRANCH   1   2
ATOM      2  N   UNL     1       3.846   4.796  17.983  0.00  0.00    +0.000 NA
ATOM      3  H   UNL     1       2.876   5.098  18.098  0.00  0.00    +0.000 HD
BRANCH   2   4
ATOM      4  C   UNL     1       3.854   3.352  17.696  0.00  0.00    +0.000 C 
BRANCH   4   5
ATOM      5  C   UNL     1       3.930   2.472  18.945  0.00  0.00    +0.000 C 
BRANCH   5   6
ATOM      6  N   UNL     1       2.822   2.722  19.845  0.00  0.00    +0.000 N 
ATOM      7  C   UNL     1       2.831   2.630  21.206  0.00  0.00    +0.000 A 
ATOM      8  C   UNL     1       1.544   2.895  21.609  0.00  0.00    +0.000 A 
ATOM      9  C   UNL     1       0.838   3.135  20.416  0.00  0.00    +0.000 A 
ATOM     10  N   UNL     1       1.618   3.042  19.338  0.00  0.00    +0.000 NA
ENDBRANCH   5   6
ENDBRANCH   4   5
ENDBRANCH   2   4
ENDBRANCH   1   2
BRANCH   1  11
ATOM     11  C   UNL     1       5.899   5.959  17.253  0.00  0.00    +0.000 C 
BRANCH  11  12
ATOM     12  C   UNL     1       6.905   4.984  16.646  0.00  0.00    +0.000 C 
BRANCH  12  13
ATOM     13  O   UNL     1       7.479   5.594  15.489  0.00  0.00    +0.000 OA
BRANCH  13  17
ATOM     14  C   UNL     1       6.400   3.605  11.995  0.00  0.00    +0.000 A 
ATOM     15  C   UNL     1       5.788   3.326  13.216  0.00  0.00    +0.000 A 
ATOM     16  C   UNL     1       6.178   4.016  14.364  0.00  0.00    +0.000 A 
ATOM     17  C   UNL     1       7.191   4.974  14.303  0.00  0.00    +0.000 A 
ATOM     18  C   UNL     1       7.792   5.261  13.075  0.00  0.00    +0.000 A 
ATOM     19  C   UNL     1       7.397   4.575  11.924  0.00  0.00    +0.000 A 
ENDBRANCH  13  17
ENDBRANCH  12  13
ENDBRANCH  11  12
ENDBRANCH   1  11
TORSDOF 8
ENDMDL
MODEL 9
REMARK VINA RESULT:      -5.7      2.807      5.197
REMARK  Name = 
REMARK  8 active torsions:
REMARK  status: ('A' for Active; 'I' for Inactive)
REMARK    1  A    between atoms: C_4  and  O_5
REMARK    2  A    between atoms: O_5  and  C_6
REMARK    3  A    between atoms: C_6  and  C_7
REMARK    4  A    between atoms: C_7  and  C_8
REMARK    5  A    between atoms: C_8  and  N_9
REMARK    6  A    between atoms: N_9  and  C_10
REMARK    7  A    between atoms: C_10  and  C_11
REMARK    8  A    between atoms: C_11  and  N_12
REMARK                            x       y       z     vdW  Elec       q    Type
REMARK                         _______ _______ _______ _____ _____    ______ ____
ROOT
ATOM      1  C   UNL     1       5.511   3.976  16.261  0.00  0.00    +0.000 C 
ENDROOT
BRANCH   1   2
ATOM      2  N   UNL     1       5.041   3.526  17.574  0.00  0.00    +0.000 NA
ATOM      3  H   UNL     1       4.899   4.345  18.170  0.00  0.00    +0.000 HD
BRANCH   2   4
ATOM      4  C   UNL     1       3.772   2.784  17.493  0.00  0.00    +0.000 C 
BRANCH   4   5
ATOM      5  C   UNL     1       3.540   1.822  18.659  0.00  0.00    +0.000 C 
BRANCH   5   6
ATOM      6  N   UNL     1       2.702   2.414  19.683  0.00  0.00    +0.000 N 
ATOM      7  C   UNL     1       3.057   2.707  20.967  0.00  0.00    +0.000 A 
ATOM      8  C   UNL     1       1.920   3.190  21.570  0.00  0.00    +0.000 A 
ATOM      9  C   UNL     1       0.937   3.149  20.564  0.00  0.00    +0.000 A 
ATOM     10  N   UNL     1       1.415   2.688  19.407  0.00  0.00    +0.000 NA
ENDBRANCH   5   6
ENDBRANCH   4   5
ENDBRANCH   2   4
ENDBRANCH   1   2
BRANCH   1  11
ATOM     11  C   UNL     1       6.189   5.341  16.355  0.00  0.00    +0.000 C 
BRANCH  11  12
ATOM     12  C   UNL     1       5.461   6.274  17.320  0.00  0.00    +0.000 C 
BRANCH  12  13
ATOM     13  O   UNL     1       4.060   6.193  17.052  0.00  0.00    +0.000 OA
BRANCH  13  17
ATOM     14  C   UNL     1       1.680   7.946  19.983  0.00  0.00    +0.000 A 
ATOM     15  C   UNL     1       2.219   6.670  20.142  0.00  0.00    +0.000 A 
ATOM     16  C   UNL     1       3.013   6.119  19.137  0.00  0.00    +0.000 A 
ATOM     17  C   UNL     1       3.258   6.829  17.961  0.00  0.00    +0.000 A 
ATOM     18  C   UNL     1       2.727   8.113  17.811  0.00  0.00    +0.000 A 
ATOM     19  C   UNL     1       1.939   8.668  18.821  0.00  0.00    +0.000 A 
ENDBRANCH  13  17
ENDBRANCH  12  13
ENDBRANCH  11  12
ENDBRANCH   1  11
TORSDOF 8
ENDMDL
