MODEL 1
REMARK VINA RESULT:      -8.7      0.000      0.000
REMARK  Name = 
REMARK  9 active torsions:
REMARK  status: ('A' for Active; 'I' for Inactive)
REMARK    1  A    between atoms: C_1  and  C_2
REMARK    2  A    between atoms: C_3  and  C_4
REMARK    3  A    between atoms: N_6  and  C_7
REMARK    4  A    between atoms: N_6  and  C_15
REMARK    5  A    between atoms: C_7  and  C_8
REMARK    6  A    between atoms: C_8  and  C_9
REMARK    7  A    between atoms: C_15  and  C_16
REMARK    8  A    between atoms: C_16  and  O_17
REMARK    9  A    between atoms: C_16  and  C_18
REMARK                            x       y       z     vdW  Elec       q    Type
REMARK                         _______ _______ _______ _____ _____    ______ ____
ROOT
ATOM      1  C   UNL     1       4.165   5.760  18.120  0.00  0.00    +0.000 C 
ATOM      2  O   UNL     1       5.314   6.215  18.186  0.00  0.00    +0.000 OA
ATOM      3  N   UNL     1       3.928   4.700  17.214  0.00  0.00    +0.000 N 
ENDROOT
BRANCH   1   6
ATOM      4  C   UNL     1       2.644   8.570  17.672  0.00  0.00    +0.000 C 
ATOM      5  C   UNL     1       2.506   7.575  18.777  0.00  0.00    +0.000 A 
ATOM      6  C   UNL     1       3.139   6.343  18.997  0.00  0.00    +0.000 A 
ATOM      7  C   UNL     1       2.662   5.965  20.268  0.00  0.00    +0.000 A 
ATOM      8  N   UNL     1       1.767   6.817  20.786  0.00  0.00    +0.000 NA
ATOM      9  N   UNL     1       1.692   7.832  19.872  0.00  0.00    +0.000 N 
ATOM     10  C   UNL     1       0.911   8.982  20.174  0.00  0.00    +0.000 A 
ATOM     11  N   UNL     1       0.781  10.012  19.390  0.00  0.00    +0.000 NA
ATOM     12  C   UNL     1       0.036  11.038  19.904  0.00  0.00    +0.000 A 
ATOM     13  C   UNL     1      -0.523  11.069  21.114  0.00  0.00    +0.000 A 
ATOM     14  C   UNL     1      -0.368   9.910  21.989  0.00  0.00    +0.000 A 
ATOM     15  O   UNL     1      -0.814   9.883  23.130  0.00  0.00    +0.000 OA
ATOM     16  N   UNL     1       0.335   8.883  21.422  0.00  0.00    +0.000 N 
ATOM     17  C   UNL     1      -1.204  12.347  21.424  0.00  0.00    +0.000 C 
ATOM     18  C   UNL     1      -1.222  13.040  20.055  0.00  0.00    +0.000 C 
ATOM     19  C   UNL     1      -0.182  12.325  19.177  0.00  0.00    +0.000 C 
ATOM     20  H   UNL     1       0.512   8.049  21.973  0.00  0.00    +0.000 HD
ENDBRANCH   1   6
BRANCH   3  21
ATOM     21  C   UNL     1       2.633   4.058  16.858  0.00  0.00    +0.000 C 
BRANCH  21  22
ATOM     22  C   UNL     1       2.439   2.707  17.590  0.00  0.00    +0.000 C 
BRANCH  22  23
ATOM     23  C   UNL     1       2.237   2.668  19.087  0.00  0.00    +0.000 A 
ATOM     24  C   UNL     1       3.374   2.426  19.890  0.00  0.00    +0.000 A 
ATOM     25  C   UNL     1       3.287   2.375  21.281  0.00  0.00    +0.000 A 
ATOM     26  C   UNL     1       2.060   2.584  21.898  0.00  0.00    +0.000 A 
ATOM     27  C   UNL     1       0.932   2.859  21.123  0.00  0.00    +0.000 A 
ATOM     28  C   UNL     1       1.018   2.905  19.725  0.00  0.00    +0.000 A 
ENDBRANCH  22  23
ENDBRANCH  21  22
ENDBRANCH   3  21
BRANCH   3  29
ATOM     29  C   UNL     1       5.102   4.338  16.371  0.00  0.00    +0.000 C 
BRANCH  29  30
ATOM     30  C   UNL     1       5.172   5.066  15.016  0.00  0.00    +0.000 C 
BRANCH  30  31
ATOM     31  C   UNL     1       6.016   4.242  14.019  0.00  0.00    +0.000 C 
ATOM     32  F   UNL     1       5.295   3.837  12.947  0.00  0.00    +0.000 F 
ATOM     33  F   UNL     1       7.051   4.974  13.544  0.00  0.00    +0.000 F 
ATOM     34  F   UNL     1       6.531   3.130  14.590  0.00  0.00    +0.000 F 
ENDBRANCH  30  31
BRANCH  30  35
ATOM     35  O   UNL     1       5.661   6.412  15.181  0.00  0.00    +0.000 OA
ATOM     36  H   UNL     1       6.009   6.712  14.316  0.00  0.00    +0.000 HD
ENDBRANCH  30  35
ENDBRANCH  29  30
ENDBRANCH   3  29
TORSDOF 8
ENDMDL
MODEL 2
REMARK VINA RESULT:      -8.7      0.072      1.050
REMARK  Name = 
REMARK  9 active torsions:
REMARK  status: ('A' for Active; 'I' for Inactive)
REMARK    1  A    between atoms: C_1  and  C_2
REMARK    2  A    between atoms: C_3  and  C_4
REMARK    3  A    between atoms: N_6  and  C_7
REMARK    4  A    between atoms: N_6  and  C_15
REMARK    5  A    between atoms: C_7  and  C_8
REMARK    6  A    between atoms: C_8  and  C_9
REMARK    7  A    between atoms: C_15  and  C_16
REMARK    8  A    between atoms: C_16  and  O_17
REMARK    9  A    between atoms: C_16  and  C_18
REMARK                            x       y       z     vdW  Elec       q    Type
REMARK                         _______ _______ _______ _____ _____    ______ ____
ROOT
ATOM      1  C   UNL     1       4.205   5.742  18.115  0.00  0.00    +0.000 C 
ATOM      2  O   UNL     1       5.353   6.198  18.183  0.00  0.00    +0.000 OA
ATOM      3  N   UNL     1       3.967   4.688  17.203  0.00  0.00    +0.000 N 
ENDROOT
BRANCH   1   6
ATOM      4  C   UNL     1       2.652   8.534  17.663  0.00  0.00    +0.000 C 
ATOM      5  C   UNL     1       2.532   7.544  18.774  0.00  0.00    +0.000 A 
ATOM      6  C   UNL     1       3.178   6.320  18.995  0.00  0.00    +0.000 A 
ATOM      7  C   UNL     1       2.714   5.944  20.272  0.00  0.00    +0.000 A 
ATOM      8  N   UNL     1       1.814   6.789  20.792  0.00  0.00    +0.000 NA
ATOM      9  N   UNL     1       1.722   7.799  19.873  0.00  0.00    +0.000 N 
ATOM     10  C   UNL     1       0.931   8.943  20.174  0.00  0.00    +0.000 A 
ATOM     11  N   UNL     1       0.786   9.967  19.385  0.00  0.00    +0.000 NA
ATOM     12  C   UNL     1       0.034  10.988  19.899  0.00  0.00    +0.000 A 
ATOM     13  C   UNL     1      -0.517  11.020  21.113  0.00  0.00    +0.000 A 
ATOM     14  C   UNL     1      -0.344   9.867  21.993  0.00  0.00    +0.000 A 
ATOM     15  O   UNL     1      -0.781   9.842  23.137  0.00  0.00    +0.000 OA
ATOM     16  N   UNL     1       0.366   8.844  21.426  0.00  0.00    +0.000 N 
ATOM     17  C   UNL     1      -1.209  12.293  21.421  0.00  0.00    +0.000 C 
ATOM     18  C   UNL     1      -1.243  12.978  20.048  0.00  0.00    +0.000 C 
ATOM     19  C   UNL     1      -0.202  12.269  19.166  0.00  0.00    +0.000 C 
ATOM     20  H   UNL     1       0.555   8.016  21.981  0.00  0.00    +0.000 HD
ENDBRANCH   1   6
BRANCH   3  21
ATOM     21  C   UNL     1       2.672   4.046  16.844  0.00  0.00    +0.000 C 
BRANCH  21  22
ATOM     22  C   UNL     1       2.471   2.700  17.584  0.00  0.00    +0.000 C 
BRANCH  22  23
ATOM     23  C   UNL     1       2.362   2.662  19.091  0.00  0.00    +0.000 A 
ATOM     24  C   UNL     1       1.084   2.866  19.655  0.00  0.00    +0.000 A 
ATOM     25  C   UNL     1       0.884   2.845  21.035  0.00  0.00    +0.000 A 
ATOM     26  C   UNL     1       1.960   2.601  21.879  0.00  0.00    +0.000 A 
ATOM     27  C   UNL     1       3.224   2.363  21.338  0.00  0.00    +0.000 A 
ATOM     28  C   UNL     1       3.426   2.388  19.951  0.00  0.00    +0.000 A 
ENDBRANCH  22  23
ENDBRANCH  21  22
ENDBRANCH   3  21
BRANCH   3  29
ATOM     29  C   UNL     1       5.141   4.331  16.357  0.00  0.00    +0.000 C 
BRANCH  29  30
ATOM     30  C   UNL     1       5.210   5.068  15.006  0.00  0.00    +0.000 C 
BRANCH  30  31
ATOM     31  C   UNL     1       5.982   4.211  13.979  0.00  0.00    +0.000 C 
ATOM     32  F   UNL     1       6.472   3.072  14.525  0.00  0.00    +0.000 F 
ATOM     33  F   UNL     1       5.177   3.844  12.956  0.00  0.00    +0.000 F 
ATOM     34  F   UNL     1       7.034   4.878  13.452  0.00  0.00    +0.000 F 
ENDBRANCH  30  31
BRANCH  30  35
ATOM     35  O   UNL     1       5.772   6.386  15.168  0.00  0.00    +0.000 OA
ATOM     36  H   UNL     1       5.372   6.966  14.488  0.00  0.00    +0.000 HD
ENDBRANCH  30  35
ENDBRANCH  29  30
ENDBRANCH   3  29
TORSDOF 8
ENDMDL
MODEL 3
REMARK VINA RESULT:      -8.5      0.823      1.144
REMARK  Name = 
REMARK  9 active torsions:
REMARK  status: ('A' for Active; 'I' for Inactive)
REMARK    1  A    between atoms: C_1  and  C_2
REMARK    2  A    between atoms: C_3  and  C_4
REMARK    3  A    between atoms: N_6  and  C_7
REMARK    4  A    between atoms: N_6  and  C_15
REMARK    5  A    between atoms: C_7  and  C_8
REMARK    6  A    between atoms: C_8  and  C_9
REMARK    7  A    between atoms: C_15  and  C_16
REMARK    8  A    between atoms: C_16  and  O_17
REMARK    9  A    between atoms: C_16  and  C_18
REMARK                            x       y       z     vdW  Elec       q    Type
REMARK                         _______ _______ _______ _____ _____    ______ ____
ROOT
ATOM      1  C   UNL     1       4.814   5.363  17.849  0.00  0.00    +0.000 C 
ATOM      2  O   UNL     1       5.895   5.963  17.818  0.00  0.00    +0.000 OA
ATOM      3  N   UNL     1       4.682   4.201  17.053  0.00  0.00    +0.000 N 
ENDROOT
BRANCH   1   6
ATOM      4  C   UNL     1       3.142   8.083  17.385  0.00  0.00    +0.000 C 
ATOM      5  C   UNL     1       3.055   7.086  18.493  0.00  0.00    +0.000 A 
ATOM      6  C   UNL     1       3.753   5.891  18.720  0.00  0.00    +0.000 A 
ATOM      7  C   UNL     1       3.293   5.493  19.991  0.00  0.00    +0.000 A 
ATOM      8  N   UNL     1       2.351   6.296  20.503  0.00  0.00    +0.000 NA
ATOM      9  N   UNL     1       2.223   7.302  19.585  0.00  0.00    +0.000 N 
ATOM     10  C   UNL     1       1.379   8.409  19.879  0.00  0.00    +0.000 A 
ATOM     11  N   UNL     1       1.196   9.427  19.091  0.00  0.00    +0.000 NA
ATOM     12  C   UNL     1       0.394  10.412  19.598  0.00  0.00    +0.000 A 
ATOM     13  C   UNL     1      -0.171  10.417  20.806  0.00  0.00    +0.000 A 
ATOM     14  C   UNL     1       0.044   9.271  21.686  0.00  0.00    +0.000 A 
ATOM     15  O   UNL     1      -0.404   9.223  22.826  0.00  0.00    +0.000 OA
ATOM     16  N   UNL     1       0.805   8.282  21.125  0.00  0.00    +0.000 N 
ATOM     17  C   UNL     1      -0.922  11.657  21.109  0.00  0.00    +0.000 C 
ATOM     18  C   UNL     1      -0.973  12.342  19.737  0.00  0.00    +0.000 C 
ATOM     19  C   UNL     1       0.108  11.683  18.866  0.00  0.00    +0.000 C 
ATOM     20  H   UNL     1       1.026   7.462  21.680  0.00  0.00    +0.000 HD
ENDBRANCH   1   6
BRANCH   3  21
ATOM     21  C   UNL     1       3.469   3.370  16.819  0.00  0.00    +0.000 C 
BRANCH  21  22
ATOM     22  C   UNL     1       3.369   2.199  17.827  0.00  0.00    +0.000 C 
BRANCH  22  23
ATOM     23  C   UNL     1       2.710   2.399  19.173  0.00  0.00    +0.000 A 
ATOM     24  C   UNL     1       1.342   2.749  19.181  0.00  0.00    +0.000 A 
ATOM     25  C   UNL     1       0.648   2.951  20.373  0.00  0.00    +0.000 A 
ATOM     26  C   UNL     1       1.307   2.790  21.585  0.00  0.00    +0.000 A 
ATOM     27  C   UNL     1       2.651   2.411  21.597  0.00  0.00    +0.000 A 
ATOM     28  C   UNL     1       3.350   2.212  20.399  0.00  0.00    +0.000 A 
ENDBRANCH  22  23
ENDBRANCH  21  22
ENDBRANCH   3  21
BRANCH   3  29
ATOM     29  C   UNL     1       5.861   3.912  16.189  0.00  0.00    +0.000 C 
BRANCH  29  30
ATOM     30  C   UNL     1       6.055   4.889  15.014  0.00  0.00    +0.000 C 
BRANCH  30  31
ATOM     31  C   UNL     1       6.105   4.108  13.683  0.00  0.00    +0.000 C 
ATOM     32  F   UNL     1       4.943   4.192  12.994  0.00  0.00    +0.000 F 
ATOM     33  F   UNL     1       7.078   4.593  12.876  0.00  0.00    +0.000 F 
ATOM     34  F   UNL     1       6.354   2.793  13.877  0.00  0.00    +0.000 F 
ENDBRANCH  30  31
BRANCH  30  35
ATOM     35  O   UNL     1       7.218   5.715  15.220  0.00  0.00    +0.000 OA
ATOM     36  H   UNL     1       7.300   5.882  16.181  0.00  0.00    +0.000 HD
ENDBRANCH  30  35
ENDBRANCH  29  30
ENDBRANCH   3  29
TORSDOF 8
ENDMDL
MODEL 4
REMARK VINA RESULT:      -8.2      1.452      1.684
REMARK  Name = 
REMARK  9 active torsions:
REMARK  status: ('A' for Active; 'I' for Inactive)
REMARK    1  A    between atoms: C_1  and  C_2
REMARK    2  A    between atoms: C_3  and  C_4
REMARK    3  A    between atoms: N_6  and  C_7
REMARK    4  A    between atoms: N_6  and  C_15
REMARK    5  A    between atoms: C_7  and  C_8
REMARK    6  A    between atoms: C_8  and  C_9
REMARK    7  A    between atoms: C_15  and  C_16
REMARK    8  A    between atoms: C_16  and  O_17
REMARK    9  A    between atoms: C_16  and  C_18
REMARK                            x       y       z     vdW  Elec       q    Type
REMARK                         _______ _______ _______ _____ _____    ______ ____
ROOT
ATOM      1  C   UNL     1       3.963   6.536  17.818  0.00  0.00    +0.000 C 
ATOM      2  O   UNL     1       4.965   7.242  17.655  0.00  0.00    +0.000 OA
ATOM      3  N   UNL     1       3.874   5.336  17.073  0.00  0.00    +0.000 N 
ENDROOT
BRANCH   1   6
ATOM      4  C   UNL     1       2.256   9.269  17.651  0.00  0.00    +0.000 C 
ATOM      5  C   UNL     1       2.232   8.189  18.683  0.00  0.00    +0.000 A 
ATOM      6  C   UNL     1       2.947   6.987  18.780  0.00  0.00    +0.000 A 
ATOM      7  C   UNL     1       2.556   6.488  20.039  0.00  0.00    +0.000 A 
ATOM      8  N   UNL     1       1.638   7.241  20.659  0.00  0.00    +0.000 NA
ATOM      9  N   UNL     1       1.457   8.313  19.829  0.00  0.00    +0.000 N 
ATOM     10  C   UNL     1       0.624   9.387  20.251  0.00  0.00    +0.000 A 
ATOM     11  N   UNL     1       0.395  10.461  19.554  0.00  0.00    +0.000 NA
ATOM     12  C   UNL     1      -0.384  11.397  20.176  0.00  0.00    +0.000 A 
ATOM     13  C   UNL     1      -0.885  11.304  21.409  0.00  0.00    +0.000 A 
ATOM     14  C   UNL     1      -0.617  10.096  22.186  0.00  0.00    +0.000 A 
ATOM     15  O   UNL     1      -1.005   9.958  23.340  0.00  0.00    +0.000 OA
ATOM     16  N   UNL     1       0.118   9.160  21.512  0.00  0.00    +0.000 N 
ATOM     17  C   UNL     1      -1.625  12.511  21.845  0.00  0.00    +0.000 C 
ATOM     18  C   UNL     1      -1.751  13.298  20.534  0.00  0.00    +0.000 C 
ATOM     19  C   UNL     1      -0.714  12.718  19.560  0.00  0.00    +0.000 C 
ATOM     20  H   UNL     1       0.371   8.302  21.990  0.00  0.00    +0.000 HD
ENDBRANCH   1   6
BRANCH   3  21
ATOM     21  C   UNL     1       2.739   4.376  16.993  0.00  0.00    +0.000 C 
BRANCH  21  22
ATOM     22  C   UNL     1       3.019   3.083  17.797  0.00  0.00    +0.000 C 
BRANCH  22  23
ATOM     23  C   UNL     1       2.501   2.930  19.209  0.00  0.00    +0.000 A 
ATOM     24  C   UNL     1       3.443   2.633  20.219  0.00  0.00    +0.000 A 
ATOM     25  C   UNL     1       3.060   2.477  21.550  0.00  0.00    +0.000 A 
ATOM     26  C   UNL     1       1.725   2.633  21.901  0.00  0.00    +0.000 A 
ATOM     27  C   UNL     1       0.785   2.961  20.922  0.00  0.00    +0.000 A 
ATOM     28  C   UNL     1       1.169   3.113  19.583  0.00  0.00    +0.000 A 
ENDBRANCH  22  23
ENDBRANCH  21  22
ENDBRANCH   3  21
BRANCH   3  29
ATOM     29  C   UNL     1       4.983   5.136  16.098  0.00  0.00    +0.000 C 
BRANCH  29  30
ATOM     30  C   UNL     1       6.034   4.092  16.521  0.00  0.00    +0.000 C 
BRANCH  30  31
ATOM     31  C   UNL     1       7.170   4.780  17.309  0.00  0.00    +0.000 C 
ATOM     32  F   UNL     1       8.291   4.022  17.360  0.00  0.00    +0.000 F 
ATOM     33  F   UNL     1       7.514   5.955  16.732  0.00  0.00    +0.000 F 
ATOM     34  F   UNL     1       6.814   5.042  18.587  0.00  0.00    +0.000 F 
ENDBRANCH  30  31
BRANCH  30  35
ATOM     35  O   UNL     1       6.514   3.354  15.380  0.00  0.00    +0.000 OA
ATOM     36  H   UNL     1       7.492   3.343  15.422  0.00  0.00    +0.000 HD
ENDBRANCH  30  35
ENDBRANCH  29  30
ENDBRANCH   3  29
TORSDOF 8
ENDMDL
MODEL 5
REMARK VINA RESULT:      -8.1      3.170      4.813
REMARK  Name = 
REMARK  9 active torsions:
REMARK  status: ('A' for Active; 'I' for Inactive)
REMARK    1  A    between atoms: C_1  and  C_2
REMARK    2  A    between atoms: C_3  and  C_4
REMARK    3  A    between atoms: N_6  and  C_7
REMARK    4  A    between atoms: N_6  and  C_15
REMARK    5  A    between atoms: C_7  and  C_8
REMARK    6  A    between atoms: C_8  and  C_9
REMARK    7  A    between atoms: C_15  and  C_16
REMARK    8  A    between atoms: C_16  and  O_17
REMARK    9  A    between atoms: C_16  and  C_18
REMARK                            x       y       z     vdW  Elec       q    Type
REMARK                         _______ _______ _______ _____ _____    ______ ____
ROOT
ATOM      1  C   UNL     1       2.866   5.755  19.306  0.00  0.00    +0.000 C 
ATOM      2  O   UNL     1       2.706   5.320  20.452  0.00  0.00    +0.000 OA
ATOM      3  N   UNL     1       3.388   4.871  18.333  0.00  0.00    +0.000 N 
ENDROOT
BRANCH   1   6
ATOM      4  C   UNL     1       1.189   7.693  21.266  0.00  0.00    +0.000 C 
ATOM      5  C   UNL     1       1.748   7.961  19.908  0.00  0.00    +0.000 A 
ATOM      6  C   UNL     1       2.489   7.151  19.036  0.00  0.00    +0.000 A 
ATOM      7  C   UNL     1       2.597   7.948  17.879  0.00  0.00    +0.000 A 
ATOM      8  N   UNL     1       2.051   9.164  18.005  0.00  0.00    +0.000 NA
ATOM      9  N   UNL     1       1.498   9.162  19.257  0.00  0.00    +0.000 N 
ATOM     10  C   UNL     1       0.719  10.278  19.675  0.00  0.00    +0.000 A 
ATOM     11  N   UNL     1       0.133  10.377  20.832  0.00  0.00    +0.000 NA
ATOM     12  C   UNL     1      -0.620  11.505  21.002  0.00  0.00    +0.000 A 
ATOM     13  C   UNL     1      -0.812  12.462  20.093  0.00  0.00    +0.000 A 
ATOM     14  C   UNL     1      -0.155  12.340  18.795  0.00  0.00    +0.000 A 
ATOM     15  O   UNL     1      -0.320  13.155  17.895  0.00  0.00    +0.000 OA
ATOM     16  N   UNL     1       0.634  11.228  18.680  0.00  0.00    +0.000 N 
ATOM     17  C   UNL     1      -1.744  13.526  20.535  0.00  0.00    +0.000 C 
ATOM     18  C   UNL     1      -1.896  13.216  22.030  0.00  0.00    +0.000 C 
ATOM     19  C   UNL     1      -1.411  11.773  22.242  0.00  0.00    +0.000 C 
ATOM     20  H   UNL     1       1.106  11.053  17.800  0.00  0.00    +0.000 HD
ENDBRANCH   1   6
BRANCH   3  21
ATOM     21  C   UNL     1       3.782   5.167  16.928  0.00  0.00    +0.000 C 
BRANCH  21  22
ATOM     22  C   UNL     1       5.294   4.926  16.690  0.00  0.00    +0.000 C 
BRANCH  22  23
ATOM     23  C   UNL     1       6.325   5.811  17.353  0.00  0.00    +0.000 A 
ATOM     24  C   UNL     1       7.028   5.277  18.456  0.00  0.00    +0.000 A 
ATOM     25  C   UNL     1       7.999   6.017  19.128  0.00  0.00    +0.000 A 
ATOM     26  C   UNL     1       8.300   7.303  18.698  0.00  0.00    +0.000 A 
ATOM     27  C   UNL     1       7.641   7.834  17.588  0.00  0.00    +0.000 A 
ATOM     28  C   UNL     1       6.661   7.093  16.915  0.00  0.00    +0.000 A 
ENDBRANCH  22  23
ENDBRANCH  21  22
ENDBRANCH   3  21
BRANCH   3  29
ATOM     29  C   UNL     1       3.776   3.534  18.863  0.00  0.00    +0.000 C 
BRANCH  29  30
ATOM     30  C   UNL     1       2.961   2.355  18.299  0.00  0.00    +0.000 C 
BRANCH  30  31
ATOM     31  C   UNL     1       1.560   2.327  18.948  0.00  0.00    +0.000 C 
ATOM     32  F   UNL     1       1.616   2.429  20.297  0.00  0.00    +0.000 F 
ATOM     33  F   UNL     1       0.803   3.358  18.506  0.00  0.00    +0.000 F 
ATOM     34  F   UNL     1       0.895   1.183  18.668  0.00  0.00    +0.000 F 
ENDBRANCH  30  31
BRANCH  30  35
ATOM     35  O   UNL     1       3.675   1.113  18.460  0.00  0.00    +0.000 OA
ATOM     36  H   UNL     1       4.570   1.233  18.082  0.00  0.00    +0.000 HD
ENDBRANCH  30  35
ENDBRANCH  29  30
ENDBRANCH   3  29
TORSDOF 8
ENDMDL
MODEL 6
REMARK VINA RESULT:      -8.0      0.882      1.131
REMARK  Name = 
REMARK  9 active torsions:
REMARK  status: ('A' for Active; 'I' for Inactive)
REMARK    1  A    between atoms: C_1  and  C_2
REMARK    2  A    between atoms: C_3  and  C_4
REMARK    3  A    between atoms: N_6  and  C_7
REMARK    4  A    between atoms: N_6  and  C_15
REMARK    5  A    between atoms: C_7  and  C_8
REMARK    6  A    between atoms: C_8  and  C_9
REMARK    7  A    between atoms: C_15  and  C_16
REMARK    8  A    between atoms: C_16  and  O_17
REMARK    9  A    between atoms: C_16  and  C_18
REMARK                            x       y       z     vdW  Elec       q    Type
REMARK                         _______ _______ _______ _____ _____    ______ ____
ROOT
ATOM      1  C   UNL     1       4.050   5.663  18.423  0.00  0.00    +0.000 C 
ATOM      2  O   UNL     1       5.235   5.956  18.626  0.00  0.00    +0.000 OA
ATOM      3  N   UNL     1       3.776   4.651  17.474  0.00  0.00    +0.000 N 
ENDROOT
BRANCH   1   6
ATOM      4  C   UNL     1       2.729   8.506  17.661  0.00  0.00    +0.000 C 
ATOM      5  C   UNL     1       2.476   7.620  18.835  0.00  0.00    +0.000 A 
ATOM      6  C   UNL     1       3.019   6.377  19.190  0.00  0.00    +0.000 A 
ATOM      7  C   UNL     1       2.458   6.138  20.460  0.00  0.00    +0.000 A 
ATOM      8  N   UNL     1       1.592   7.080  20.857  0.00  0.00    +0.000 NA
ATOM      9  N   UNL     1       1.625   8.016  19.859  0.00  0.00    +0.000 N 
ATOM     10  C   UNL     1       0.902   9.230  20.021  0.00  0.00    +0.000 A 
ATOM     11  N   UNL     1       0.875  10.195  19.149  0.00  0.00    +0.000 NA
ATOM     12  C   UNL     1       0.170  11.302  19.535  0.00  0.00    +0.000 A 
ATOM     13  C   UNL     1      -0.445  11.469  20.706  0.00  0.00    +0.000 A 
ATOM     14  C   UNL     1      -0.405  10.382  21.681  0.00  0.00    +0.000 A 
ATOM     15  O   UNL     1      -0.908  10.478  22.794  0.00  0.00    +0.000 OA
ATOM     16  N   UNL     1       0.260   9.271  21.240  0.00  0.00    +0.000 N 
ATOM     17  C   UNL     1      -1.061  12.806  20.871  0.00  0.00    +0.000 C 
ATOM     18  C   UNL     1      -0.968  13.378  19.451  0.00  0.00    +0.000 C 
ATOM     19  C   UNL     1       0.069  12.533  18.693  0.00  0.00    +0.000 C 
ATOM     20  H   UNL     1       0.358   8.480  21.867  0.00  0.00    +0.000 HD
ENDBRANCH   1   6
BRANCH   3  21
ATOM     21  C   UNL     1       2.455   4.193  16.962  0.00  0.00    +0.000 C 
BRANCH  21  22
ATOM     22  C   UNL     1       1.990   2.887  17.651  0.00  0.00    +0.000 C 
BRANCH  22  23
ATOM     23  C   UNL     1       2.018   2.763  19.157  0.00  0.00    +0.000 A 
ATOM     24  C   UNL     1       3.256   2.450  19.761  0.00  0.00    +0.000 A 
ATOM     25  C   UNL     1       3.380   2.318  21.144  0.00  0.00    +0.000 A 
ATOM     26  C   UNL     1       2.269   2.515  21.953  0.00  0.00    +0.000 A 
ATOM     27  C   UNL     1       1.045   2.859  21.377  0.00  0.00    +0.000 A 
ATOM     28  C   UNL     1       0.918   2.987  19.987  0.00  0.00    +0.000 A 
ENDBRANCH  22  23
ENDBRANCH  21  22
ENDBRANCH   3  21
BRANCH   3  29
ATOM     29  C   UNL     1       4.978   4.135  16.761  0.00  0.00    +0.000 C 
BRANCH  29  30
ATOM     30  C   UNL     1       5.505   5.050  15.639  0.00  0.00    +0.000 C 
BRANCH  30  31
ATOM     31  C   UNL     1       7.044   5.150  15.721  0.00  0.00    +0.000 C 
ATOM     32  F   UNL     1       7.588   4.131  16.428  0.00  0.00    +0.000 F 
ATOM     33  F   UNL     1       7.596   5.111  14.486  0.00  0.00    +0.000 F 
ATOM     34  F   UNL     1       7.446   6.298  16.312  0.00  0.00    +0.000 F 
ENDBRANCH  30  31
BRANCH  30  35
ATOM     35  O   UNL     1       4.860   6.339  15.682  0.00  0.00    +0.000 OA
ATOM     36  H   UNL     1       4.312   6.425  14.875  0.00  0.00    +0.000 HD
ENDBRANCH  30  35
ENDBRANCH  29  30
ENDBRANCH   3  29
TORSDOF 8
ENDMDL
MODEL 7
REMARK VINA RESULT:      -8.0      3.137      5.053
REMARK  Name = 
REMARK  9 active torsions:
REMARK  status: ('A' for Active; 'I' for Inactive)
REMARK    1  A    between atoms: C_1  and  C_2
REMARK    2  A    between atoms: C_3  and  C_4
REMARK    3  A    between atoms: N_6  and  C_7
REMARK    4  A    between atoms: N_6  and  C_15
REMARK    5  A    between atoms: C_7  and  C_8
REMARK    6  A    between atoms: C_8  and  C_9
REMARK    7  A    between atoms: C_15  and  C_16
REMARK    8  A    between atoms: C_16  and  O_17
REMARK    9  A    between atoms: C_16  and  C_18
REMARK                            x       y       z     vdW  Elec       q    Type
REMARK                         _______ _______ _______ _____ _____    ______ ____
ROOT
ATOM      1  C   UNL     1       2.537   5.551  18.377  0.00  0.00    +0.000 C 
ATOM      2  O   UNL     1       1.634   4.875  17.871  0.00  0.00    +0.000 OA
ATOM      3  N   UNL     1       3.689   4.872  18.837  0.00  0.00    +0.000 N 
ENDROOT
BRANCH   1   6
ATOM      4  C   UNL     1       1.163   7.182  20.799  0.00  0.00    +0.000 C 
ATOM      5  C   UNL     1       1.739   7.683  19.516  0.00  0.00    +0.000 A 
ATOM      6  C   UNL     1       2.353   7.008  18.451  0.00  0.00    +0.000 A 
ATOM      7  C   UNL     1       2.557   8.032  17.504  0.00  0.00    +0.000 A 
ATOM      8  N   UNL     1       2.186   9.246  17.929  0.00  0.00    +0.000 NA
ATOM      9  N   UNL     1       1.651   9.025  19.169  0.00  0.00    +0.000 N 
ATOM     10  C   UNL     1       1.037  10.105  19.864  0.00  0.00    +0.000 A 
ATOM     11  N   UNL     1       0.483  10.007  21.036  0.00  0.00    +0.000 NA
ATOM     12  C   UNL     1      -0.106  11.154  21.493  0.00  0.00    +0.000 A 
ATOM     13  C   UNL     1      -0.175  12.313  20.837  0.00  0.00    +0.000 A 
ATOM     14  C   UNL     1       0.446  12.412  19.519  0.00  0.00    +0.000 A 
ATOM     15  O   UNL     1       0.385  13.428  18.837  0.00  0.00    +0.000 OA
ATOM     16  N   UNL     1       1.073  11.263  19.119  0.00  0.00    +0.000 N 
ATOM     17  C   UNL     1      -0.947  13.357  21.550  0.00  0.00    +0.000 C 
ATOM     18  C   UNL     1      -1.125  12.731  22.939  0.00  0.00    +0.000 C 
ATOM     19  C   UNL     1      -0.840  11.227  22.793  0.00  0.00    +0.000 C 
ATOM     20  H   UNL     1       1.507  11.238  18.202  0.00  0.00    +0.000 HD
ENDBRANCH   1   6
BRANCH   3  21
ATOM     21  C   UNL     1       4.856   5.423  19.581  0.00  0.00    +0.000 C 
BRANCH  21  22
ATOM     22  C   UNL     1       6.138   5.439  18.712  0.00  0.00    +0.000 C 
BRANCH  22  23
ATOM     23  C   UNL     1       6.047   5.330  17.208  0.00  0.00    +0.000 A 
ATOM     24  C   UNL     1       6.542   4.150  16.610  0.00  0.00    +0.000 A 
ATOM     25  C   UNL     1       6.498   3.957  15.230  0.00  0.00    +0.000 A 
ATOM     26  C   UNL     1       5.939   4.937  14.420  0.00  0.00    +0.000 A 
ATOM     27  C   UNL     1       5.412   6.094  14.995  0.00  0.00    +0.000 A 
ATOM     28  C   UNL     1       5.461   6.291  16.381  0.00  0.00    +0.000 A 
ENDBRANCH  22  23
ENDBRANCH  21  22
ENDBRANCH   3  21
BRANCH   3  29
ATOM     29  C   UNL     1       3.609   3.388  18.735  0.00  0.00    +0.000 C 
BRANCH  29  30
ATOM     30  C   UNL     1       2.371   2.761  19.404  0.00  0.00    +0.000 C 
BRANCH  30  31
ATOM     31  C   UNL     1       2.528   2.797  20.940  0.00  0.00    +0.000 C 
ATOM     32  F   UNL     1       2.429   4.053  21.436  0.00  0.00    +0.000 F 
ATOM     33  F   UNL     1       1.566   2.059  21.540  0.00  0.00    +0.000 F 
ATOM     34  F   UNL     1       3.725   2.310  21.338  0.00  0.00    +0.000 F 
ENDBRANCH  30  31
BRANCH  30  35
ATOM     35  O   UNL     1       2.132   1.432  18.899  0.00  0.00    +0.000 OA
ATOM     36  H   UNL     1       2.612   0.803  19.476  0.00  0.00    +0.000 HD
ENDBRANCH  30  35
ENDBRANCH  29  30
ENDBRANCH   3  29
TORSDOF 8
ENDMDL
MODEL 8
REMARK VINA RESULT:      -8.0      2.720      4.786
REMARK  Name = 
REMARK  9 active torsions:
REMARK  status: ('A' for Active; 'I' for Inactive)
REMARK    1  A    between atoms: C_1  and  C_2
REMARK    2  A    between atoms: C_3  and  C_4
REMARK    3  A    between atoms: N_6  and  C_7
REMARK    4  A    between atoms: N_6  and  C_15
REMARK    5  A    between atoms: C_7  and  C_8
REMARK    6  A    between atoms: C_8  and  C_9
REMARK    7  A    between atoms: C_15  and  C_16
REMARK    8  A    between atoms: C_16  and  O_17
REMARK    9  A    between atoms: C_16  and  C_18
REMARK                            x       y       z     vdW  Elec       q    Type
REMARK                         _______ _______ _______ _____ _____    ______ ____
ROOT
ATOM      1  C   UNL     1       2.275   6.137  19.879  0.00  0.00    +0.000 C 
ATOM      2  O   UNL     1       1.450   5.548  20.588  0.00  0.00    +0.000 OA
ATOM      3  N   UNL     1       3.424   5.421  19.472  0.00  0.00    +0.000 N 
ENDROOT
BRANCH   1   6
ATOM      4  C   UNL     1       1.107   8.441  21.814  0.00  0.00    +0.000 C 
ATOM      5  C   UNL     1       1.474   8.503  20.368  0.00  0.00    +0.000 A 
ATOM      6  C   UNL     1       1.994   7.530  19.502  0.00  0.00    +0.000 A 
ATOM      7  C   UNL     1       1.997   8.186  18.255  0.00  0.00    +0.000 A 
ATOM      8  N   UNL     1       1.594   9.462  18.312  0.00  0.00    +0.000 NA
ATOM      9  N   UNL     1       1.241   9.651  19.621  0.00  0.00    +0.000 N 
ATOM     10  C   UNL     1       0.643  10.882  20.009  0.00  0.00    +0.000 A 
ATOM     11  N   UNL     1       0.253  11.164  21.217  0.00  0.00    +0.000 NA
ATOM     12  C   UNL     1      -0.356  12.381  21.358  0.00  0.00    +0.000 A 
ATOM     13  C   UNL     1      -0.595  13.254  20.378  0.00  0.00    +0.000 A 
ATOM     14  C   UNL     1      -0.158  12.926  19.024  0.00  0.00    +0.000 A 
ATOM     15  O   UNL     1      -0.382  13.656  18.066  0.00  0.00    +0.000 OA
ATOM     16  N   UNL     1       0.496  11.728  18.931  0.00  0.00    +0.000 N 
ATOM     17  C   UNL     1      -1.344  14.454  20.818  0.00  0.00    +0.000 C 
ATOM     18  C   UNL     1      -1.294  14.319  22.346  0.00  0.00    +0.000 C 
ATOM     19  C   UNL     1      -0.919  12.861  22.656  0.00  0.00    +0.000 C 
ATOM     20  H   UNL     1       0.809  11.412  18.020  0.00  0.00    +0.000 HD
ENDBRANCH   1   6
BRANCH   3  21
ATOM     21  C   UNL     1       4.612   5.920  18.726  0.00  0.00    +0.000 C 
BRANCH  21  22
ATOM     22  C   UNL     1       4.335   6.023  17.205  0.00  0.00    +0.000 C 
BRANCH  22  23
ATOM     23  C   UNL     1       5.306   5.435  16.207  0.00  0.00    +0.000 A 
ATOM     24  C   UNL     1       4.770   4.638  15.172  0.00  0.00    +0.000 A 
ATOM     25  C   UNL     1       5.587   4.055  14.203  0.00  0.00    +0.000 A 
ATOM     26  C   UNL     1       6.957   4.275  14.241  0.00  0.00    +0.000 A 
ATOM     27  C   UNL     1       7.501   5.089  15.237  0.00  0.00    +0.000 A 
ATOM     28  C   UNL     1       6.682   5.670  16.213  0.00  0.00    +0.000 A 
ENDBRANCH  22  23
ENDBRANCH  21  22
ENDBRANCH   3  21
BRANCH   3  29
ATOM     29  C   UNL     1       3.532   4.052  20.052  0.00  0.00    +0.000 C 
BRANCH  29  30
ATOM     30  C   UNL     1       4.259   3.029  19.159  0.00  0.00    +0.000 C 
BRANCH  30  31
ATOM     31  C   UNL     1       3.233   2.258  18.300  0.00  0.00    +0.000 C 
ATOM     32  F   UNL     1       2.234   1.728  19.045  0.00  0.00    +0.000 F 
ATOM     33  F   UNL     1       2.654   3.077  17.391  0.00  0.00    +0.000 F 
ATOM     34  F   UNL     1       3.804   1.237  17.623  0.00  0.00    +0.000 F 
ENDBRANCH  30  31
BRANCH  30  35
ATOM     35  O   UNL     1       5.091   2.157  19.949  0.00  0.00    +0.000 OA
ATOM     36  H   UNL     1       4.519   1.715  20.609  0.00  0.00    +0.000 HD
ENDBRANCH  30  35
ENDBRANCH  29  30
ENDBRANCH   3  29
TORSDOF 8
ENDMDL
MODEL 9
REMARK VINA RESULT:      -8.0      3.124      5.115
REMARK  Name = 
REMARK  9 active torsions:
REMARK  status: ('A' for Active; 'I' for Inactive)
REMARK    1  A    between atoms: C_1  and  C_2
REMARK    2  A    between atoms: C_3  and  C_4
REMARK    3  A    between atoms: N_6  and  C_7
REMARK    4  A    between atoms: N_6  and  C_15
REMARK    5  A    between atoms: C_7  and  C_8
REMARK    6  A    between atoms: C_8  and  C_9
REMARK    7  A    between atoms: C_15  and  C_16
REMARK    8  A    between atoms: C_16  and  O_17
REMARK    9  A    between atoms: C_16  and  C_18
REMARK                            x       y       z     vdW  Elec       q    Type
REMARK                         _______ _______ _______ _____ _____    ______ ____
ROOT
ATOM      1  C   UNL     1       2.519   5.531  18.373  0.00  0.00    +0.000 C 
ATOM      2  O   UNL     1       1.598   4.859  17.892  0.00  0.00    +0.000 OA
ATOM      3  N   UNL     1       3.680   4.847  18.801  0.00  0.00    +0.000 N 
ENDROOT
BRANCH   1   6
ATOM      4  C   UNL     1       1.150   7.164  20.796  0.00  0.00    +0.000 C 
ATOM      5  C   UNL     1       1.732   7.665  19.516  0.00  0.00    +0.000 A 
ATOM      6  C   UNL     1       2.344   6.989  18.450  0.00  0.00    +0.000 A 
ATOM      7  C   UNL     1       2.556   8.014  17.506  0.00  0.00    +0.000 A 
ATOM      8  N   UNL     1       2.191   9.230  17.935  0.00  0.00    +0.000 NA
ATOM      9  N   UNL     1       1.652   9.009  19.173  0.00  0.00    +0.000 N 
ATOM     10  C   UNL     1       1.044  10.090  19.869  0.00  0.00    +0.000 A 
ATOM     11  N   UNL     1       0.487   9.993  21.040  0.00  0.00    +0.000 NA
ATOM     12  C   UNL     1      -0.096  11.142  21.499  0.00  0.00    +0.000 A 
ATOM     13  C   UNL     1      -0.156  12.303  20.846  0.00  0.00    +0.000 A 
ATOM     14  C   UNL     1       0.468  12.402  19.529  0.00  0.00    +0.000 A 
ATOM     15  O   UNL     1       0.415  13.420  18.851  0.00  0.00    +0.000 OA
ATOM     16  N   UNL     1       1.088  11.250  19.128  0.00  0.00    +0.000 N 
ATOM     17  C   UNL     1      -0.923  13.350  21.560  0.00  0.00    +0.000 C 
ATOM     18  C   UNL     1      -1.107  12.721  22.947  0.00  0.00    +0.000 C 
ATOM     19  C   UNL     1      -0.832  11.216  22.798  0.00  0.00    +0.000 C 
ATOM     20  H   UNL     1       1.524  11.225  18.212  0.00  0.00    +0.000 HD
ENDBRANCH   1   6
BRANCH   3  21
ATOM     21  C   UNL     1       4.869   5.393  19.512  0.00  0.00    +0.000 C 
BRANCH  21  22
ATOM     22  C   UNL     1       5.869   6.060  18.535  0.00  0.00    +0.000 C 
BRANCH  22  23
ATOM     23  C   UNL     1       6.045   5.523  17.133  0.00  0.00    +0.000 A 
ATOM     24  C   UNL     1       5.317   6.153  16.100  0.00  0.00    +0.000 A 
ATOM     25  C   UNL     1       5.417   5.731  14.775  0.00  0.00    +0.000 A 
ATOM     26  C   UNL     1       6.264   4.677  14.455  0.00  0.00    +0.000 A 
ATOM     27  C   UNL     1       7.017   4.065  15.457  0.00  0.00    +0.000 A 
ATOM     28  C   UNL     1       6.914   4.486  16.790  0.00  0.00    +0.000 A 
ENDBRANCH  22  23
ENDBRANCH  21  22
ENDBRANCH   3  21
BRANCH   3  29
ATOM     29  C   UNL     1       3.590   3.363  18.703  0.00  0.00    +0.000 C 
BRANCH  29  30
ATOM     30  C   UNL     1       2.371   2.742  19.411  0.00  0.00    +0.000 C 
BRANCH  30  31
ATOM     31  C   UNL     1       2.587   2.757  20.940  0.00  0.00    +0.000 C 
ATOM     32  F   UNL     1       3.805   2.281  21.291  0.00  0.00    +0.000 F 
ATOM     33  F   UNL     1       2.502   4.018  21.426  0.00  0.00    +0.000 F 
ATOM     34  F   UNL     1       1.669   2.007  21.589  0.00  0.00    +0.000 F 
ENDBRANCH  30  31
BRANCH  30  35
ATOM     35  O   UNL     1       2.097   1.423  18.900  0.00  0.00    +0.000 OA
ATOM     36  H   UNL     1       2.393   1.396  17.967  0.00  0.00    +0.000 HD
ENDBRANCH  30  35
ENDBRANCH  29  30
ENDBRANCH   3  29
TORSDOF 8
ENDMDL
