MODEL 1
REMARK VINA RESULT:      -7.2      0.000      0.000
REMARK  Name = 
REMARK  7 active torsions:
REMARK  status: ('A' for Active; 'I' for Inactive)
REMARK    1  A    between atoms: C_1  and  C_2
REMARK    2  A    between atoms: C_2  and  C_11
REMARK    3  A    between atoms: N_3  and  C_4
REMARK    4  A    between atoms: C_4  and  C_5
REMARK    5  A    between atoms: C_12  and  O_13
REMARK    6  A    between atoms: C_15  and  C_16
REMARK    7  A    between atoms: C_15  and  C_17
REMARK                            x       y       z     vdW  Elec       q    Type
REMARK                         _______ _______ _______ _____ _____    ______ ____
ROOT
ATOM      1  C   UNL     1       3.972   7.726  17.118  0.00  0.00    +0.000 C 
ATOM      2  C   UNL     1       4.102   6.339  17.836  0.00  0.00    +0.000 C 
ATOM      3  N   UNL     1       3.054   6.155  18.546  0.00  0.00    +0.000 NA
ENDROOT
BRANCH   2   4
ATOM      4  C   UNL     1       5.397   5.499  17.708  0.00  0.00    +0.000 C 
ATOM      5  C   UNL     1       6.570   4.753  17.531  0.00  0.00    +0.000 C 
ATOM      6  C   UNL     1       7.393   4.426  16.148  0.00  0.00    +0.000 C 
ATOM      7  C   UNL     1       6.629   4.744  14.798  0.00  0.00    +0.000 C 
ATOM      8  C   UNL     1       7.415   5.426  13.674  0.00  0.00    +0.000 C 
ATOM      9  C   UNL     1       5.884   3.544  14.159  0.00  0.00    +0.000 C 
ATOM     10  C   UNL     1       5.630   5.757  15.261  0.00  0.00    +0.000 C 
ATOM     11  C   UNL     1       4.972   4.999  16.375  0.00  0.00    +0.000 C 
ATOM     12  O   UNL     1       4.212   4.041  16.272  0.00  0.00    +0.000 OA
BRANCH   5  13
ATOM     13  O   UNL     1       7.315   4.336  18.634  0.00  0.00    +0.000 OA
ATOM     14  H   UNL     1       7.043   3.435  18.880  0.00  0.00    +0.000 HD
ENDBRANCH   5  13
ENDBRANCH   2   4
BRANCH   3  15
ATOM     15  C   UNL     1       2.941   5.224  19.620  0.00  0.00    +0.000 C 
BRANCH  15  16
ATOM     16  C   UNL     1       1.549   4.579  19.448  0.00  0.00    +0.000 C 
ATOM     17  C   UNL     1       1.198   3.670  20.625  0.00  0.00    +0.000 C 
ATOM     18  C   UNL     1       1.927   2.335  20.531  0.00  0.00    +0.000 C 
ATOM     19  N   UNL     1       1.541   1.630  19.310  0.00  0.00    +0.000 NA
ATOM     20  C   UNL     1       1.928   2.397  18.122  0.00  0.00    +0.000 C 
ATOM     21  C   UNL     1       1.368   3.819  18.118  0.00  0.00    +0.000 C 
ATOM     22  H   UNL     1       0.527   1.513  19.306  0.00  0.00    +0.000 HD
ENDBRANCH  15  16
ENDBRANCH   3  15
TORSDOF 4
ENDMDL
MODEL 2
REMARK VINA RESULT:      -7.0      1.134      1.351
REMARK  Name = 
REMARK  7 active torsions:
REMARK  status: ('A' for Active; 'I' for Inactive)
REMARK    1  A    between atoms: C_1  and  C_2
REMARK    2  A    between atoms: C_2  and  C_11
REMARK    3  A    between atoms: N_3  and  C_4
REMARK    4  A    between atoms: C_4  and  C_5
REMARK    5  A    between atoms: C_12  and  O_13
REMARK    6  A    between atoms: C_15  and  C_16
REMARK    7  A    between atoms: C_15  and  C_17
REMARK                            x       y       z     vdW  Elec       q    Type
REMARK                         _______ _______ _______ _____ _____    ______ ____
ROOT
ATOM      1  C   UNL     1       2.859   7.298  18.059  0.00  0.00    +0.000 C 
ATOM      2  C   UNL     1       3.372   6.101  18.932  0.00  0.00    +0.000 C 
ATOM      3  N   UNL     1       2.408   5.706  19.676  0.00  0.00    +0.000 NA
ENDROOT
BRANCH   2   4
ATOM      4  C   UNL     1       4.857   5.664  18.883  0.00  0.00    +0.000 C 
ATOM      5  C   UNL     1       6.198   5.271  18.776  0.00  0.00    +0.000 C 
ATOM      6  C   UNL     1       7.084   4.963  17.428  0.00  0.00    +0.000 C 
ATOM      7  C   UNL     1       6.264   4.809  16.082  0.00  0.00    +0.000 C 
ATOM      8  C   UNL     1       6.818   5.486  14.825  0.00  0.00    +0.000 C 
ATOM      9  C   UNL     1       5.906   3.354  15.687  0.00  0.00    +0.000 C 
ATOM     10  C   UNL     1       5.010   5.553  16.418  0.00  0.00    +0.000 C 
ATOM     11  C   UNL     1       4.601   4.841  17.673  0.00  0.00    +0.000 C 
ATOM     12  O   UNL     1       4.155   3.701  17.766  0.00  0.00    +0.000 OA
BRANCH   5  13
ATOM     13  O   UNL     1       7.029   5.284  19.896  0.00  0.00    +0.000 OA
ATOM     14  H   UNL     1       7.018   4.404  20.311  0.00  0.00    +0.000 HD
ENDBRANCH   5  13
ENDBRANCH   2   4
BRANCH   3  15
ATOM     15  C   UNL     1       2.550   4.914  20.852  0.00  0.00    +0.000 C 
BRANCH  15  16
ATOM     16  C   UNL     1       1.369   3.920  20.813  0.00  0.00    +0.000 C 
ATOM     17  C   UNL     1       1.803   2.510  21.209  0.00  0.00    +0.000 C 
ATOM     18  C   UNL     1       2.541   1.817  20.070  0.00  0.00    +0.000 C 
ATOM     19  N   UNL     1       1.669   1.689  18.903  0.00  0.00    +0.000 NA
ATOM     20  C   UNL     1       1.277   3.008  18.400  0.00  0.00    +0.000 C 
ATOM     21  C   UNL     1       0.621   3.886  19.464  0.00  0.00    +0.000 C 
ATOM     22  H   UNL     1       0.826   1.182  19.178  0.00  0.00    +0.000 HD
ENDBRANCH  15  16
ENDBRANCH   3  15
TORSDOF 4
ENDMDL
MODEL 3
REMARK VINA RESULT:      -6.8      1.696      2.569
REMARK  Name = 
REMARK  7 active torsions:
REMARK  status: ('A' for Active; 'I' for Inactive)
REMARK    1  A    between atoms: C_1  and  C_2
REMARK    2  A    between atoms: C_2  and  C_11
REMARK    3  A    between atoms: N_3  and  C_4
REMARK    4  A    between atoms: C_4  and  C_5
REMARK    5  A    between atoms: C_12  and  O_13
REMARK    6  A    between atoms: C_15  and  C_16
REMARK    7  A    between atoms: C_15  and  C_17
REMARK                            x       y       z     vdW  Elec       q    Type
REMARK                         _______ _______ _______ _____ _____    ______ ____
ROOT
ATOM      1  C   UNL     1       7.331   5.397  19.579  0.00  0.00    +0.000 C 
ATOM      2  C   UNL     1       5.913   5.101  18.981  0.00  0.00    +0.000 C 
ATOM      3  N   UNL     1       5.401   4.124  19.630  0.00  0.00    +0.000 NA
ENDROOT
BRANCH   2   4
ATOM      4  C   UNL     1       5.404   5.864  17.733  0.00  0.00    +0.000 C 
ATOM      5  C   UNL     1       4.961   6.506  16.569  0.00  0.00    +0.000 C 
ATOM      6  C   UNL     1       5.087   6.021  15.005  0.00  0.00    +0.000 C 
ATOM      7  C   UNL     1       6.080   4.818  14.732  0.00  0.00    +0.000 C 
ATOM      8  C   UNL     1       5.623   3.716  13.773  0.00  0.00    +0.000 C 
ATOM      9  C   UNL     1       7.511   5.225  14.298  0.00  0.00    +0.000 C 
ATOM     10  C   UNL     1       6.137   4.176  16.083  0.00  0.00    +0.000 C 
ATOM     11  C   UNL     1       6.539   5.351  16.924  0.00  0.00    +0.000 C 
ATOM     12  O   UNL     1       7.634   5.904  16.950  0.00  0.00    +0.000 OA
BRANCH   5  13
ATOM     13  O   UNL     1       4.136   7.628  16.651  0.00  0.00    +0.000 OA
ATOM     14  H   UNL     1       4.668   8.394  16.931  0.00  0.00    +0.000 HD
ENDBRANCH   5  13
ENDBRANCH   2   4
BRANCH   3  15
ATOM     15  C   UNL     1       4.316   3.317  19.180  0.00  0.00    +0.000 C 
BRANCH  15  16
ATOM     16  C   UNL     1       3.087   4.251  19.191  0.00  0.00    +0.000 C 
ATOM     17  C   UNL     1       2.560   4.475  20.607  0.00  0.00    +0.000 C 
ATOM     18  C   UNL     1       1.762   3.274  21.099  0.00  0.00    +0.000 C 
ATOM     19  N   UNL     1       0.603   3.046  20.237  0.00  0.00    +0.000 NA
ATOM     20  C   UNL     1       1.026   2.731  18.869  0.00  0.00    +0.000 C 
ATOM     21  C   UNL     1       1.942   3.794  18.264  0.00  0.00    +0.000 C 
ATOM     22  H   UNL     1       0.039   3.897  20.215  0.00  0.00    +0.000 HD
ENDBRANCH  15  16
ENDBRANCH   3  15
TORSDOF 4
ENDMDL
MODEL 4
REMARK VINA RESULT:      -6.7      0.801      1.387
REMARK  Name = 
REMARK  7 active torsions:
REMARK  status: ('A' for Active; 'I' for Inactive)
REMARK    1  A    between atoms: C_1  and  C_2
REMARK    2  A    between atoms: C_2  and  C_11
REMARK    3  A    between atoms: N_3  and  C_4
REMARK    4  A    between atoms: C_4  and  C_5
REMARK    5  A    between atoms: C_12  and  O_13
REMARK    6  A    between atoms: C_15  and  C_16
REMARK    7  A    between atoms: C_15  and  C_17
REMARK                            x       y       z     vdW  Elec       q    Type
REMARK                         _______ _______ _______ _____ _____    ______ ____
ROOT
ATOM      1  C   UNL     1       4.044   7.569  17.033  0.00  0.00    +0.000 C 
ATOM      2  C   UNL     1       4.328   6.271  17.865  0.00  0.00    +0.000 C 
ATOM      3  N   UNL     1       3.410   6.153  18.749  0.00  0.00    +0.000 NA
ENDROOT
BRANCH   2   4
ATOM      4  C   UNL     1       5.613   5.440  17.623  0.00  0.00    +0.000 C 
ATOM      5  C   UNL     1       6.771   4.702  17.344  0.00  0.00    +0.000 C 
ATOM      6  C   UNL     1       7.470   4.379  15.893  0.00  0.00    +0.000 C 
ATOM      7  C   UNL     1       6.587   4.691  14.615  0.00  0.00    +0.000 C 
ATOM      8  C   UNL     1       7.266   5.378  13.426  0.00  0.00    +0.000 C 
ATOM      9  C   UNL     1       5.797   3.486  14.046  0.00  0.00    +0.000 C 
ATOM     10  C   UNL     1       5.626   5.698  15.165  0.00  0.00    +0.000 C 
ATOM     11  C   UNL     1       5.075   4.936  16.333  0.00  0.00    +0.000 C 
ATOM     12  O   UNL     1       4.315   3.973  16.298  0.00  0.00    +0.000 OA
BRANCH   5  13
ATOM     13  O   UNL     1       7.613   4.291  18.376  0.00  0.00    +0.000 OA
ATOM     14  H   UNL     1       8.398   3.860  17.994  0.00  0.00    +0.000 HD
ENDBRANCH   5  13
ENDBRANCH   2   4
BRANCH   3  15
ATOM     15  C   UNL     1       3.496   5.344  19.920  0.00  0.00    +0.000 C 
BRANCH  15  16
ATOM     16  C   UNL     1       3.042   3.939  19.472  0.00  0.00    +0.000 C 
ATOM     17  C   UNL     1       1.571   3.922  19.061  0.00  0.00    +0.000 C 
ATOM     18  C   UNL     1       0.655   3.928  20.278  0.00  0.00    +0.000 C 
ATOM     19  N   UNL     1       0.888   2.738  21.095  0.00  0.00    +0.000 NA
ATOM     20  C   UNL     1       2.260   2.721  21.610  0.00  0.00    +0.000 C 
ATOM     21  C   UNL     1       3.315   2.830  20.510  0.00  0.00    +0.000 C 
ATOM     22  H   UNL     1       0.748   1.910  20.514  0.00  0.00    +0.000 HD
ENDBRANCH  15  16
ENDBRANCH   3  15
TORSDOF 4
ENDMDL
MODEL 5
REMARK VINA RESULT:      -6.7      1.041      1.383
REMARK  Name = 
REMARK  7 active torsions:
REMARK  status: ('A' for Active; 'I' for Inactive)
REMARK    1  A    between atoms: C_1  and  C_2
REMARK    2  A    between atoms: C_2  and  C_11
REMARK    3  A    between atoms: N_3  and  C_4
REMARK    4  A    between atoms: C_4  and  C_5
REMARK    5  A    between atoms: C_12  and  O_13
REMARK    6  A    between atoms: C_15  and  C_16
REMARK    7  A    between atoms: C_15  and  C_17
REMARK                            x       y       z     vdW  Elec       q    Type
REMARK                         _______ _______ _______ _____ _____    ______ ____
ROOT
ATOM      1  C   UNL     1       3.670   7.450  17.581  0.00  0.00    +0.000 C 
ATOM      2  C   UNL     1       3.817   5.890  17.626  0.00  0.00    +0.000 C 
ATOM      3  N   UNL     1       2.659   5.384  17.826  0.00  0.00    +0.000 NA
ENDROOT
BRANCH   2   4
ATOM      4  C   UNL     1       5.213   5.224  17.550  0.00  0.00    +0.000 C 
ATOM      5  C   UNL     1       6.480   4.638  17.422  0.00  0.00    +0.000 C 
ATOM      6  C   UNL     1       7.429   4.501  16.089  0.00  0.00    +0.000 C 
ATOM      7  C   UNL     1       6.724   4.807  14.704  0.00  0.00    +0.000 C 
ATOM      8  C   UNL     1       7.492   5.649  13.680  0.00  0.00    +0.000 C 
ATOM      9  C   UNL     1       6.181   3.568  13.948  0.00  0.00    +0.000 C 
ATOM     10  C   UNL     1       5.577   5.661  15.145  0.00  0.00    +0.000 C 
ATOM     11  C   UNL     1       4.946   4.760  16.164  0.00  0.00    +0.000 C 
ATOM     12  O   UNL     1       4.320   3.725  15.954  0.00  0.00    +0.000 OA
BRANCH   5  13
ATOM     13  O   UNL     1       7.195   4.247  18.554  0.00  0.00    +0.000 OA
ATOM     14  H   UNL     1       8.146   4.385  18.393  0.00  0.00    +0.000 HD
ENDBRANCH   5  13
ENDBRANCH   2   4
BRANCH   3  15
ATOM     15  C   UNL     1       2.410   4.062  18.296  0.00  0.00    +0.000 C 
BRANCH  15  16
ATOM     16  C   UNL     1       1.288   4.211  19.344  0.00  0.00    +0.000 C 
ATOM     17  C   UNL     1       1.697   5.145  20.483  0.00  0.00    +0.000 C 
ATOM     18  C   UNL     1       2.638   4.450  21.459  0.00  0.00    +0.000 C 
ATOM     19  N   UNL     1       1.979   3.293  22.064  0.00  0.00    +0.000 NA
ATOM     20  C   UNL     1       1.632   2.299  21.044  0.00  0.00    +0.000 C 
ATOM     21  C   UNL     1       0.777   2.872  19.914  0.00  0.00    +0.000 C 
ATOM     22  H   UNL     1       1.120   3.607  22.518  0.00  0.00    +0.000 HD
ENDBRANCH  15  16
ENDBRANCH   3  15
TORSDOF 4
ENDMDL
MODEL 6
REMARK VINA RESULT:      -6.6      1.907      2.998
REMARK  Name = 
REMARK  7 active torsions:
REMARK  status: ('A' for Active; 'I' for Inactive)
REMARK    1  A    between atoms: C_1  and  C_2
REMARK    2  A    between atoms: C_2  and  C_11
REMARK    3  A    between atoms: N_3  and  C_4
REMARK    4  A    between atoms: C_4  and  C_5
REMARK    5  A    between atoms: C_12  and  O_13
REMARK    6  A    between atoms: C_15  and  C_16
REMARK    7  A    between atoms: C_15  and  C_17
REMARK                            x       y       z     vdW  Elec       q    Type
REMARK                         _______ _______ _______ _____ _____    ______ ____
ROOT
ATOM      1  C   UNL     1       3.142   7.046  17.912  0.00  0.00    +0.000 C 
ATOM      2  C   UNL     1       3.290   5.510  17.632  0.00  0.00    +0.000 C 
ATOM      3  N   UNL     1       2.189   4.939  17.947  0.00  0.00    +0.000 NA
ENDROOT
BRANCH   2   4
ATOM      4  C   UNL     1       4.643   4.915  17.170  0.00  0.00    +0.000 C 
ATOM      5  C   UNL     1       5.894   4.402  16.803  0.00  0.00    +0.000 C 
ATOM      6  C   UNL     1       7.355   4.619  17.522  0.00  0.00    +0.000 C 
ATOM      7  C   UNL     1       7.431   5.776  18.599  0.00  0.00    +0.000 C 
ATOM      8  C   UNL     1       8.186   5.495  19.902  0.00  0.00    +0.000 C 
ATOM      9  C   UNL     1       7.942   7.141  18.071  0.00  0.00    +0.000 C 
ATOM     10  C   UNL     1       5.992   5.905  18.990  0.00  0.00    +0.000 C 
ATOM     11  C   UNL     1       5.366   6.124  17.645  0.00  0.00    +0.000 C 
ATOM     12  O   UNL     1       5.444   7.129  16.945  0.00  0.00    +0.000 OA
BRANCH   5  13
ATOM     13  O   UNL     1       5.994   3.425  15.813  0.00  0.00    +0.000 OA
ATOM     14  H   UNL     1       5.463   2.652  16.074  0.00  0.00    +0.000 HD
ENDBRANCH   5  13
ENDBRANCH   2   4
BRANCH   3  15
ATOM     15  C   UNL     1       2.029   3.544  18.195  0.00  0.00    +0.000 C 
BRANCH  15  16
ATOM     16  C   UNL     1       1.023   3.456  19.363  0.00  0.00    +0.000 C 
ATOM     17  C   UNL     1       1.101   4.682  20.271  0.00  0.00    +0.000 C 
ATOM     18  C   UNL     1       2.313   4.614  21.193  0.00  0.00    +0.000 C 
ATOM     19  N   UNL     1       2.226   3.439  22.059  0.00  0.00    +0.000 NA
ATOM     20  C   UNL     1       2.238   2.206  21.267  0.00  0.00    +0.000 C 
ATOM     21  C   UNL     1       1.144   2.166  20.201  0.00  0.00    +0.000 C 
ATOM     22  H   UNL     1       1.349   3.481  22.581  0.00  0.00    +0.000 HD
ENDBRANCH  15  16
ENDBRANCH   3  15
TORSDOF 4
ENDMDL
MODEL 7
REMARK VINA RESULT:      -6.5      2.130      5.834
REMARK  Name = 
REMARK  7 active torsions:
REMARK  status: ('A' for Active; 'I' for Inactive)
REMARK    1  A    between atoms: C_1  and  C_2
REMARK    2  A    between atoms: C_2  and  C_11
REMARK    3  A    between atoms: N_3  and  C_4
REMARK    4  A    between atoms: C_4  and  C_5
REMARK    5  A    between atoms: C_12  and  O_13
REMARK    6  A    between atoms: C_15  and  C_16
REMARK    7  A    between atoms: C_15  and  C_17
REMARK                            x       y       z     vdW  Elec       q    Type
REMARK                         _______ _______ _______ _____ _____    ______ ____
ROOT
ATOM      1  C   UNL     1       3.008   7.176  19.299  0.00  0.00    +0.000 C 
ATOM      2  C   UNL     1       3.583   6.206  18.211  0.00  0.00    +0.000 C 
ATOM      3  N   UNL     1       4.479   6.834  17.547  0.00  0.00    +0.000 NA
ENDROOT
BRANCH   2   4
ATOM      4  C   UNL     1       2.981   4.793  18.011  0.00  0.00    +0.000 C 
ATOM      5  C   UNL     1       2.427   3.511  17.891  0.00  0.00    +0.000 C 
ATOM      6  C   UNL     1       1.922   2.486  19.070  0.00  0.00    +0.000 C 
ATOM      7  C   UNL     1       2.368   2.854  20.544  0.00  0.00    +0.000 C 
ATOM      8  C   UNL     1       1.329   2.722  21.662  0.00  0.00    +0.000 C 
ATOM      9  C   UNL     1       3.654   2.147  21.043  0.00  0.00    +0.000 C 
ATOM     10  C   UNL     1       2.630   4.321  20.411  0.00  0.00    +0.000 C 
ATOM     11  C   UNL     1       3.606   4.319  19.273  0.00  0.00    +0.000 C 
ATOM     12  O   UNL     1       4.772   3.938  19.296  0.00  0.00    +0.000 OA
BRANCH   5  13
ATOM     13  O   UNL     1       2.050   3.018  16.642  0.00  0.00    +0.000 OA
ATOM     14  H   UNL     1       2.000   3.757  16.010  0.00  0.00    +0.000 HD
ENDBRANCH   5  13
ENDBRANCH   2   4
BRANCH   3  15
ATOM     15  C   UNL     1       4.969   6.454  16.264  0.00  0.00    +0.000 C 
BRANCH  15  16
ATOM     16  C   UNL     1       6.501   6.620  16.352  0.00  0.00    +0.000 C 
ATOM     17  C   UNL     1       7.235   5.378  15.850  0.00  0.00    +0.000 C 
ATOM     18  C   UNL     1       7.206   4.260  16.885  0.00  0.00    +0.000 C 
ATOM     19  N   UNL     1       7.873   4.688  18.113  0.00  0.00    +0.000 NA
ATOM     20  C   UNL     1       7.174   5.827  18.715  0.00  0.00    +0.000 C 
ATOM     21  C   UNL     1       7.012   7.006  17.756  0.00  0.00    +0.000 C 
ATOM     22  H   UNL     1       8.827   4.974  17.886  0.00  0.00    +0.000 HD
ENDBRANCH  15  16
ENDBRANCH   3  15
TORSDOF 4
ENDMDL
MODEL 8
REMARK VINA RESULT:      -6.4      1.749      2.838
REMARK  Name = 
REMARK  7 active torsions:
REMARK  status: ('A' for Active; 'I' for Inactive)
REMARK    1  A    between atoms: C_1  and  C_2
REMARK    2  A    between atoms: C_2  and  C_11
REMARK    3  A    between atoms: N_3  and  C_4
REMARK    4  A    between atoms: C_4  and  C_5
REMARK    5  A    between atoms: C_12  and  O_13
REMARK    6  A    between atoms: C_15  and  C_16
REMARK    7  A    between atoms: C_15  and  C_17
REMARK                            x       y       z     vdW  Elec       q    Type
REMARK                         _______ _______ _______ _____ _____    ______ ____
ROOT
ATOM      1  C   UNL     1       7.056   5.182  19.565  0.00  0.00    +0.000 C 
ATOM      2  C   UNL     1       5.703   4.887  18.831  0.00  0.00    +0.000 C 
ATOM      3  N   UNL     1       5.163   3.866  19.382  0.00  0.00    +0.000 NA
ENDROOT
BRANCH   2   4
ATOM      4  C   UNL     1       5.284   5.704  17.583  0.00  0.00    +0.000 C 
ATOM      5  C   UNL     1       4.925   6.396  16.419  0.00  0.00    +0.000 C 
ATOM      6  C   UNL     1       5.148   5.969  14.848  0.00  0.00    +0.000 C 
ATOM      7  C   UNL     1       6.145   4.765  14.594  0.00  0.00    +0.000 C 
ATOM      8  C   UNL     1       5.740   3.706  13.565  0.00  0.00    +0.000 C 
ATOM      9  C   UNL     1       7.605   5.170  14.269  0.00  0.00    +0.000 C 
ATOM     10  C   UNL     1       6.107   4.071  15.919  0.00  0.00    +0.000 C 
ATOM     11  C   UNL     1       6.465   5.208  16.830  0.00  0.00    +0.000 C 
ATOM     12  O   UNL     1       7.562   5.745  16.948  0.00  0.00    +0.000 OA
BRANCH   5  13
ATOM     13  O   UNL     1       4.108   7.524  16.491  0.00  0.00    +0.000 OA
ATOM     14  H   UNL     1       3.189   7.263  16.303  0.00  0.00    +0.000 HD
ENDBRANCH   5  13
ENDBRANCH   2   4
BRANCH   3  15
ATOM     15  C   UNL     1       4.143   3.060  18.797  0.00  0.00    +0.000 C 
BRANCH  15  16
ATOM     16  C   UNL     1       3.279   2.582  19.984  0.00  0.00    +0.000 C 
ATOM     17  C   UNL     1       2.018   1.860  19.511  0.00  0.00    +0.000 C 
ATOM     18  C   UNL     1       0.963   2.846  19.024  0.00  0.00    +0.000 C 
ATOM     19  N   UNL     1       0.567   3.742  20.109  0.00  0.00    +0.000 NA
ATOM     20  C   UNL     1       1.705   4.545  20.564  0.00  0.00    +0.000 C 
ATOM     21  C   UNL     1       2.908   3.699  20.982  0.00  0.00    +0.000 C 
ATOM     22  H   UNL     1       0.232   3.179  20.893  0.00  0.00    +0.000 HD
ENDBRANCH  15  16
ENDBRANCH   3  15
TORSDOF 4
ENDMDL
MODEL 9
REMARK VINA RESULT:      -6.4      2.638      6.220
REMARK  Name = 
REMARK  7 active torsions:
REMARK  status: ('A' for Active; 'I' for Inactive)
REMARK    1  A    between atoms: C_1  and  C_2
REMARK    2  A    between atoms: C_2  and  C_11
REMARK    3  A    between atoms: N_3  and  C_4
REMARK    4  A    between atoms: C_4  and  C_5
REMARK    5  A    between atoms: C_12  and  O_13
REMARK    6  A    between atoms: C_15  and  C_16
REMARK    7  A    between atoms: C_15  and  C_17
REMARK                            x       y       z     vdW  Elec       q    Type
REMARK                         _______ _______ _______ _____ _____    ______ ____
ROOT
ATOM      1  C   UNL     1       4.051   3.282  16.906  0.00  0.00    +0.000 C 
ATOM      2  C   UNL     1       4.075   4.820  17.207  0.00  0.00    +0.000 C 
ATOM      3  N   UNL     1       4.974   5.358  16.471  0.00  0.00    +0.000 NA
ENDROOT
BRANCH   2   4
ATOM      4  C   UNL     1       3.188   5.423  18.324  0.00  0.00    +0.000 C 
ATOM      5  C   UNL     1       2.381   5.912  19.361  0.00  0.00    +0.000 C 
ATOM      6  C   UNL     1       1.655   5.092  20.585  0.00  0.00    +0.000 C 
ATOM      7  C   UNL     1       1.614   3.517  20.432  0.00  0.00    +0.000 C 
ATOM      8  C   UNL     1       1.930   2.669  21.668  0.00  0.00    +0.000 C 
ATOM      9  C   UNL     1       0.311   2.944  19.817  0.00  0.00    +0.000 C 
ATOM     10  C   UNL     1       2.750   3.286  19.486  0.00  0.00    +0.000 C 
ATOM     11  C   UNL     1       2.354   4.195  18.361  0.00  0.00    +0.000 C 
ATOM     12  O   UNL     1       1.432   4.032  17.566  0.00  0.00    +0.000 OA
BRANCH   5  13
ATOM     13  O   UNL     1       2.261   7.285  19.574  0.00  0.00    +0.000 OA
ATOM     14  H   UNL     1       3.076   7.726  19.277  0.00  0.00    +0.000 HD
ENDBRANCH   5  13
ENDBRANCH   2   4
BRANCH   3  15
ATOM     15  C   UNL     1       5.564   6.636  16.697  0.00  0.00    +0.000 C 
BRANCH  15  16
ATOM     16  C   UNL     1       7.087   6.382  16.693  0.00  0.00    +0.000 C 
ATOM     17  C   UNL     1       7.463   5.183  17.562  0.00  0.00    +0.000 C 
ATOM     18  C   UNL     1       7.437   5.542  19.043  0.00  0.00    +0.000 C 
ATOM     19  N   UNL     1       8.404   6.602  19.326  0.00  0.00    +0.000 NA
ATOM     20  C   UNL     1       8.061   7.826  18.598  0.00  0.00    +0.000 C 
ATOM     21  C   UNL     1       7.930   7.611  17.090  0.00  0.00    +0.000 C 
ATOM     22  H   UNL     1       9.328   6.291  19.024  0.00  0.00    +0.000 HD
ENDBRANCH  15  16
ENDBRANCH   3  15
TORSDOF 4
ENDMDL
