MODEL 1
REMARK VINA RESULT:      -6.6      0.000      0.000
REMARK  Name = 
REMARK  2 active torsions:
REMARK  status: ('A' for Active; 'I' for Inactive)
REMARK    1  A    between atoms: C_1  and  N_2
REMARK    2  A    between atoms: C_3  and  C_5
REMARK                            x       y       z     vdW  Elec       q    Type
REMARK                         _______ _______ _______ _____ _____    ______ ____
ROOT
ATOM      1  C   UNL     1       5.719   4.442  18.030  0.00  0.00    +0.000 C 
ATOM      2  C   UNL     1       4.436   5.106  17.490  0.00  0.00    +0.000 C 
ATOM      3  C   UNL     1       3.386   4.188  18.002  0.00  0.00    +0.000 A 
ATOM      4  C   UNL     1       2.022   4.230  17.761  0.00  0.00    +0.000 A 
ATOM      5  C   UNL     1       1.207   3.312  18.421  0.00  0.00    +0.000 A 
ATOM      6  C   UNL     1       1.763   2.385  19.316  0.00  0.00    +0.000 A 
ATOM      7  C   UNL     1       3.141   2.354  19.544  0.00  0.00    +0.000 A 
ATOM      8  C   UNL     1       3.946   3.251  18.864  0.00  0.00    +0.000 A 
ATOM      9  N   UNL     1       5.356   3.348  18.994  0.00  0.00    +0.000 N 
ATOM     10  H   UNL     1       5.560   3.608  19.960  0.00  0.00    +0.000 HD
ENDROOT
BRANCH   1  13
ATOM     11  C   UNL     1       8.051   7.440  18.247  0.00  0.00    +0.000 C 
ATOM     12  N   UNL     1       7.152   6.406  17.805  0.00  0.00    +0.000 N 
ATOM     13  C   UNL     1       6.682   5.447  18.683  0.00  0.00    +0.000 C 
ATOM     14  O   UNL     1       6.991   5.434  19.872  0.00  0.00    +0.000 OA
ATOM     15  H   UNL     1       6.883   6.343  16.828  0.00  0.00    +0.000 HD
ENDBRANCH   1  13
TORSDOF 1
ENDMDL
MODEL 2
REMARK VINA RESULT:      -6.6      3.242      4.233
REMARK  Name = 
REMARK  2 active torsions:
REMARK  status: ('A' for Active; 'I' for Inactive)
REMARK    1  A    between atoms: C_1  and  N_2
REMARK    2  A    between atoms: C_3  and  C_5
REMARK                            x       y       z     vdW  Elec       q    Type
REMARK                         _______ _______ _______ _____ _____    ______ ____
ROOT
ATOM      1  C   UNL     1       6.477   4.861  15.863  0.00  0.00    +0.000 C 
ATOM      2  C   UNL     1       5.345   3.881  16.231  0.00  0.00    +0.000 C 
ATOM      3  C   UNL     1       4.410   4.769  16.969  0.00  0.00    +0.000 A 
ATOM      4  C   UNL     1       3.236   4.422  17.620  0.00  0.00    +0.000 A 
ATOM      5  C   UNL     1       2.464   5.441  18.176  0.00  0.00    +0.000 A 
ATOM      6  C   UNL     1       2.868   6.781  18.059  0.00  0.00    +0.000 A 
ATOM      7  C   UNL     1       4.056   7.112  17.404  0.00  0.00    +0.000 A 
ATOM      8  C   UNL     1       4.830   6.092  16.878  0.00  0.00    +0.000 A 
ATOM      9  N   UNL     1       6.054   6.267  16.180  0.00  0.00    +0.000 N 
ATOM     10  H   UNL     1       5.853   6.805  15.335  0.00  0.00    +0.000 HD
ENDROOT
BRANCH   1  13
ATOM     11  C   UNL     1       6.522   3.501  12.311  0.00  0.00    +0.000 C 
ATOM     12  N   UNL     1       6.253   3.744  13.704  0.00  0.00    +0.000 N 
ATOM     13  C   UNL     1       6.915   4.743  14.394  0.00  0.00    +0.000 C 
ATOM     14  O   UNL     1       7.747   5.473  13.860  0.00  0.00    +0.000 OA
ATOM     15  H   UNL     1       5.599   3.155  14.210  0.00  0.00    +0.000 HD
ENDBRANCH   1  13
TORSDOF 1
ENDMDL
MODEL 3
REMARK VINA RESULT:      -6.5      1.518      1.672
REMARK  Name = 
REMARK  2 active torsions:
REMARK  status: ('A' for Active; 'I' for Inactive)
REMARK    1  A    between atoms: C_1  and  N_2
REMARK    2  A    between atoms: C_3  and  C_5
REMARK                            x       y       z     vdW  Elec       q    Type
REMARK                         _______ _______ _______ _____ _____    ______ ____
ROOT
ATOM      1  C   UNL     1       4.927   3.677  18.070  0.00  0.00    +0.000 C 
ATOM      2  C   UNL     1       3.568   4.341  17.770  0.00  0.00    +0.000 C 
ATOM      3  C   UNL     1       2.738   3.844  18.897  0.00  0.00    +0.000 A 
ATOM      4  C   UNL     1       1.383   4.045  19.115  0.00  0.00    +0.000 A 
ATOM      5  C   UNL     1       0.826   3.556  20.295  0.00  0.00    +0.000 A 
ATOM      6  C   UNL     1       1.627   2.894  21.238  0.00  0.00    +0.000 A 
ATOM      7  C   UNL     1       2.990   2.697  21.000  0.00  0.00    +0.000 A 
ATOM      8  C   UNL     1       3.530   3.161  19.814  0.00  0.00    +0.000 A 
ATOM      9  N   UNL     1       4.893   3.046  19.433  0.00  0.00    +0.000 N 
ATOM     10  H   UNL     1       5.449   3.570  20.111  0.00  0.00    +0.000 HD
ENDROOT
BRANCH   1  13
ATOM     11  C   UNL     1       7.839   5.825  19.245  0.00  0.00    +0.000 C 
ATOM     12  N   UNL     1       6.704   4.942  19.167  0.00  0.00    +0.000 N 
ATOM     13  C   UNL     1       6.108   4.654  17.952  0.00  0.00    +0.000 C 
ATOM     14  O   UNL     1       6.516   5.120  16.891  0.00  0.00    +0.000 OA
ATOM     15  H   UNL     1       6.301   4.548  20.011  0.00  0.00    +0.000 HD
ENDBRANCH   1  13
TORSDOF 1
ENDMDL
MODEL 4
REMARK VINA RESULT:      -6.5      2.251      2.607
REMARK  Name = 
REMARK  2 active torsions:
REMARK  status: ('A' for Active; 'I' for Inactive)
REMARK    1  A    between atoms: C_1  and  N_2
REMARK    2  A    between atoms: C_3  and  C_5
REMARK                            x       y       z     vdW  Elec       q    Type
REMARK                         _______ _______ _______ _____ _____    ______ ____
ROOT
ATOM      1  C   UNL     1       3.903   3.331  17.272  0.00  0.00    +0.000 C 
ATOM      2  C   UNL     1       2.506   3.929  17.534  0.00  0.00    +0.000 C 
ATOM      3  C   UNL     1       2.256   3.501  18.935  0.00  0.00    +0.000 A 
ATOM      4  C   UNL     1       1.108   3.681  19.691  0.00  0.00    +0.000 A 
ATOM      5  C   UNL     1       1.126   3.274  21.024  0.00  0.00    +0.000 A 
ATOM      6  C   UNL     1       2.287   2.713  21.579  0.00  0.00    +0.000 A 
ATOM      7  C   UNL     1       3.434   2.536  20.801  0.00  0.00    +0.000 A 
ATOM      8  C   UNL     1       3.399   2.918  19.471  0.00  0.00    +0.000 A 
ATOM      9  N   UNL     1       4.481   2.811  18.558  0.00  0.00    +0.000 N 
ATOM     10  H   UNL     1       5.237   3.404  18.904  0.00  0.00    +0.000 HD
ENDROOT
BRANCH   1  13
ATOM     11  C   UNL     1       7.016   4.513  15.435  0.00  0.00    +0.000 C 
ATOM     12  N   UNL     1       6.011   3.734  16.108  0.00  0.00    +0.000 N 
ATOM     13  C   UNL     1       4.865   4.328  16.607  0.00  0.00    +0.000 C 
ATOM     14  O   UNL     1       4.643   5.531  16.492  0.00  0.00    +0.000 OA
ATOM     15  H   UNL     1       6.148   2.741  16.262  0.00  0.00    +0.000 HD
ENDBRANCH   1  13
TORSDOF 1
ENDMDL
MODEL 5
REMARK VINA RESULT:      -6.5      1.340      1.340
REMARK  Name = 
REMARK  2 active torsions:
REMARK  status: ('A' for Active; 'I' for Inactive)
REMARK    1  A    between atoms: C_1  and  N_2
REMARK    2  A    between atoms: C_3  and  C_5
REMARK                            x       y       z     vdW  Elec       q    Type
REMARK                         _______ _______ _______ _____ _____    ______ ____
ROOT
ATOM      1  C   UNL     1       5.438   4.707  16.668  0.00  0.00    +0.000 C 
ATOM      2  C   UNL     1       4.252   5.557  17.165  0.00  0.00    +0.000 C 
ATOM      3  C   UNL     1       3.276   4.509  17.559  0.00  0.00    +0.000 A 
ATOM      4  C   UNL     1       1.975   4.677  18.007  0.00  0.00    +0.000 A 
ATOM      5  C   UNL     1       1.265   3.547  18.408  0.00  0.00    +0.000 A 
ATOM      6  C   UNL     1       1.867   2.280  18.370  0.00  0.00    +0.000 A 
ATOM      7  C   UNL     1       3.178   2.128  17.911  0.00  0.00    +0.000 A 
ATOM      8  C   UNL     1       3.867   3.252  17.489  0.00  0.00    +0.000 A 
ATOM      9  N   UNL     1       5.202   3.262  17.007  0.00  0.00    +0.000 N 
ATOM     10  H   UNL     1       5.807   2.944  17.766  0.00  0.00    +0.000 HD
ENDROOT
BRANCH   1  13
ATOM     11  C   UNL     1       7.926   7.081  18.294  0.00  0.00    +0.000 C 
ATOM     12  N   UNL     1       6.755   6.476  17.716  0.00  0.00    +0.000 N 
ATOM     13  C   UNL     1       6.789   5.183  17.225  0.00  0.00    +0.000 C 
ATOM     14  O   UNL     1       7.803   4.489  17.267  0.00  0.00    +0.000 OA
ATOM     15  H   UNL     1       5.894   7.006  17.624  0.00  0.00    +0.000 HD
ENDBRANCH   1  13
TORSDOF 1
ENDMDL
MODEL 6
REMARK VINA RESULT:      -6.5      1.637      1.678
REMARK  Name = 
REMARK  2 active torsions:
REMARK  status: ('A' for Active; 'I' for Inactive)
REMARK    1  A    between atoms: C_1  and  N_2
REMARK    2  A    between atoms: C_3  and  C_5
REMARK                            x       y       z     vdW  Elec       q    Type
REMARK                         _______ _______ _______ _____ _____    ______ ____
ROOT
ATOM      1  C   UNL     1       6.218   4.271  16.891  0.00  0.00    +0.000 C 
ATOM      2  C   UNL     1       4.849   4.221  16.184  0.00  0.00    +0.000 C 
ATOM      3  C   UNL     1       3.966   3.737  17.276  0.00  0.00    +0.000 A 
ATOM      4  C   UNL     1       2.619   3.416  17.208  0.00  0.00    +0.000 A 
ATOM      5  C   UNL     1       1.965   3.064  18.387  0.00  0.00    +0.000 A 
ATOM      6  C   UNL     1       2.658   3.054  19.607  0.00  0.00    +0.000 A 
ATOM      7  C   UNL     1       4.016   3.377  19.657  0.00  0.00    +0.000 A 
ATOM      8  C   UNL     1       4.665   3.698  18.478  0.00  0.00    +0.000 A 
ATOM      9  N   UNL     1       6.035   4.055  18.367  0.00  0.00    +0.000 N 
ATOM     10  H   UNL     1       6.174   4.915  18.899  0.00  0.00    +0.000 HD
ENDROOT
BRANCH   1  13
ATOM     11  C   UNL     1       7.669   7.707  17.641  0.00  0.00    +0.000 C 
ATOM     12  N   UNL     1       6.985   6.442  17.704  0.00  0.00    +0.000 N 
ATOM     13  C   UNL     1       6.981   5.579  16.623  0.00  0.00    +0.000 C 
ATOM     14  O   UNL     1       7.562   5.837  15.572  0.00  0.00    +0.000 OA
ATOM     15  H   UNL     1       6.461   6.183  18.534  0.00  0.00    +0.000 HD
ENDBRANCH   1  13
TORSDOF 1
ENDMDL
MODEL 7
REMARK VINA RESULT:      -6.5      1.154      1.162
REMARK  Name = 
REMARK  2 active torsions:
REMARK  status: ('A' for Active; 'I' for Inactive)
REMARK    1  A    between atoms: C_1  and  N_2
REMARK    2  A    between atoms: C_3  and  C_5
REMARK                            x       y       z     vdW  Elec       q    Type
REMARK                         _______ _______ _______ _____ _____    ______ ____
ROOT
ATOM      1  C   UNL     1       5.224   3.941  17.890  0.00  0.00    +0.000 C 
ATOM      2  C   UNL     1       3.929   4.742  17.651  0.00  0.00    +0.000 C 
ATOM      3  C   UNL     1       3.029   4.172  18.687  0.00  0.00    +0.000 A 
ATOM      4  C   UNL     1       1.688   4.450  18.901  0.00  0.00    +0.000 A 
ATOM      5  C   UNL     1       1.059   3.860  19.996  0.00  0.00    +0.000 A 
ATOM      6  C   UNL     1       1.780   3.022  20.861  0.00  0.00    +0.000 A 
ATOM      7  C   UNL     1       3.130   2.750  20.628  0.00  0.00    +0.000 A 
ATOM      8  C   UNL     1       3.740   3.318  19.523  0.00  0.00    +0.000 A 
ATOM      9  N   UNL     1       5.101   3.145  19.158  0.00  0.00    +0.000 N 
ATOM     10  H   UNL     1       5.674   3.532  19.909  0.00  0.00    +0.000 HD
ENDROOT
BRANCH   1  13
ATOM     11  C   UNL     1       7.293   7.111  17.518  0.00  0.00    +0.000 C 
ATOM     12  N   UNL     1       6.237   6.133  17.530  0.00  0.00    +0.000 N 
ATOM     13  C   UNL     1       6.478   4.829  17.924  0.00  0.00    +0.000 C 
ATOM     14  O   UNL     1       7.587   4.445  18.290  0.00  0.00    +0.000 OA
ATOM     15  H   UNL     1       5.306   6.379  17.210  0.00  0.00    +0.000 HD
ENDBRANCH   1  13
TORSDOF 1
ENDMDL
MODEL 8
REMARK VINA RESULT:      -6.3      2.212      2.591
REMARK  Name = 
REMARK  2 active torsions:
REMARK  status: ('A' for Active; 'I' for Inactive)
REMARK    1  A    between atoms: C_1  and  N_2
REMARK    2  A    between atoms: C_3  and  C_5
REMARK                            x       y       z     vdW  Elec       q    Type
REMARK                         _______ _______ _______ _____ _____    ______ ____
ROOT
ATOM      1  C   UNL     1       3.947   3.082  17.293  0.00  0.00    +0.000 C 
ATOM      2  C   UNL     1       2.487   3.556  17.433  0.00  0.00    +0.000 C 
ATOM      3  C   UNL     1       2.208   3.248  18.859  0.00  0.00    +0.000 A 
ATOM      4  C   UNL     1       1.011   3.383  19.545  0.00  0.00    +0.000 A 
ATOM      5  C   UNL     1       1.001   3.116  20.913  0.00  0.00    +0.000 A 
ATOM      6  C   UNL     1       2.182   2.739  21.571  0.00  0.00    +0.000 A 
ATOM      7  C   UNL     1       3.379   2.605  20.863  0.00  0.00    +0.000 A 
ATOM      8  C   UNL     1       3.375   2.844  19.501  0.00  0.00    +0.000 A 
ATOM      9  N   UNL     1       4.507   2.758  18.649  0.00  0.00    +0.000 N 
ATOM     10  H   UNL     1       5.182   3.459  18.961  0.00  0.00    +0.000 HD
ENDROOT
BRANCH   1  13
ATOM     11  C   UNL     1       5.221   6.506  16.232  0.00  0.00    +0.000 C 
ATOM     12  N   UNL     1       4.484   5.416  16.815  0.00  0.00    +0.000 N 
ATOM     13  C   UNL     1       4.839   4.102  16.565  0.00  0.00    +0.000 C 
ATOM     14  O   UNL     1       5.794   3.801  15.854  0.00  0.00    +0.000 OA
ATOM     15  H   UNL     1       3.667   5.597  17.388  0.00  0.00    +0.000 HD
ENDBRANCH   1  13
TORSDOF 1
ENDMDL
MODEL 9
REMARK VINA RESULT:      -6.3      2.000      2.267
REMARK  Name = 
REMARK  2 active torsions:
REMARK  status: ('A' for Active; 'I' for Inactive)
REMARK    1  A    between atoms: C_1  and  N_2
REMARK    2  A    between atoms: C_3  and  C_5
REMARK                            x       y       z     vdW  Elec       q    Type
REMARK                         _______ _______ _______ _____ _____    ______ ____
ROOT
ATOM      1  C   UNL     1       4.058   3.689  16.932  0.00  0.00    +0.000 C 
ATOM      2  C   UNL     1       3.313   4.892  17.544  0.00  0.00    +0.000 C 
ATOM      3  C   UNL     1       2.573   4.250  18.660  0.00  0.00    +0.000 A 
ATOM      4  C   UNL     1       1.657   4.829  19.524  0.00  0.00    +0.000 A 
ATOM      5  C   UNL     1       1.147   4.052  20.562  0.00  0.00    +0.000 A 
ATOM      6  C   UNL     1       1.569   2.724  20.728  0.00  0.00    +0.000 A 
ATOM      7  C   UNL     1       2.491   2.155  19.845  0.00  0.00    +0.000 A 
ATOM      8  C   UNL     1       2.971   2.925  18.801  0.00  0.00    +0.000 A 
ATOM      9  N   UNL     1       3.914   2.493  17.830  0.00  0.00    +0.000 N 
ATOM     10  H   UNL     1       4.783   2.276  18.320  0.00  0.00    +0.000 HD
ENDROOT
BRANCH   1  13
ATOM     11  C   UNL     1       7.668   4.593  17.721  0.00  0.00    +0.000 C 
ATOM     12  N   UNL     1       6.260   4.305  17.790  0.00  0.00    +0.000 N 
ATOM     13  C   UNL     1       5.541   3.984  16.653  0.00  0.00    +0.000 C 
ATOM     14  O   UNL     1       6.062   3.916  15.542  0.00  0.00    +0.000 OA
ATOM     15  H   UNL     1       5.764   4.373  18.674  0.00  0.00    +0.000 HD
ENDBRANCH   1  13
TORSDOF 1
ENDMDL
