MODEL 1
REMARK VINA RESULT:      -7.3      0.000      0.000
REMARK  Name = 
REMARK  2 active torsions:
REMARK  status: ('A' for Active; 'I' for Inactive)
REMARK    1  A    between atoms: C_1  and  N_2
REMARK    2  A    between atoms: C_3  and  C_5
REMARK                            x       y       z     vdW  Elec       q    Type
REMARK                         _______ _______ _______ _____ _____    ______ ____
ROOT
ATOM      1  C   UNL     1       5.839   5.800  17.305  0.00  0.00    +0.000 C 
ATOM      2  C   UNL     1       4.658   5.786  17.959  0.00  0.00    +0.000 C 
ATOM      3  C   UNL     1       3.683   6.946  17.742  0.00  0.00    +0.000 C 
ATOM      4  C   UNL     1       2.410   6.540  18.469  0.00  0.00    +0.000 C 
ATOM      5  C   UNL     1       2.468   5.054  18.310  0.00  0.00    +0.000 A 
ATOM      6  C   UNL     1       1.408   4.165  18.316  0.00  0.00    +0.000 A 
ATOM      7  C   UNL     1       1.707   2.809  18.390  0.00  0.00    +0.000 A 
ATOM      8  F   UNL     1       0.705   1.919  18.358  0.00  0.00    +0.000 F 
ATOM      9  C   UNL     1       3.031   2.380  18.527  0.00  0.00    +0.000 A 
ATOM     10  F   UNL     1       3.282   1.081  18.753  0.00  0.00    +0.000 F 
ATOM     11  C   UNL     1       4.097   3.279  18.435  0.00  0.00    +0.000 A 
ATOM     12  C   UNL     1       3.799   4.617  18.229  0.00  0.00    +0.000 A 
ENDROOT
BRANCH   1  15
ATOM     13  C   UNL     1       6.210   3.980  14.009  0.00  0.00    +0.000 C 
ATOM     14  N   UNL     1       5.996   4.302  15.407  0.00  0.00    +0.000 N 
ATOM     15  C   UNL     1       5.733   5.597  15.797  0.00  0.00    +0.000 C 
ATOM     16  O   UNL     1       5.512   6.511  15.026  0.00  0.00    +0.000 OA
ATOM     17  H   UNL     1       6.253   3.600  16.081  0.00  0.00    +0.000 HD
ENDBRANCH   1  15
TORSDOF 1
ENDMDL
MODEL 2
REMARK VINA RESULT:      -7.3      1.246      1.301
REMARK  Name = 
REMARK  2 active torsions:
REMARK  status: ('A' for Active; 'I' for Inactive)
REMARK    1  A    between atoms: C_1  and  N_2
REMARK    2  A    between atoms: C_3  and  C_5
REMARK                            x       y       z     vdW  Elec       q    Type
REMARK                         _______ _______ _______ _____ _____    ______ ____
ROOT
ATOM      1  C   UNL     1       6.650   4.971  17.407  0.00  0.00    +0.000 C 
ATOM      2  C   UNL     1       5.443   5.407  17.828  0.00  0.00    +0.000 C 
ATOM      3  C   UNL     1       4.868   6.687  17.214  0.00  0.00    +0.000 C 
ATOM      4  C   UNL     1       3.454   6.795  17.766  0.00  0.00    +0.000 C 
ATOM      5  C   UNL     1       3.110   5.347  17.916  0.00  0.00    +0.000 A 
ATOM      6  C   UNL     1       1.849   4.777  17.908  0.00  0.00    +0.000 A 
ATOM      7  C   UNL     1       1.742   3.448  18.300  0.00  0.00    +0.000 A 
ATOM      8  F   UNL     1       0.542   2.853  18.265  0.00  0.00    +0.000 F 
ATOM      9  C   UNL     1       2.865   2.750  18.755  0.00  0.00    +0.000 A 
ATOM     10  F   UNL     1       2.711   1.521  19.274  0.00  0.00    +0.000 F 
ATOM     11  C   UNL     1       4.145   3.306  18.680  0.00  0.00    +0.000 A 
ATOM     12  C   UNL     1       4.264   4.587  18.164  0.00  0.00    +0.000 A 
ENDROOT
BRANCH   1  15
ATOM     13  C   UNL     1       7.348   5.046  13.689  0.00  0.00    +0.000 C 
ATOM     14  N   UNL     1       7.428   5.226  15.126  0.00  0.00    +0.000 N 
ATOM     15  C   UNL     1       6.672   4.447  15.975  0.00  0.00    +0.000 C 
ATOM     16  O   UNL     1       6.022   3.483  15.619  0.00  0.00    +0.000 OA
ATOM     17  H   UNL     1       7.882   6.062  15.457  0.00  0.00    +0.000 HD
ENDBRANCH   1  15
TORSDOF 1
ENDMDL
MODEL 3
REMARK VINA RESULT:      -7.3      1.433      1.896
REMARK  Name = 
REMARK  2 active torsions:
REMARK  status: ('A' for Active; 'I' for Inactive)
REMARK    1  A    between atoms: C_1  and  N_2
REMARK    2  A    between atoms: C_3  and  C_5
REMARK                            x       y       z     vdW  Elec       q    Type
REMARK                         _______ _______ _______ _____ _____    ______ ____
ROOT
ATOM      1  C   UNL     1       7.226   4.415  16.426  0.00  0.00    +0.000 C 
ATOM      2  C   UNL     1       6.285   4.958  17.228  0.00  0.00    +0.000 C 
ATOM      3  C   UNL     1       6.205   6.483  17.341  0.00  0.00    +0.000 C 
ATOM      4  C   UNL     1       4.955   6.759  18.164  0.00  0.00    +0.000 C 
ATOM      5  C   UNL     1       4.102   5.599  17.758  0.00  0.00    +0.000 A 
ATOM      6  C   UNL     1       2.721   5.527  17.767  0.00  0.00    +0.000 A 
ATOM      7  C   UNL     1       2.141   4.278  17.578  0.00  0.00    +0.000 A 
ATOM      8  F   UNL     1       0.805   4.179  17.541  0.00  0.00    +0.000 F 
ATOM      9  C   UNL     1       2.939   3.136  17.457  0.00  0.00    +0.000 A 
ATOM     10  F   UNL     1       2.357   1.926  17.430  0.00  0.00    +0.000 F 
ATOM     11  C   UNL     1       4.330   3.230  17.363  0.00  0.00    +0.000 A 
ATOM     12  C   UNL     1       4.898   4.493  17.421  0.00  0.00    +0.000 A 
ENDROOT
BRANCH   1  15
ATOM     13  C   UNL     1       6.153   3.548  12.903  0.00  0.00    +0.000 C 
ATOM     14  N   UNL     1       6.244   3.650  14.347  0.00  0.00    +0.000 N 
ATOM     15  C   UNL     1       6.998   4.642  14.935  0.00  0.00    +0.000 C 
ATOM     16  O   UNL     1       7.500   5.568  14.328  0.00  0.00    +0.000 OA
ATOM     17  H   UNL     1       5.919   2.861  14.881  0.00  0.00    +0.000 HD
ENDBRANCH   1  15
TORSDOF 1
ENDMDL
MODEL 4
REMARK VINA RESULT:      -7.2      3.392      5.090
REMARK  Name = 
REMARK  2 active torsions:
REMARK  status: ('A' for Active; 'I' for Inactive)
REMARK    1  A    between atoms: C_1  and  N_2
REMARK    2  A    between atoms: C_3  and  C_5
REMARK                            x       y       z     vdW  Elec       q    Type
REMARK                         _______ _______ _______ _____ _____    ______ ____
ROOT
ATOM      1  C   UNL     1       1.438   3.668  18.109  0.00  0.00    +0.000 C 
ATOM      2  C   UNL     1       2.187   4.759  17.843  0.00  0.00    +0.000 C 
ATOM      3  C   UNL     1       2.078   5.971  18.773  0.00  0.00    +0.000 C 
ATOM      4  C   UNL     1       3.158   6.934  18.303  0.00  0.00    +0.000 C 
ATOM      5  C   UNL     1       4.185   5.968  17.805  0.00  0.00    +0.000 A 
ATOM      6  C   UNL     1       5.550   6.169  17.705  0.00  0.00    +0.000 A 
ATOM      7  C   UNL     1       6.288   5.228  16.995  0.00  0.00    +0.000 A 
ATOM      8  F   UNL     1       7.618   5.371  16.912  0.00  0.00    +0.000 F 
ATOM      9  C   UNL     1       5.649   4.165  16.350  0.00  0.00    +0.000 A 
ATOM     10  F   UNL     1       6.360   3.360  15.544  0.00  0.00    +0.000 F 
ATOM     11  C   UNL     1       4.284   3.924  16.527  0.00  0.00    +0.000 A 
ATOM     12  C   UNL     1       3.575   4.791  17.344  0.00  0.00    +0.000 A 
ENDROOT
BRANCH   1  15
ATOM     13  C   UNL     1       1.346   2.670  21.758  0.00  0.00    +0.000 C 
ATOM     14  N   UNL     1       0.981   3.088  20.418  0.00  0.00    +0.000 N 
ATOM     15  C   UNL     1       1.850   2.904  19.363  0.00  0.00    +0.000 C 
ATOM     16  O   UNL     1       2.882   2.265  19.433  0.00  0.00    +0.000 OA
ATOM     17  H   UNL     1       0.182   3.694  20.330  0.00  0.00    +0.000 HD
ENDBRANCH   1  15
TORSDOF 1
ENDMDL
MODEL 5
REMARK VINA RESULT:      -7.0      2.723      3.776
REMARK  Name = 
REMARK  2 active torsions:
REMARK  status: ('A' for Active; 'I' for Inactive)
REMARK    1  A    between atoms: C_1  and  N_2
REMARK    2  A    between atoms: C_3  and  C_5
REMARK                            x       y       z     vdW  Elec       q    Type
REMARK                         _______ _______ _______ _____ _____    ______ ____
ROOT
ATOM      1  C   UNL     1       5.462   5.943  15.849  0.00  0.00    +0.000 C 
ATOM      2  C   UNL     1       4.502   5.247  16.495  0.00  0.00    +0.000 C 
ATOM      3  C   UNL     1       4.757   3.773  16.823  0.00  0.00    +0.000 C 
ATOM      4  C   UNL     1       3.579   3.346  17.686  0.00  0.00    +0.000 C 
ATOM      5  C   UNL     1       3.271   4.633  18.383  0.00  0.00    +0.000 A 
ATOM      6  C   UNL     1       2.654   4.799  19.609  0.00  0.00    +0.000 A 
ATOM      7  C   UNL     1       2.253   6.084  19.958  0.00  0.00    +0.000 A 
ATOM      8  F   UNL     1       1.689   6.286  21.157  0.00  0.00    +0.000 F 
ATOM      9  C   UNL     1       2.410   7.145  19.061  0.00  0.00    +0.000 A 
ATOM     10  F   UNL     1       1.877   8.341  19.357  0.00  0.00    +0.000 F 
ATOM     11  C   UNL     1       3.110   6.983  17.862  0.00  0.00    +0.000 A 
ATOM     12  C   UNL     1       3.623   5.728  17.577  0.00  0.00    +0.000 A 
ENDROOT
BRANCH   1  15
ATOM     13  C   UNL     1       8.006   8.018  17.730  0.00  0.00    +0.000 C 
ATOM     14  N   UNL     1       6.777   7.500  17.161  0.00  0.00    +0.000 N 
ATOM     15  C   UNL     1       6.716   6.211  16.675  0.00  0.00    +0.000 C 
ATOM     16  O   UNL     1       7.597   5.386  16.819  0.00  0.00    +0.000 OA
ATOM     17  H   UNL     1       6.056   8.169  16.945  0.00  0.00    +0.000 HD
ENDBRANCH   1  15
TORSDOF 1
ENDMDL
MODEL 6
REMARK VINA RESULT:      -6.9      3.557      5.087
REMARK  Name = 
REMARK  2 active torsions:
REMARK  status: ('A' for Active; 'I' for Inactive)
REMARK    1  A    between atoms: C_1  and  N_2
REMARK    2  A    between atoms: C_3  and  C_5
REMARK                            x       y       z     vdW  Elec       q    Type
REMARK                         _______ _______ _______ _____ _____    ______ ____
ROOT
ATOM      1  C   UNL     1       2.612   5.224  20.214  0.00  0.00    +0.000 C 
ATOM      2  C   UNL     1       2.983   4.424  19.191  0.00  0.00    +0.000 C 
ATOM      3  C   UNL     1       1.960   4.105  18.097  0.00  0.00    +0.000 C 
ATOM      4  C   UNL     1       2.736   3.345  17.032  0.00  0.00    +0.000 C 
ATOM      5  C   UNL     1       4.087   3.969  17.183  0.00  0.00    +0.000 A 
ATOM      6  C   UNL     1       5.079   4.069  16.224  0.00  0.00    +0.000 A 
ATOM      7  C   UNL     1       6.341   4.473  16.645  0.00  0.00    +0.000 A 
ATOM      8  F   UNL     1       7.314   4.619  15.736  0.00  0.00    +0.000 F 
ATOM      9  C   UNL     1       6.600   4.694  18.001  0.00  0.00    +0.000 A 
ATOM     10  F   UNL     1       7.860   4.931  18.401  0.00  0.00    +0.000 F 
ATOM     11  C   UNL     1       5.573   4.673  18.949  0.00  0.00    +0.000 A 
ATOM     12  C   UNL     1       4.289   4.398  18.504  0.00  0.00    +0.000 A 
ENDROOT
BRANCH   1  15
ATOM     13  C   UNL     1       1.220   8.726  20.546  0.00  0.00    +0.000 C 
ATOM     14  N   UNL     1       1.765   7.411  20.823  0.00  0.00    +0.000 N 
ATOM     15  C   UNL     1       2.379   6.681  19.828  0.00  0.00    +0.000 C 
ATOM     16  O   UNL     1       2.644   7.119  18.726  0.00  0.00    +0.000 OA
ATOM     17  H   UNL     1       1.493   6.978  21.691  0.00  0.00    +0.000 HD
ENDBRANCH   1  15
TORSDOF 1
ENDMDL
MODEL 7
REMARK VINA RESULT:      -6.8      3.440      4.953
REMARK  Name = 
REMARK  2 active torsions:
REMARK  status: ('A' for Active; 'I' for Inactive)
REMARK    1  A    between atoms: C_1  and  N_2
REMARK    2  A    between atoms: C_3  and  C_5
REMARK                            x       y       z     vdW  Elec       q    Type
REMARK                         _______ _______ _______ _____ _____    ______ ____
ROOT
ATOM      1  C   UNL     1       2.525   3.117  17.966  0.00  0.00    +0.000 C 
ATOM      2  C   UNL     1       2.863   4.364  17.571  0.00  0.00    +0.000 C 
ATOM      3  C   UNL     1       2.227   5.560  18.285  0.00  0.00    +0.000 C 
ATOM      4  C   UNL     1       2.941   6.783  17.729  0.00  0.00    +0.000 C 
ATOM      5  C   UNL     1       4.293   6.206  17.454  0.00  0.00    +0.000 A 
ATOM      6  C   UNL     1       5.501   6.880  17.402  0.00  0.00    +0.000 A 
ATOM      7  C   UNL     1       6.599   6.193  16.898  0.00  0.00    +0.000 A 
ATOM      8  F   UNL     1       7.792   6.803  16.871  0.00  0.00    +0.000 F 
ATOM      9  C   UNL     1       6.456   4.896  16.397  0.00  0.00    +0.000 A 
ATOM     10  F   UNL     1       7.493   4.312  15.774  0.00  0.00    +0.000 F 
ATOM     11  C   UNL     1       5.254   4.195  16.531  0.00  0.00    +0.000 A 
ATOM     12  C   UNL     1       4.197   4.839  17.155  0.00  0.00    +0.000 A 
ENDROOT
BRANCH   1  15
ATOM     13  C   UNL     1       4.905   1.615  20.494  0.00  0.00    +0.000 C 
ATOM     14  N   UNL     1       4.340   2.280  19.336  0.00  0.00    +0.000 N 
ATOM     15  C   UNL     1       3.036   2.728  19.348  0.00  0.00    +0.000 C 
ATOM     16  O   UNL     1       2.331   2.745  20.338  0.00  0.00    +0.000 OA
ATOM     17  H   UNL     1       4.855   2.211  18.473  0.00  0.00    +0.000 HD
ENDBRANCH   1  15
TORSDOF 1
ENDMDL
MODEL 8
REMARK VINA RESULT:      -6.8      0.932      1.045
REMARK  Name = 
REMARK  2 active torsions:
REMARK  status: ('A' for Active; 'I' for Inactive)
REMARK    1  A    between atoms: C_1  and  N_2
REMARK    2  A    between atoms: C_3  and  C_5
REMARK                            x       y       z     vdW  Elec       q    Type
REMARK                         _______ _______ _______ _____ _____    ______ ____
ROOT
ATOM      1  C   UNL     1       6.494   4.940  16.435  0.00  0.00    +0.000 C 
ATOM      2  C   UNL     1       5.482   5.268  17.267  0.00  0.00    +0.000 C 
ATOM      3  C   UNL     1       4.938   6.699  17.236  0.00  0.00    +0.000 C 
ATOM      4  C   UNL     1       3.718   6.684  18.145  0.00  0.00    +0.000 C 
ATOM      5  C   UNL     1       3.246   5.279  17.941  0.00  0.00    +0.000 A 
ATOM      6  C   UNL     1       1.959   4.795  18.092  0.00  0.00    +0.000 A 
ATOM      7  C   UNL     1       1.787   3.415  18.084  0.00  0.00    +0.000 A 
ATOM      8  F   UNL     1       0.548   2.913  18.188  0.00  0.00    +0.000 F 
ATOM      9  C   UNL     1       2.891   2.562  18.000  0.00  0.00    +0.000 A 
ATOM     10  F   UNL     1       2.715   1.239  18.150  0.00  0.00    +0.000 F 
ATOM     11  C   UNL     1       4.176   3.060  17.762  0.00  0.00    +0.000 A 
ATOM     12  C   UNL     1       4.324   4.433  17.640  0.00  0.00    +0.000 A 
ENDROOT
BRANCH   1  15
ATOM     13  C   UNL     1       6.199   3.471  12.960  0.00  0.00    +0.000 C 
ATOM     14  N   UNL     1       6.249   3.648  14.399  0.00  0.00    +0.000 N 
ATOM     15  C   UNL     1       6.114   4.901  14.958  0.00  0.00    +0.000 C 
ATOM     16  O   UNL     1       5.799   5.896  14.334  0.00  0.00    +0.000 OA
ATOM     17  H   UNL     1       6.591   2.872  14.943  0.00  0.00    +0.000 HD
ENDBRANCH   1  15
TORSDOF 1
ENDMDL
MODEL 9
REMARK VINA RESULT:      -6.7      3.535      4.899
REMARK  Name = 
REMARK  2 active torsions:
REMARK  status: ('A' for Active; 'I' for Inactive)
REMARK    1  A    between atoms: C_1  and  N_2
REMARK    2  A    between atoms: C_3  and  C_5
REMARK                            x       y       z     vdW  Elec       q    Type
REMARK                         _______ _______ _______ _____ _____    ______ ____
ROOT
ATOM      1  C   UNL     1       1.652   3.305  19.964  0.00  0.00    +0.000 C 
ATOM      2  C   UNL     1       1.890   4.523  19.433  0.00  0.00    +0.000 C 
ATOM      3  C   UNL     1       1.890   5.742  20.359  0.00  0.00    +0.000 C 
ATOM      4  C   UNL     1       2.355   6.904  19.493  0.00  0.00    +0.000 C 
ATOM      5  C   UNL     1       3.268   6.189  18.549  0.00  0.00    +0.000 A 
ATOM      6  C   UNL     1       4.341   6.718  17.854  0.00  0.00    +0.000 A 
ATOM      7  C   UNL     1       4.905   5.938  16.851  0.00  0.00    +0.000 A 
ATOM      8  F   UNL     1       5.971   6.404  16.186  0.00  0.00    +0.000 F 
ATOM      9  C   UNL     1       4.351   4.698  16.520  0.00  0.00    +0.000 A 
ATOM     10  F   UNL     1       4.815   4.033  15.450  0.00  0.00    +0.000 F 
ATOM     11  C   UNL     1       3.323   4.136  17.283  0.00  0.00    +0.000 A 
ATOM     12  C   UNL     1       2.850   4.862  18.365  0.00  0.00    +0.000 A 
ENDROOT
BRANCH   1  15
ATOM     13  C   UNL     1       4.905   1.575  20.825  0.00  0.00    +0.000 C 
ATOM     14  N   UNL     1       3.871   2.351  20.168  0.00  0.00    +0.000 N 
ATOM     15  C   UNL     1       2.762   2.778  20.867  0.00  0.00    +0.000 C 
ATOM     16  O   UNL     1       2.637   2.681  22.073  0.00  0.00    +0.000 OA
ATOM     17  H   UNL     1       3.891   2.379  19.162  0.00  0.00    +0.000 HD
ENDBRANCH   1  15
TORSDOF 1
ENDMDL
