MODEL 1
REMARK VINA RESULT:      -8.4      0.000      0.000
REMARK  Name = 
REMARK  4 active torsions:
REMARK  status: ('A' for Active; 'I' for Inactive)
REMARK    1  A    between atoms: C_4  and  S_5
REMARK    2  A    between atoms: S_5  and  C_6
REMARK    3  A    between atoms: C_6  and  C_7
REMARK    4  A    between atoms: C_10  and  C_11
REMARK                            x       y       z     vdW  Elec       q    Type
REMARK                         _______ _______ _______ _____ _____    ______ ____
ROOT
ATOM      1  S   UNL     1       0.335  11.923  19.290  0.00  0.00    +0.000 S 
ENDROOT
BRANCH   1   5
ATOM      2  O   UNL     1      -2.623  10.852  15.595  0.00  0.00    +0.000 OA
ATOM      3  C   UNL     1      -2.563  11.227  16.762  0.00  0.00    +0.000 A 
ATOM      4  N   UNL     1      -1.373  11.380  17.425  0.00  0.00    +0.000 N 
ATOM      5  C   UNL     1      -1.298  11.815  18.713  0.00  0.00    +0.000 A 
ATOM      6  N   UNL     1      -2.314  12.139  19.436  0.00  0.00    +0.000 NA
ATOM      7  C   UNL     1      -3.585  11.987  18.862  0.00  0.00    +0.000 A 
ATOM      8  C   UNL     1      -4.707  12.280  19.635  0.00  0.00    +0.000 A 
ATOM      9  C   UNL     1      -5.992  12.137  19.106  0.00  0.00    +0.000 A 
ATOM     10  C   UNL     1      -6.164  11.699  17.791  0.00  0.00    +0.000 A 
ATOM     11  C   UNL     1      -5.051  11.401  17.005  0.00  0.00    +0.000 A 
ATOM     12  C   UNL     1      -3.770  11.543  17.547  0.00  0.00    +0.000 A 
ATOM     13  H   UNL     1      -0.525  11.166  16.925  0.00  0.00    +0.000 HD
ENDBRANCH   1   5
BRANCH   1  14
ATOM     14  C   UNL     1       0.438  10.390  20.270  0.00  0.00    +0.000 C 
BRANCH  14  15
ATOM     15  C   UNL     1       1.243   9.297  19.607  0.00  0.00    +0.000 A 
ATOM     16  C   UNL     1       1.687   9.425  18.287  0.00  0.00    +0.000 A 
ATOM     17  C   UNL     1       2.392   8.389  17.667  0.00  0.00    +0.000 A 
ATOM     18  C   UNL     1       2.714   7.201  18.346  0.00  0.00    +0.000 A 
ATOM     19  C   UNL     1       2.300   7.105  19.686  0.00  0.00    +0.000 A 
ATOM     20  C   UNL     1       1.571   8.129  20.305  0.00  0.00    +0.000 A 
BRANCH  18  21
ATOM     21  C   UNL     1       3.452   6.103  17.673  0.00  0.00    +0.000 A 
ATOM     22  C   UNL     1       3.026   4.764  17.772  0.00  0.00    +0.000 A 
ATOM     23  C   UNL     1       3.731   3.722  17.161  0.00  0.00    +0.000 A 
ATOM     24  C   UNL     1       4.873   3.995  16.419  0.00  0.00    +0.000 A 
ATOM     25  C   UNL     1       5.314   5.309  16.293  0.00  0.00    +0.000 A 
ATOM     26  C   UNL     1       4.615   6.347  16.919  0.00  0.00    +0.000 A 
ENDBRANCH  18  21
ENDBRANCH  14  15
ENDBRANCH   1  14
TORSDOF 4
ENDMDL
MODEL 2
REMARK VINA RESULT:      -8.2      1.597      2.433
REMARK  Name = 
REMARK  4 active torsions:
REMARK  status: ('A' for Active; 'I' for Inactive)
REMARK    1  A    between atoms: C_4  and  S_5
REMARK    2  A    between atoms: S_5  and  C_6
REMARK    3  A    between atoms: C_6  and  C_7
REMARK    4  A    between atoms: C_10  and  C_11
REMARK                            x       y       z     vdW  Elec       q    Type
REMARK                         _______ _______ _______ _____ _____    ______ ____
ROOT
ATOM      1  S   UNL     1       0.733  10.733  20.799  0.00  0.00    +0.000 S 
ENDROOT
BRANCH   1   5
ATOM      2  O   UNL     1      -3.536  12.958  20.189  0.00  0.00    +0.000 OA
ATOM      3  C   UNL     1      -2.734  12.165  19.705  0.00  0.00    +0.000 A 
ATOM      4  N   UNL     1      -1.554  11.845  20.321  0.00  0.00    +0.000 N 
ATOM      5  C   UNL     1      -0.669  10.949  19.800  0.00  0.00    +0.000 A 
ATOM      6  N   UNL     1      -0.844  10.305  18.698  0.00  0.00    +0.000 NA
ATOM      7  C   UNL     1      -2.010  10.586  17.969  0.00  0.00    +0.000 A 
ATOM      8  C   UNL     1      -2.205   9.943  16.747  0.00  0.00    +0.000 A 
ATOM      9  C   UNL     1      -3.349  10.197  15.986  0.00  0.00    +0.000 A 
ATOM     10  C   UNL     1      -4.311  11.098  16.445  0.00  0.00    +0.000 A 
ATOM     11  C   UNL     1      -4.130  11.749  17.665  0.00  0.00    +0.000 A 
ATOM     12  C   UNL     1      -2.980  11.491  18.416  0.00  0.00    +0.000 A 
ATOM     13  H   UNL     1      -1.346  12.290  21.200  0.00  0.00    +0.000 HD
ENDBRANCH   1   5
BRANCH   1  14
ATOM     14  C   UNL     1       0.656   8.936  21.088  0.00  0.00    +0.000 C 
BRANCH  14  15
ATOM     15  C   UNL     1       1.492   8.127  20.125  0.00  0.00    +0.000 A 
ATOM     16  C   UNL     1       1.894   6.825  20.435  0.00  0.00    +0.000 A 
ATOM     17  C   UNL     1       2.706   6.099  19.556  0.00  0.00    +0.000 A 
ATOM     18  C   UNL     1       3.118   6.628  18.320  0.00  0.00    +0.000 A 
ATOM     19  C   UNL     1       2.668   7.922  18.003  0.00  0.00    +0.000 A 
ATOM     20  C   UNL     1       1.876   8.662  18.890  0.00  0.00    +0.000 A 
BRANCH  18  21
ATOM     21  C   UNL     1       3.990   5.854  17.402  0.00  0.00    +0.000 A 
ATOM     22  C   UNL     1       4.005   4.446  17.418  0.00  0.00    +0.000 A 
ATOM     23  C   UNL     1       4.843   3.711  16.573  0.00  0.00    +0.000 A 
ATOM     24  C   UNL     1       5.678   4.367  15.677  0.00  0.00    +0.000 A 
ATOM     25  C   UNL     1       5.678   5.758  15.630  0.00  0.00    +0.000 A 
ATOM     26  C   UNL     1       4.850   6.490  16.487  0.00  0.00    +0.000 A 
ENDBRANCH  18  21
ENDBRANCH  14  15
ENDBRANCH   1  14
TORSDOF 4
ENDMDL
MODEL 3
REMARK VINA RESULT:      -8.1      1.664      2.697
REMARK  Name = 
REMARK  4 active torsions:
REMARK  status: ('A' for Active; 'I' for Inactive)
REMARK    1  A    between atoms: C_4  and  S_5
REMARK    2  A    between atoms: S_5  and  C_6
REMARK    3  A    between atoms: C_6  and  C_7
REMARK    4  A    between atoms: C_10  and  C_11
REMARK                            x       y       z     vdW  Elec       q    Type
REMARK                         _______ _______ _______ _____ _____    ______ ____
ROOT
ATOM      1  S   UNL     1       1.016  10.522  20.550  0.00  0.00    +0.000 S 
ENDROOT
BRANCH   1   5
ATOM      2  O   UNL     1      -3.242  12.829  20.248  0.00  0.00    +0.000 OA
ATOM      3  C   UNL     1      -2.482  12.040  19.695  0.00  0.00    +0.000 A 
ATOM      4  N   UNL     1      -1.275  11.683  20.234  0.00  0.00    +0.000 N 
ATOM      5  C   UNL     1      -0.435  10.791  19.637  0.00  0.00    +0.000 A 
ATOM      6  N   UNL     1      -0.681  10.186  18.527  0.00  0.00    +0.000 NA
ATOM      7  C   UNL     1      -1.881  10.507  17.874  0.00  0.00    +0.000 A 
ATOM      8  C   UNL     1      -2.153   9.906  16.645  0.00  0.00    +0.000 A 
ATOM      9  C   UNL     1      -3.333  10.202  15.956  0.00  0.00    +0.000 A 
ATOM     10  C   UNL     1      -4.253  11.102  16.496  0.00  0.00    +0.000 A 
ATOM     11  C   UNL     1      -3.994  11.711  17.724  0.00  0.00    +0.000 A 
ATOM     12  C   UNL     1      -2.809  11.412  18.401  0.00  0.00    +0.000 A 
ATOM     13  H   UNL     1      -1.011  12.096  21.114  0.00  0.00    +0.000 HD
ENDBRANCH   1   5
BRANCH   1  14
ATOM     14  C   UNL     1       0.921   8.719  20.793  0.00  0.00    +0.000 C 
BRANCH  14  15
ATOM     15  C   UNL     1       1.771   7.928  19.825  0.00  0.00    +0.000 A 
ATOM     16  C   UNL     1       2.183   6.626  20.124  0.00  0.00    +0.000 A 
ATOM     17  C   UNL     1       3.007   5.919  19.242  0.00  0.00    +0.000 A 
ATOM     18  C   UNL     1       3.421   6.465  18.014  0.00  0.00    +0.000 A 
ATOM     19  C   UNL     1       2.961   7.757  17.708  0.00  0.00    +0.000 A 
ATOM     20  C   UNL     1       2.157   8.480  18.599  0.00  0.00    +0.000 A 
BRANCH  18  21
ATOM     21  C   UNL     1       4.306   5.709  17.093  0.00  0.00    +0.000 A 
ATOM     22  C   UNL     1       5.032   6.358  16.075  0.00  0.00    +0.000 A 
ATOM     23  C   UNL     1       5.848   5.649  15.188  0.00  0.00    +0.000 A 
ATOM     24  C   UNL     1       5.972   4.270  15.307  0.00  0.00    +0.000 A 
ATOM     25  C   UNL     1       5.276   3.600  16.309  0.00  0.00    +0.000 A 
ATOM     26  C   UNL     1       4.449   4.312  17.185  0.00  0.00    +0.000 A 
ENDBRANCH  18  21
ENDBRANCH  14  15
ENDBRANCH   1  14
TORSDOF 4
ENDMDL
MODEL 4
REMARK VINA RESULT:      -8.1      3.986      5.865
REMARK  Name = 
REMARK  4 active torsions:
REMARK  status: ('A' for Active; 'I' for Inactive)
REMARK    1  A    between atoms: C_4  and  S_5
REMARK    2  A    between atoms: S_5  and  C_6
REMARK    3  A    between atoms: C_6  and  C_7
REMARK    4  A    between atoms: C_10  and  C_11
REMARK                            x       y       z     vdW  Elec       q    Type
REMARK                         _______ _______ _______ _____ _____    ______ ____
ROOT
ATOM      1  S   UNL     1       2.564   5.024  19.919  0.00  0.00    +0.000 S 
ENDROOT
BRANCH   1   5
ATOM      2  O   UNL     1       2.131   9.209  17.500  0.00  0.00    +0.000 OA
ATOM      3  C   UNL     1       1.901   8.626  18.555  0.00  0.00    +0.000 A 
ATOM      4  N   UNL     1       2.246   7.317  18.762  0.00  0.00    +0.000 N 
ATOM      5  C   UNL     1       2.013   6.670  19.938  0.00  0.00    +0.000 A 
ATOM      6  N   UNL     1       1.465   7.208  20.972  0.00  0.00    +0.000 NA
ATOM      7  C   UNL     1       1.042   8.540  20.854  0.00  0.00    +0.000 A 
ATOM      8  C   UNL     1       0.399   9.136  21.939  0.00  0.00    +0.000 A 
ATOM      9  C   UNL     1      -0.044  10.459  21.862  0.00  0.00    +0.000 A 
ATOM     10  C   UNL     1       0.156  11.200  20.696  0.00  0.00    +0.000 A 
ATOM     11  C   UNL     1       0.797  10.617  19.602  0.00  0.00    +0.000 A 
ATOM     12  C   UNL     1       1.231   9.292  19.688  0.00  0.00    +0.000 A 
ATOM     13  H   UNL     1       2.699   6.825  18.009  0.00  0.00    +0.000 HD
ENDBRANCH   1   5
BRANCH   1  14
ATOM     14  C   UNL     1       4.361   5.282  19.761  0.00  0.00    +0.000 C 
BRANCH  14  15
ATOM     15  C   UNL     1       4.888   5.051  18.364  0.00  0.00    +0.000 A 
ATOM     16  C   UNL     1       6.182   5.442  18.007  0.00  0.00    +0.000 A 
ATOM     17  C   UNL     1       6.647   5.265  16.700  0.00  0.00    +0.000 A 
ATOM     18  C   UNL     1       5.856   4.659  15.708  0.00  0.00    +0.000 A 
ATOM     19  C   UNL     1       4.574   4.230  16.094  0.00  0.00    +0.000 A 
ATOM     20  C   UNL     1       4.094   4.428  17.395  0.00  0.00    +0.000 A 
BRANCH  18  21
ATOM     21  C   UNL     1       6.355   4.489  14.321  0.00  0.00    +0.000 A 
ATOM     22  C   UNL     1       7.413   5.272  13.820  0.00  0.00    +0.000 A 
ATOM     23  C   UNL     1       7.872   5.134  12.506  0.00  0.00    +0.000 A 
ATOM     24  C   UNL     1       7.292   4.194  11.661  0.00  0.00    +0.000 A 
ATOM     25  C   UNL     1       6.251   3.399  12.129  0.00  0.00    +0.000 A 
ATOM     26  C   UNL     1       5.785   3.550  13.440  0.00  0.00    +0.000 A 
ENDBRANCH  18  21
ENDBRANCH  14  15
ENDBRANCH   1  14
TORSDOF 4
ENDMDL
MODEL 5
REMARK VINA RESULT:      -8.1      0.731      1.534
REMARK  Name = 
REMARK  4 active torsions:
REMARK  status: ('A' for Active; 'I' for Inactive)
REMARK    1  A    between atoms: C_4  and  S_5
REMARK    2  A    between atoms: S_5  and  C_6
REMARK    3  A    between atoms: C_6  and  C_7
REMARK    4  A    between atoms: C_10  and  C_11
REMARK                            x       y       z     vdW  Elec       q    Type
REMARK                         _______ _______ _______ _____ _____    ______ ____
ROOT
ATOM      1  S   UNL     1       0.654  11.287  20.041  0.00  0.00    +0.000 S 
ENDROOT
BRANCH   1   5
ATOM      2  O   UNL     1      -2.202  10.653  16.169  0.00  0.00    +0.000 OA
ATOM      3  C   UNL     1      -2.151  11.047  17.330  0.00  0.00    +0.000 A 
ATOM      4  N   UNL     1      -1.000  11.003  18.071  0.00  0.00    +0.000 N 
ATOM      5  C   UNL     1      -0.931  11.458  19.353  0.00  0.00    +0.000 A 
ATOM      6  N   UNL     1      -1.915  11.982  19.997  0.00  0.00    +0.000 NA
ATOM      7  C   UNL     1      -3.152  12.044  19.338  0.00  0.00    +0.000 A 
ATOM      8  C   UNL     1      -4.251  12.560  20.026  0.00  0.00    +0.000 A 
ATOM      9  C   UNL     1      -5.503  12.634  19.410  0.00  0.00    +0.000 A 
ATOM     10  C   UNL     1      -5.665  12.194  18.095  0.00  0.00    +0.000 A 
ATOM     11  C   UNL     1      -4.576  11.675  17.395  0.00  0.00    +0.000 A 
ATOM     12  C   UNL     1      -3.330  11.601  18.022  0.00  0.00    +0.000 A 
ATOM     13  H   UNL     1      -0.174  10.624  17.636  0.00  0.00    +0.000 HD
ENDBRANCH   1   5
BRANCH   1  14
ATOM     14  C   UNL     1       0.587   9.551  20.589  0.00  0.00    +0.000 C 
BRANCH  14  15
ATOM     15  C   UNL     1       1.432   8.616  19.754  0.00  0.00    +0.000 A 
ATOM     16  C   UNL     1       1.847   7.378  20.254  0.00  0.00    +0.000 A 
ATOM     17  C   UNL     1       2.666   6.539  19.492  0.00  0.00    +0.000 A 
ATOM     18  C   UNL     1       3.073   6.883  18.190  0.00  0.00    +0.000 A 
ATOM     19  C   UNL     1       2.611   8.110  17.685  0.00  0.00    +0.000 A 
ATOM     20  C   UNL     1       1.811   8.966  18.454  0.00  0.00    +0.000 A 
BRANCH  18  21
ATOM     21  C   UNL     1       3.953   5.990  17.396  0.00  0.00    +0.000 A 
ATOM     22  C   UNL     1       4.844   6.504  16.433  0.00  0.00    +0.000 A 
ATOM     23  C   UNL     1       5.658   5.667  15.664  0.00  0.00    +0.000 A 
ATOM     24  C   UNL     1       5.614   4.290  15.850  0.00  0.00    +0.000 A 
ATOM     25  C   UNL     1       4.751   3.752  16.800  0.00  0.00    +0.000 A 
ATOM     26  C   UNL     1       3.928   4.592  17.557  0.00  0.00    +0.000 A 
ENDBRANCH  18  21
ENDBRANCH  14  15
ENDBRANCH   1  14
TORSDOF 4
ENDMDL
MODEL 6
REMARK VINA RESULT:      -8.0      6.829      9.364
REMARK  Name = 
REMARK  4 active torsions:
REMARK  status: ('A' for Active; 'I' for Inactive)
REMARK    1  A    between atoms: C_4  and  S_5
REMARK    2  A    between atoms: S_5  and  C_6
REMARK    3  A    between atoms: C_6  and  C_7
REMARK    4  A    between atoms: C_10  and  C_11
REMARK                            x       y       z     vdW  Elec       q    Type
REMARK                         _______ _______ _______ _____ _____    ______ ____
ROOT
ATOM      1  S   UNL     1       6.802   4.691  17.700  0.00  0.00    +0.000 S 
ENDROOT
BRANCH   1   5
ATOM      2  O   UNL     1       3.367   1.308  18.261  0.00  0.00    +0.000 OA
ATOM      3  C   UNL     1       3.686   2.470  18.497  0.00  0.00    +0.000 A 
ATOM      4  N   UNL     1       4.883   2.999  18.093  0.00  0.00    +0.000 N 
ATOM      5  C   UNL     1       5.235   4.294  18.333  0.00  0.00    +0.000 A 
ATOM      6  N   UNL     1       4.493   5.152  18.942  0.00  0.00    +0.000 NA
ATOM      7  C   UNL     1       3.256   4.701  19.427  0.00  0.00    +0.000 A 
ATOM      8  C   UNL     1       2.451   5.593  20.135  0.00  0.00    +0.000 A 
ATOM      9  C   UNL     1       1.214   5.185  20.642  0.00  0.00    +0.000 A 
ATOM     10  C   UNL     1       0.771   3.876  20.440  0.00  0.00    +0.000 A 
ATOM     11  C   UNL     1       1.566   2.973  19.734  0.00  0.00    +0.000 A 
ATOM     12  C   UNL     1       2.803   3.391  19.237  0.00  0.00    +0.000 A 
ATOM     13  H   UNL     1       5.518   2.399  17.592  0.00  0.00    +0.000 HD
ENDBRANCH   1   5
BRANCH   1  14
ATOM     14  C   UNL     1       6.448   6.310  16.944  0.00  0.00    +0.000 C 
BRANCH  14  15
ATOM     15  C   UNL     1       7.239   7.448  17.546  0.00  0.00    +0.000 A 
ATOM     16  C   UNL     1       7.081   8.759  17.087  0.00  0.00    +0.000 A 
ATOM     17  C   UNL     1       7.849   9.800  17.620  0.00  0.00    +0.000 A 
ATOM     18  C   UNL     1       8.777   9.582  18.654  0.00  0.00    +0.000 A 
ATOM     19  C   UNL     1       8.892   8.267  19.135  0.00  0.00    +0.000 A 
ATOM     20  C   UNL     1       8.143   7.216  18.588  0.00  0.00    +0.000 A 
BRANCH  18  21
ATOM     21  C   UNL     1       9.596  10.692  19.201  0.00  0.00    +0.000 A 
ATOM     22  C   UNL     1      10.539  11.371  18.405  0.00  0.00    +0.000 A 
ATOM     23  C   UNL     1      11.332  12.401  18.921  0.00  0.00    +0.000 A 
ATOM     24  C   UNL     1      11.189  12.790  20.248  0.00  0.00    +0.000 A 
ATOM     25  C   UNL     1      10.260  12.146  21.058  0.00  0.00    +0.000 A 
ATOM     26  C   UNL     1       9.479  11.106  20.541  0.00  0.00    +0.000 A 
ENDBRANCH  18  21
ENDBRANCH  14  15
ENDBRANCH   1  14
TORSDOF 4
ENDMDL
MODEL 7
REMARK VINA RESULT:      -8.0      4.497      9.415
REMARK  Name = 
REMARK  4 active torsions:
REMARK  status: ('A' for Active; 'I' for Inactive)
REMARK    1  A    between atoms: C_4  and  S_5
REMARK    2  A    between atoms: S_5  and  C_6
REMARK    3  A    between atoms: C_6  and  C_7
REMARK    4  A    between atoms: C_10  and  C_11
REMARK                            x       y       z     vdW  Elec       q    Type
REMARK                         _______ _______ _______ _____ _____    ______ ____
ROOT
ATOM      1  S   UNL     1       1.896   4.435  19.405  0.00  0.00    +0.000 S 
ENDROOT
BRANCH   1   5
ATOM      2  O   UNL     1       6.668   5.240  19.773  0.00  0.00    +0.000 OA
ATOM      3  C   UNL     1       5.748   4.963  19.008  0.00  0.00    +0.000 A 
ATOM      4  N   UNL     1       4.454   4.825  19.436  0.00  0.00    +0.000 N 
ATOM      5  C   UNL     1       3.425   4.540  18.590  0.00  0.00    +0.000 A 
ATOM      6  N   UNL     1       3.547   4.382  17.317  0.00  0.00    +0.000 NA
ATOM      7  C   UNL     1       4.840   4.470  16.781  0.00  0.00    +0.000 A 
ATOM      8  C   UNL     1       5.013   4.254  15.414  0.00  0.00    +0.000 A 
ATOM      9  C   UNL     1       6.284   4.325  14.839  0.00  0.00    +0.000 A 
ATOM     10  C   UNL     1       7.397   4.617  15.630  0.00  0.00    +0.000 A 
ATOM     11  C   UNL     1       7.240   4.834  16.999  0.00  0.00    +0.000 A 
ATOM     12  C   UNL     1       5.965   4.756  17.564  0.00  0.00    +0.000 A 
ATOM     13  H   UNL     1       4.267   4.952  20.417  0.00  0.00    +0.000 HD
ENDBRANCH   1   5
BRANCH   1  14
ATOM     14  C   UNL     1       2.139   5.675  20.717  0.00  0.00    +0.000 C 
BRANCH  14  15
ATOM     15  C   UNL     1       1.724   7.072  20.318  0.00  0.00    +0.000 A 
ATOM     16  C   UNL     1       2.107   7.616  19.089  0.00  0.00    +0.000 A 
ATOM     17  C   UNL     1       1.757   8.926  18.746  0.00  0.00    +0.000 A 
ATOM     18  C   UNL     1       0.981   9.732  19.598  0.00  0.00    +0.000 A 
ATOM     19  C   UNL     1       0.565   9.156  20.811  0.00  0.00    +0.000 A 
ATOM     20  C   UNL     1       0.935   7.853  21.170  0.00  0.00    +0.000 A 
BRANCH  18  21
ATOM     21  C   UNL     1       0.626  11.125  19.230  0.00  0.00    +0.000 A 
ATOM     22  C   UNL     1       1.600  12.033  18.768  0.00  0.00    +0.000 A 
ATOM     23  C   UNL     1       1.277  13.354  18.443  0.00  0.00    +0.000 A 
ATOM     24  C   UNL     1      -0.035  13.799  18.557  0.00  0.00    +0.000 A 
ATOM     25  C   UNL     1      -1.022  12.924  19.001  0.00  0.00    +0.000 A 
ATOM     26  C   UNL     1      -0.692  11.607  19.339  0.00  0.00    +0.000 A 
ENDBRANCH  18  21
ENDBRANCH  14  15
ENDBRANCH   1  14
TORSDOF 4
ENDMDL
MODEL 8
REMARK VINA RESULT:      -8.0      6.783      8.590
REMARK  Name = 
REMARK  4 active torsions:
REMARK  status: ('A' for Active; 'I' for Inactive)
REMARK    1  A    between atoms: C_4  and  S_5
REMARK    2  A    between atoms: S_5  and  C_6
REMARK    3  A    between atoms: C_6  and  C_7
REMARK    4  A    between atoms: C_10  and  C_11
REMARK                            x       y       z     vdW  Elec       q    Type
REMARK                         _______ _______ _______ _____ _____    ______ ____
ROOT
ATOM      1  S   UNL     1       6.919   5.561  19.394  0.00  0.00    +0.000 S 
ENDROOT
BRANCH   1   5
ATOM      2  O   UNL     1       2.193   6.521  19.936  0.00  0.00    +0.000 OA
ATOM      3  C   UNL     1       3.021   5.656  19.667  0.00  0.00    +0.000 A 
ATOM      4  N   UNL     1       4.366   5.913  19.634  0.00  0.00    +0.000 N 
ATOM      5  C   UNL     1       5.293   4.953  19.358  0.00  0.00    +0.000 A 
ATOM      6  N   UNL     1       5.018   3.718  19.116  0.00  0.00    +0.000 NA
ATOM      7  C   UNL     1       3.662   3.356  19.094  0.00  0.00    +0.000 A 
ATOM      8  C   UNL     1       3.328   2.038  18.784  0.00  0.00    +0.000 A 
ATOM      9  C   UNL     1       1.991   1.635  18.745  0.00  0.00    +0.000 A 
ATOM     10  C   UNL     1       0.974   2.552  19.018  0.00  0.00    +0.000 A 
ATOM     11  C   UNL     1       1.293   3.874  19.328  0.00  0.00    +0.000 A 
ATOM     12  C   UNL     1       2.633   4.267  19.360  0.00  0.00    +0.000 A 
ATOM     13  H   UNL     1       4.671   6.852  19.831  0.00  0.00    +0.000 HD
ENDBRANCH   1   5
BRANCH   1  14
ATOM     14  C   UNL     1       6.931   6.554  17.867  0.00  0.00    +0.000 C 
BRANCH  14  15
ATOM     15  C   UNL     1       6.556   5.773  16.630  0.00  0.00    +0.000 A 
ATOM     16  C   UNL     1       7.275   4.636  16.248  0.00  0.00    +0.000 A 
ATOM     17  C   UNL     1       6.950   3.945  15.077  0.00  0.00    +0.000 A 
ATOM     18  C   UNL     1       5.874   4.336  14.260  0.00  0.00    +0.000 A 
ATOM     19  C   UNL     1       5.133   5.454  14.680  0.00  0.00    +0.000 A 
ATOM     20  C   UNL     1       5.470   6.165  15.839  0.00  0.00    +0.000 A 
BRANCH  18  21
ATOM     21  C   UNL     1       5.547   3.602  13.012  0.00  0.00    +0.000 A 
ATOM     22  C   UNL     1       4.349   3.844  12.311  0.00  0.00    +0.000 A 
ATOM     23  C   UNL     1       4.022   3.139  11.149  0.00  0.00    +0.000 A 
ATOM     24  C   UNL     1       4.896   2.181  10.647  0.00  0.00    +0.000 A 
ATOM     25  C   UNL     1       6.092   1.926  11.311  0.00  0.00    +0.000 A 
ATOM     26  C   UNL     1       6.407   2.624  12.482  0.00  0.00    +0.000 A 
ENDBRANCH  18  21
ENDBRANCH  14  15
ENDBRANCH   1  14
TORSDOF 4
ENDMDL
MODEL 9
REMARK VINA RESULT:      -8.0      1.030      1.639
REMARK  Name = 
REMARK  4 active torsions:
REMARK  status: ('A' for Active; 'I' for Inactive)
REMARK    1  A    between atoms: C_4  and  S_5
REMARK    2  A    between atoms: S_5  and  C_6
REMARK    3  A    between atoms: C_6  and  C_7
REMARK    4  A    between atoms: C_10  and  C_11
REMARK                            x       y       z     vdW  Elec       q    Type
REMARK                         _______ _______ _______ _____ _____    ______ ____
ROOT
ATOM      1  S   UNL     1       0.907  11.329  18.951  0.00  0.00    +0.000 S 
ENDROOT
BRANCH   1   5
ATOM      2  O   UNL     1      -2.530   9.906  15.834  0.00  0.00    +0.000 OA
ATOM      3  C   UNL     1      -2.304  10.505  16.882  0.00  0.00    +0.000 A 
ATOM      4  N   UNL     1      -1.041  10.636  17.395  0.00  0.00    +0.000 N 
ATOM      5  C   UNL     1      -0.781  11.318  18.546  0.00  0.00    +0.000 A 
ATOM      6  N   UNL     1      -1.671  11.914  19.261  0.00  0.00    +0.000 NA
ATOM      7  C   UNL     1      -3.006  11.811  18.838  0.00  0.00    +0.000 A 
ATOM      8  C   UNL     1      -4.000  12.403  19.617  0.00  0.00    +0.000 A 
ATOM      9  C   UNL     1      -5.342  12.321  19.238  0.00  0.00    +0.000 A 
ATOM     10  C   UNL     1      -5.701  11.645  18.071  0.00  0.00    +0.000 A 
ATOM     11  C   UNL     1      -4.718  11.047  17.282  0.00  0.00    +0.000 A 
ATOM     12  C   UNL     1      -3.379  11.132  17.673  0.00  0.00    +0.000 A 
ATOM     13  H   UNL     1      -0.280  10.215  16.887  0.00  0.00    +0.000 HD
ENDBRANCH   1   5
BRANCH   1  14
ATOM     14  C   UNL     1       0.925  10.124  20.316  0.00  0.00    +0.000 C 
BRANCH  14  15
ATOM     15  C   UNL     1       1.415   8.753  19.912  0.00  0.00    +0.000 A 
ATOM     16  C   UNL     1       1.930   8.518  18.634  0.00  0.00    +0.000 A 
ATOM     17  C   UNL     1       2.338   7.236  18.252  0.00  0.00    +0.000 A 
ATOM     18  C   UNL     1       2.286   6.147  19.141  0.00  0.00    +0.000 A 
ATOM     19  C   UNL     1       1.808   6.408  20.437  0.00  0.00    +0.000 A 
ATOM     20  C   UNL     1       1.373   7.685  20.815  0.00  0.00    +0.000 A 
BRANCH  18  21
ATOM     21  C   UNL     1       2.710   4.788  18.721  0.00  0.00    +0.000 A 
ATOM     22  C   UNL     1       3.709   4.600  17.745  0.00  0.00    +0.000 A 
ATOM     23  C   UNL     1       4.096   3.323  17.327  0.00  0.00    +0.000 A 
ATOM     24  C   UNL     1       3.504   2.197  17.887  0.00  0.00    +0.000 A 
ATOM     25  C   UNL     1       2.521   2.350  18.860  0.00  0.00    +0.000 A 
ATOM     26  C   UNL     1       2.126   3.629  19.265  0.00  0.00    +0.000 A 
ENDBRANCH  18  21
ENDBRANCH  14  15
ENDBRANCH   1  14
TORSDOF 4
ENDMDL
