MODEL 1
REMARK VINA RESULT:      -9.5      0.000      0.000
REMARK  Name = 
REMARK  5 active torsions:
REMARK  status: ('A' for Active; 'I' for Inactive)
REMARK    1  A    between atoms: C_1  and  C_2
REMARK    2  A    between atoms: C_5  and  C_6
REMARK    3  A    between atoms: N_8  and  C_9
REMARK    4  A    between atoms: C_13  and  C_14
REMARK    5  A    between atoms: C_14  and  C_15
REMARK                            x       y       z     vdW  Elec       q    Type
REMARK                         _______ _______ _______ _____ _____    ______ ____
ROOT
ATOM      1  C   UNL     1       1.732   5.097  20.461  0.00  0.00    +0.000 A 
ATOM      2  C   UNL     1       0.864   4.004  20.520  0.00  0.00    +0.000 A 
ATOM      3  C   UNL     1       1.287   2.731  20.146  0.00  0.00    +0.000 A 
ATOM      4  C   UNL     1       2.598   2.524  19.725  0.00  0.00    +0.000 A 
ATOM      5  C   UNL     1       3.491   3.601  19.666  0.00  0.00    +0.000 A 
ATOM      6  C   UNL     1       3.035   4.894  19.993  0.00  0.00    +0.000 A 
ENDROOT
BRANCH   1   9
ATOM      7  C   UNL     1       1.629   7.557  20.171  0.00  0.00    +0.000 C 
ATOM      8  O   UNL     1       2.226   7.625  19.101  0.00  0.00    +0.000 OA
ATOM      9  N   UNL     1       1.361   6.399  20.884  0.00  0.00    +0.000 N 
ATOM     10  H   UNL     1       0.696   6.454  21.646  0.00  0.00    +0.000 HD
BRANCH   7  15
ATOM     11  C   UNL     1      -0.800  12.320  22.391  0.00  0.00    +0.000 C 
ATOM     12  C   UNL     1      -0.132  11.123  21.789  0.00  0.00    +0.000 A 
ATOM     13  C   UNL     1       0.351  11.131  20.471  0.00  0.00    +0.000 A 
ATOM     14  C   UNL     1       0.957   9.988  19.924  0.00  0.00    +0.000 A 
ATOM     15  C   UNL     1       1.079   8.831  20.701  0.00  0.00    +0.000 A 
ATOM     16  C   UNL     1       0.597   8.824  22.012  0.00  0.00    +0.000 A 
ATOM     17  C   UNL     1       0.004   9.959  22.545  0.00  0.00    +0.000 A 
ATOM     18  F   UNL     1      -0.455   9.924  23.802  0.00  0.00    +0.000 F 
ENDBRANCH   7  15
ENDBRANCH   1   9
BRANCH   5  19
ATOM     19  C   UNL     1       4.935   3.368  19.281  0.00  0.00    +0.000 C 
BRANCH  19  20
ATOM     20  C   UNL     1       5.320   4.058  17.978  0.00  0.00    +0.000 A 
ATOM     21  N   UNL     1       4.705   3.656  16.904  0.00  0.00    +0.000 NA
ATOM     22  N   UNL     1       5.044   4.247  15.729  0.00  0.00    +0.000 N 
ATOM     23  C   UNL     1       5.991   5.219  15.563  0.00  0.00    +0.000 A 
ATOM     24  O   UNL     1       6.295   5.656  14.458  0.00  0.00    +0.000 OA
ATOM     25  C   UNL     1       6.623   5.727  16.806  0.00  0.00    +0.000 A 
ATOM     26  C   UNL     1       6.331   5.162  17.991  0.00  0.00    +0.000 A 
ATOM     27  C   UNL     1       6.967   5.623  19.275  0.00  0.00    +0.000 C 
ATOM     28  C   UNL     1       8.161   6.560  19.062  0.00  0.00    +0.000 C 
ATOM     29  C   UNL     1       7.855   7.589  17.982  0.00  0.00    +0.000 C 
ATOM     30  C   UNL     1       7.564   6.891  16.652  0.00  0.00    +0.000 C 
ATOM     31  H   UNL     1       4.603   3.882  14.892  0.00  0.00    +0.000 HD
ENDBRANCH  19  20
ENDBRANCH   5  19
TORSDOF 4
ENDMDL
MODEL 2
REMARK VINA RESULT:      -9.4      4.436      7.775
REMARK  Name = 
REMARK  5 active torsions:
REMARK  status: ('A' for Active; 'I' for Inactive)
REMARK    1  A    between atoms: C_1  and  C_2
REMARK    2  A    between atoms: C_5  and  C_6
REMARK    3  A    between atoms: N_8  and  C_9
REMARK    4  A    between atoms: C_13  and  C_14
REMARK    5  A    between atoms: C_14  and  C_15
REMARK                            x       y       z     vdW  Elec       q    Type
REMARK                         _______ _______ _______ _____ _____    ______ ____
ROOT
ATOM      1  C   UNL     1       7.841   8.102  17.943  0.00  0.00    +0.000 A 
ATOM      2  C   UNL     1       8.407   7.149  18.794  0.00  0.00    +0.000 A 
ATOM      3  C   UNL     1       7.831   5.890  18.947  0.00  0.00    +0.000 A 
ATOM      4  C   UNL     1       6.685   5.553  18.230  0.00  0.00    +0.000 A 
ATOM      5  C   UNL     1       6.103   6.485  17.363  0.00  0.00    +0.000 A 
ATOM      6  C   UNL     1       6.663   7.775  17.260  0.00  0.00    +0.000 A 
ENDROOT
BRANCH   1   9
ATOM      7  C   UNL     1       8.978  10.167  18.709  0.00  0.00    +0.000 C 
ATOM      8  O   UNL     1       9.031   9.895  19.904  0.00  0.00    +0.000 OA
ATOM      9  N   UNL     1       8.423   9.374  17.715  0.00  0.00    +0.000 N 
ATOM     10  H   UNL     1       8.615   9.617  16.752  0.00  0.00    +0.000 HD
BRANCH   7  15
ATOM     11  C   UNL     1      11.257  15.160  16.868  0.00  0.00    +0.000 C 
ATOM     12  C   UNL     1      10.719  13.855  17.369  0.00  0.00    +0.000 A 
ATOM     13  C   UNL     1      11.500  12.688  17.375  0.00  0.00    +0.000 A 
ATOM     14  C   UNL     1      10.965  11.473  17.833  0.00  0.00    +0.000 A 
ATOM     15  C   UNL     1       9.643  11.427  18.288  0.00  0.00    +0.000 A 
ATOM     16  C   UNL     1       8.868  12.589  18.281  0.00  0.00    +0.000 A 
ATOM     17  C   UNL     1       9.406  13.785  17.831  0.00  0.00    +0.000 A 
ATOM     18  F   UNL     1       8.640  14.884  17.829  0.00  0.00    +0.000 F 
ENDBRANCH   7  15
ENDBRANCH   1   9
BRANCH   5  19
ATOM     19  C   UNL     1       4.903   6.098  16.528  0.00  0.00    +0.000 C 
BRANCH  19  20
ATOM     20  C   UNL     1       4.050   5.019  17.182  0.00  0.00    +0.000 A 
ATOM     21  N   UNL     1       4.188   3.810  16.719  0.00  0.00    +0.000 NA
ATOM     22  N   UNL     1       3.424   2.835  17.277  0.00  0.00    +0.000 N 
ATOM     23  C   UNL     1       2.503   3.006  18.273  0.00  0.00    +0.000 A 
ATOM     24  O   UNL     1       1.798   2.089  18.679  0.00  0.00    +0.000 OA
ATOM     25  C   UNL     1       2.418   4.372  18.848  0.00  0.00    +0.000 A 
ATOM     26  C   UNL     1       3.142   5.374  18.318  0.00  0.00    +0.000 A 
ATOM     27  C   UNL     1       3.068   6.781  18.848  0.00  0.00    +0.000 C 
ATOM     28  C   UNL     1       1.902   7.007  19.816  0.00  0.00    +0.000 C 
ATOM     29  C   UNL     1       1.776   5.846  20.793  0.00  0.00    +0.000 C 
ATOM     30  C   UNL     1       1.511   4.543  20.037  0.00  0.00    +0.000 C 
ATOM     31  H   UNL     1       3.496   1.910  16.866  0.00  0.00    +0.000 HD
ENDBRANCH  19  20
ENDBRANCH   5  19
TORSDOF 4
ENDMDL
MODEL 3
REMARK VINA RESULT:      -9.3      1.396      2.149
REMARK  Name = 
REMARK  5 active torsions:
REMARK  status: ('A' for Active; 'I' for Inactive)
REMARK    1  A    between atoms: C_1  and  C_2
REMARK    2  A    between atoms: C_5  and  C_6
REMARK    3  A    between atoms: N_8  and  C_9
REMARK    4  A    between atoms: C_13  and  C_14
REMARK    5  A    between atoms: C_14  and  C_15
REMARK                            x       y       z     vdW  Elec       q    Type
REMARK                         _______ _______ _______ _____ _____    ______ ____
ROOT
ATOM      1  C   UNL     1       1.903   5.171  20.321  0.00  0.00    +0.000 A 
ATOM      2  C   UNL     1       0.992   4.128  20.136  0.00  0.00    +0.000 A 
ATOM      3  C   UNL     1       1.419   2.867  19.728  0.00  0.00    +0.000 A 
ATOM      4  C   UNL     1       2.774   2.620  19.518  0.00  0.00    +0.000 A 
ATOM      5  C   UNL     1       3.709   3.645  19.705  0.00  0.00    +0.000 A 
ATOM      6  C   UNL     1       3.258   4.932  20.063  0.00  0.00    +0.000 A 
ENDROOT
BRANCH   1   9
ATOM      7  C   UNL     1       1.646   7.622  20.052  0.00  0.00    +0.000 C 
ATOM      8  O   UNL     1       2.110   7.716  18.920  0.00  0.00    +0.000 OA
ATOM      9  N   UNL     1       1.520   6.454  20.789  0.00  0.00    +0.000 N 
ATOM     10  H   UNL     1       0.948   6.478  21.623  0.00  0.00    +0.000 HD
BRANCH   7  15
ATOM     11  C   UNL     1      -0.772  12.272  22.511  0.00  0.00    +0.000 C 
ATOM     12  C   UNL     1      -0.107  11.105  21.849  0.00  0.00    +0.000 A 
ATOM     13  C   UNL     1       0.389  11.183  20.538  0.00  0.00    +0.000 A 
ATOM     14  C   UNL     1       0.992  10.068  19.934  0.00  0.00    +0.000 A 
ATOM     15  C   UNL     1       1.099   8.869  20.647  0.00  0.00    +0.000 A 
ATOM     16  C   UNL     1       0.605   8.793  21.952  0.00  0.00    +0.000 A 
ATOM     17  C   UNL     1       0.015   9.901  22.541  0.00  0.00    +0.000 A 
ATOM     18  F   UNL     1      -0.456   9.800  23.790  0.00  0.00    +0.000 F 
ENDBRANCH   7  15
ENDBRANCH   1   9
BRANCH   5  19
ATOM     19  C   UNL     1       5.186   3.362  19.549  0.00  0.00    +0.000 C 
BRANCH  19  20
ATOM     20  C   UNL     1       5.930   4.474  18.821  0.00  0.00    +0.000 A 
ATOM     21  N   UNL     1       6.642   5.275  19.559  0.00  0.00    +0.000 NA
ATOM     22  N   UNL     1       7.301   6.284  18.932  0.00  0.00    +0.000 N 
ATOM     23  C   UNL     1       7.272   6.552  17.592  0.00  0.00    +0.000 A 
ATOM     24  O   UNL     1       7.837   7.526  17.105  0.00  0.00    +0.000 OA
ATOM     25  C   UNL     1       6.525   5.582  16.754  0.00  0.00    +0.000 A 
ATOM     26  C   UNL     1       5.844   4.575  17.330  0.00  0.00    +0.000 A 
ATOM     27  C   UNL     1       5.048   3.583  16.525  0.00  0.00    +0.000 C 
ATOM     28  C   UNL     1       4.855   4.001  15.063  0.00  0.00    +0.000 C 
ATOM     29  C   UNL     1       6.149   4.551  14.481  0.00  0.00    +0.000 C 
ATOM     30  C   UNL     1       6.601   5.785  15.264  0.00  0.00    +0.000 C 
ATOM     31  H   UNL     1       7.802   6.938  19.525  0.00  0.00    +0.000 HD
ENDBRANCH  19  20
ENDBRANCH   5  19
TORSDOF 4
ENDMDL
MODEL 4
REMARK VINA RESULT:      -9.3      4.533      7.696
REMARK  Name = 
REMARK  5 active torsions:
REMARK  status: ('A' for Active; 'I' for Inactive)
REMARK    1  A    between atoms: C_1  and  C_2
REMARK    2  A    between atoms: C_5  and  C_6
REMARK    3  A    between atoms: N_8  and  C_9
REMARK    4  A    between atoms: C_13  and  C_14
REMARK    5  A    between atoms: C_14  and  C_15
REMARK                            x       y       z     vdW  Elec       q    Type
REMARK                         _______ _______ _______ _____ _____    ______ ____
ROOT
ATOM      1  C   UNL     1       7.500   7.786  17.843  0.00  0.00    +0.000 A 
ATOM      2  C   UNL     1       8.193   6.882  18.653  0.00  0.00    +0.000 A 
ATOM      3  C   UNL     1       7.775   5.559  18.773  0.00  0.00    +0.000 A 
ATOM      4  C   UNL     1       6.663   5.109  18.066  0.00  0.00    +0.000 A 
ATOM      5  C   UNL     1       5.955   5.992  17.241  0.00  0.00    +0.000 A 
ATOM      6  C   UNL     1       6.355   7.342  17.171  0.00  0.00    +0.000 A 
ENDROOT
BRANCH   1   9
ATOM      7  C   UNL     1       8.774   9.807  18.503  0.00  0.00    +0.000 C 
ATOM      8  O   UNL     1       9.264   9.366  19.538  0.00  0.00    +0.000 OA
ATOM      9  N   UNL     1       7.922   9.125  17.648  0.00  0.00    +0.000 N 
ATOM     10  H   UNL     1       7.746   9.526  16.736  0.00  0.00    +0.000 HD
BRANCH   7  15
ATOM     11  C   UNL     1      10.676  15.126  17.234  0.00  0.00    +0.000 C 
ATOM     12  C   UNL     1      10.146  13.754  17.518  0.00  0.00    +0.000 A 
ATOM     13  C   UNL     1       8.778  13.455  17.414  0.00  0.00    +0.000 A 
ATOM     14  C   UNL     1       8.304  12.166  17.703  0.00  0.00    +0.000 A 
ATOM     15  C   UNL     1       9.204  11.170  18.099  0.00  0.00    +0.000 A 
ATOM     16  C   UNL     1      10.565  11.470  18.203  0.00  0.00    +0.000 A 
ATOM     17  C   UNL     1      11.024  12.745  17.910  0.00  0.00    +0.000 A 
ATOM     18  F   UNL     1      12.332  13.008  18.023  0.00  0.00    +0.000 F 
ENDBRANCH   7  15
ENDBRANCH   1   9
BRANCH   5  19
ATOM     19  C   UNL     1       4.793   5.490  16.414  0.00  0.00    +0.000 C 
BRANCH  19  20
ATOM     20  C   UNL     1       3.859   4.577  17.199  0.00  0.00    +0.000 A 
ATOM     21  N   UNL     1       3.869   3.317  16.872  0.00  0.00    +0.000 NA
ATOM     22  N   UNL     1       3.032   2.488  17.547  0.00  0.00    +0.000 N 
ATOM     23  C   UNL     1       2.159   2.855  18.533  0.00  0.00    +0.000 A 
ATOM     24  O   UNL     1       1.381   2.061  19.051  0.00  0.00    +0.000 OA
ATOM     25  C   UNL     1       2.220   4.277  18.954  0.00  0.00    +0.000 A 
ATOM     26  C   UNL     1       3.021   5.140  18.304  0.00  0.00    +0.000 A 
ATOM     27  C   UNL     1       3.095   6.597  18.675  0.00  0.00    +0.000 C 
ATOM     28  C   UNL     1       1.982   7.040  19.631  0.00  0.00    +0.000 C 
ATOM     29  C   UNL     1       1.774   6.011  20.733  0.00  0.00    +0.000 C 
ATOM     30  C   UNL     1       1.366   4.665  20.131  0.00  0.00    +0.000 C 
ATOM     31  H   UNL     1       3.005   1.521  17.241  0.00  0.00    +0.000 HD
ENDBRANCH  19  20
ENDBRANCH   5  19
TORSDOF 4
ENDMDL
MODEL 5
REMARK VINA RESULT:      -9.1      0.964      1.313
REMARK  Name = 
REMARK  5 active torsions:
REMARK  status: ('A' for Active; 'I' for Inactive)
REMARK    1  A    between atoms: C_1  and  C_2
REMARK    2  A    between atoms: C_5  and  C_6
REMARK    3  A    between atoms: N_8  and  C_9
REMARK    4  A    between atoms: C_13  and  C_14
REMARK    5  A    between atoms: C_14  and  C_15
REMARK                            x       y       z     vdW  Elec       q    Type
REMARK                         _______ _______ _______ _____ _____    ______ ____
ROOT
ATOM      1  C   UNL     1       1.796   5.054  20.571  0.00  0.00    +0.000 A 
ATOM      2  C   UNL     1       0.964   3.940  20.709  0.00  0.00    +0.000 A 
ATOM      3  C   UNL     1       1.411   2.665  20.370  0.00  0.00    +0.000 A 
ATOM      4  C   UNL     1       2.711   2.479  19.906  0.00  0.00    +0.000 A 
ATOM      5  C   UNL     1       3.568   3.577  19.767  0.00  0.00    +0.000 A 
ATOM      6  C   UNL     1       3.086   4.870  20.060  0.00  0.00    +0.000 A 
ENDROOT
BRANCH   1   9
ATOM      7  C   UNL     1       1.617   7.497  20.192  0.00  0.00    +0.000 C 
ATOM      8  O   UNL     1       2.180   7.539  19.102  0.00  0.00    +0.000 OA
ATOM      9  N   UNL     1       1.402   6.361  20.956  0.00  0.00    +0.000 N 
ATOM     10  H   UNL     1       0.760   6.428  21.736  0.00  0.00    +0.000 HD
BRANCH   7  15
ATOM     11  C   UNL     1      -0.317  12.662  21.951  0.00  0.00    +0.000 C 
ATOM     12  C   UNL     1       0.142  11.301  21.530  0.00  0.00    +0.000 A 
ATOM     13  C   UNL     1       0.197  10.228  22.434  0.00  0.00    +0.000 A 
ATOM     14  C   UNL     1       0.650   8.965  22.017  0.00  0.00    +0.000 A 
ATOM     15  C   UNL     1       1.049   8.776  20.690  0.00  0.00    +0.000 A 
ATOM     16  C   UNL     1       0.994   9.845  19.792  0.00  0.00    +0.000 A 
ATOM     17  C   UNL     1       0.541  11.087  20.212  0.00  0.00    +0.000 A 
ATOM     18  F   UNL     1       0.504  12.097  19.333  0.00  0.00    +0.000 F 
ENDBRANCH   7  15
ENDBRANCH   1   9
BRANCH   5  19
ATOM     19  C   UNL     1       5.002   3.370  19.334  0.00  0.00    +0.000 C 
BRANCH  19  20
ATOM     20  C   UNL     1       5.333   4.074  18.024  0.00  0.00    +0.000 A 
ATOM     21  N   UNL     1       4.682   3.675  16.970  0.00  0.00    +0.000 NA
ATOM     22  N   UNL     1       4.973   4.277  15.789  0.00  0.00    +0.000 N 
ATOM     23  C   UNL     1       5.906   5.258  15.595  0.00  0.00    +0.000 A 
ATOM     24  O   UNL     1       6.165   5.707  14.483  0.00  0.00    +0.000 OA
ATOM     25  C   UNL     1       6.579   5.761  16.818  0.00  0.00    +0.000 A 
ATOM     26  C   UNL     1       6.335   5.185  18.008  0.00  0.00    +0.000 A 
ATOM     27  C   UNL     1       7.015   5.642  19.272  0.00  0.00    +0.000 C 
ATOM     28  C   UNL     1       8.193   6.590  19.021  0.00  0.00    +0.000 C 
ATOM     29  C   UNL     1       7.840   7.624  17.962  0.00  0.00    +0.000 C 
ATOM     30  C   UNL     1       7.505   6.935  16.638  0.00  0.00    +0.000 C 
ATOM     31  H   UNL     1       4.503   3.915  14.965  0.00  0.00    +0.000 HD
ENDBRANCH  19  20
ENDBRANCH   5  19
TORSDOF 4
ENDMDL
MODEL 6
REMARK VINA RESULT:      -9.1      4.931      8.011
REMARK  Name = 
REMARK  5 active torsions:
REMARK  status: ('A' for Active; 'I' for Inactive)
REMARK    1  A    between atoms: C_1  and  C_2
REMARK    2  A    between atoms: C_5  and  C_6
REMARK    3  A    between atoms: N_8  and  C_9
REMARK    4  A    between atoms: C_13  and  C_14
REMARK    5  A    between atoms: C_14  and  C_15
REMARK                            x       y       z     vdW  Elec       q    Type
REMARK                         _______ _______ _______ _____ _____    ______ ____
ROOT
ATOM      1  C   UNL     1       7.900   8.439  17.977  0.00  0.00    +0.000 A 
ATOM      2  C   UNL     1       8.584   7.526  18.784  0.00  0.00    +0.000 A 
ATOM      3  C   UNL     1       8.110   6.228  18.959  0.00  0.00    +0.000 A 
ATOM      4  C   UNL     1       6.951   5.812  18.310  0.00  0.00    +0.000 A 
ATOM      5  C   UNL     1       6.251   6.704  17.488  0.00  0.00    +0.000 A 
ATOM      6  C   UNL     1       6.710   8.032  17.363  0.00  0.00    +0.000 A 
ENDROOT
BRANCH   1   9
ATOM      7  C   UNL     1       8.954  10.568  18.686  0.00  0.00    +0.000 C 
ATOM      8  O   UNL     1       9.123  10.286  19.868  0.00  0.00    +0.000 OA
ATOM      9  N   UNL     1       8.375   9.751  17.726  0.00  0.00    +0.000 N 
ATOM     10  H   UNL     1       8.471  10.020  16.755  0.00  0.00    +0.000 HD
BRANCH   7  15
ATOM     11  C   UNL     1      11.416  15.531  17.008  0.00  0.00    +0.000 C 
ATOM     12  C   UNL     1      10.726  14.273  17.435  0.00  0.00    +0.000 A 
ATOM     13  C   UNL     1       9.580  14.298  18.245  0.00  0.00    +0.000 A 
ATOM     14  C   UNL     1       8.963  13.102  18.648  0.00  0.00    +0.000 A 
ATOM     15  C   UNL     1       9.496  11.876  18.236  0.00  0.00    +0.000 A 
ATOM     16  C   UNL     1      10.637  11.853  17.431  0.00  0.00    +0.000 A 
ATOM     17  C   UNL     1      11.237  13.039  17.035  0.00  0.00    +0.000 A 
ATOM     18  F   UNL     1      12.333  12.990  16.268  0.00  0.00    +0.000 F 
ENDBRANCH   7  15
ENDBRANCH   1   9
BRANCH   5  19
ATOM     19  C   UNL     1       5.034   6.235  16.723  0.00  0.00    +0.000 C 
BRANCH  19  20
ATOM     20  C   UNL     1       4.472   4.921  17.252  0.00  0.00    +0.000 A 
ATOM     21  N   UNL     1       4.898   3.834  16.677  0.00  0.00    +0.000 NA
ATOM     22  N   UNL     1       4.398   2.653  17.122  0.00  0.00    +0.000 N 
ATOM     23  C   UNL     1       3.467   2.496  18.112  0.00  0.00    +0.000 A 
ATOM     24  O   UNL     1       3.008   1.399  18.413  0.00  0.00    +0.000 OA
ATOM     25  C   UNL     1       3.054   3.736  18.814  0.00  0.00    +0.000 A 
ATOM     26  C   UNL     1       3.510   4.932  18.399  0.00  0.00    +0.000 A 
ATOM     27  C   UNL     1       3.098   6.219  19.061  0.00  0.00    +0.000 C 
ATOM     28  C   UNL     1       1.916   6.058  20.023  0.00  0.00    +0.000 C 
ATOM     29  C   UNL     1       2.081   4.811  20.880  0.00  0.00    +0.000 C 
ATOM     30  C   UNL     1       2.138   3.564  19.996  0.00  0.00    +0.000 C 
ATOM     31  H   UNL     1       4.690   1.818  16.625  0.00  0.00    +0.000 HD
ENDBRANCH  19  20
ENDBRANCH   5  19
TORSDOF 4
ENDMDL
MODEL 7
REMARK VINA RESULT:      -8.9      4.483      8.021
REMARK  Name = 
REMARK  5 active torsions:
REMARK  status: ('A' for Active; 'I' for Inactive)
REMARK    1  A    between atoms: C_1  and  C_2
REMARK    2  A    between atoms: C_5  and  C_6
REMARK    3  A    between atoms: N_8  and  C_9
REMARK    4  A    between atoms: C_13  and  C_14
REMARK    5  A    between atoms: C_14  and  C_15
REMARK                            x       y       z     vdW  Elec       q    Type
REMARK                         _______ _______ _______ _____ _____    ______ ____
ROOT
ATOM      1  C   UNL     1       7.847   8.228  17.999  0.00  0.00    +0.000 A 
ATOM      2  C   UNL     1       8.512   7.215  18.695  0.00  0.00    +0.000 A 
ATOM      3  C   UNL     1       7.929   5.962  18.868  0.00  0.00    +0.000 A 
ATOM      4  C   UNL     1       6.674   5.692  18.328  0.00  0.00    +0.000 A 
ATOM      5  C   UNL     1       5.990   6.686  17.618  0.00  0.00    +0.000 A 
ATOM      6  C   UNL     1       6.566   7.968  17.498  0.00  0.00    +0.000 A 
ENDROOT
BRANCH   1   9
ATOM      7  C   UNL     1       9.011  10.293  18.724  0.00  0.00    +0.000 C 
ATOM      8  O   UNL     1       9.101  10.024  19.918  0.00  0.00    +0.000 OA
ATOM      9  N   UNL     1       8.424   9.499  17.750  0.00  0.00    +0.000 N 
ATOM     10  H   UNL     1       8.587   9.740  16.781  0.00  0.00    +0.000 HD
BRANCH   7  15
ATOM     11  C   UNL     1      11.231  15.292  16.827  0.00  0.00    +0.000 C 
ATOM     12  C   UNL     1      10.711  13.983  17.337  0.00  0.00    +0.000 A 
ATOM     13  C   UNL     1      11.456  12.799  17.229  0.00  0.00    +0.000 A 
ATOM     14  C   UNL     1      10.937  11.582  17.698  0.00  0.00    +0.000 A 
ATOM     15  C   UNL     1       9.665  11.550  18.280  0.00  0.00    +0.000 A 
ATOM     16  C   UNL     1       8.924  12.730  18.387  0.00  0.00    +0.000 A 
ATOM     17  C   UNL     1       9.447  13.928  17.924  0.00  0.00    +0.000 A 
ATOM     18  F   UNL     1       8.714  15.043  18.033  0.00  0.00    +0.000 F 
ENDBRANCH   7  15
ENDBRANCH   1   9
BRANCH   5  19
ATOM     19  C   UNL     1       4.662   6.375  16.967  0.00  0.00    +0.000 C 
BRANCH  19  20
ATOM     20  C   UNL     1       3.597   5.946  17.969  0.00  0.00    +0.000 A 
ATOM     21  N   UNL     1       3.024   6.896  18.650  0.00  0.00    +0.000 NA
ATOM     22  N   UNL     1       2.083   6.535  19.560  0.00  0.00    +0.000 N 
ATOM     23  C   UNL     1       1.689   5.257  19.845  0.00  0.00    +0.000 A 
ATOM     24  O   UNL     1       0.882   5.002  20.733  0.00  0.00    +0.000 OA
ATOM     25  C   UNL     1       2.288   4.192  19.002  0.00  0.00    +0.000 A 
ATOM     26  C   UNL     1       3.236   4.499  18.099  0.00  0.00    +0.000 A 
ATOM     27  C   UNL     1       3.893   3.450  17.241  0.00  0.00    +0.000 C 
ATOM     28  C   UNL     1       3.600   2.018  17.699  0.00  0.00    +0.000 C 
ATOM     29  C   UNL     1       2.131   1.855  18.063  0.00  0.00    +0.000 C 
ATOM     30  C   UNL     1       1.761   2.798  19.210  0.00  0.00    +0.000 C 
ATOM     31  H   UNL     1       1.690   7.279  20.127  0.00  0.00    +0.000 HD
ENDBRANCH  19  20
ENDBRANCH   5  19
TORSDOF 4
ENDMDL
MODEL 8
REMARK VINA RESULT:      -8.9      4.326      9.538
REMARK  Name = 
REMARK  5 active torsions:
REMARK  status: ('A' for Active; 'I' for Inactive)
REMARK    1  A    between atoms: C_1  and  C_2
REMARK    2  A    between atoms: C_5  and  C_6
REMARK    3  A    between atoms: N_8  and  C_9
REMARK    4  A    between atoms: C_13  and  C_14
REMARK    5  A    between atoms: C_14  and  C_15
REMARK                            x       y       z     vdW  Elec       q    Type
REMARK                         _______ _______ _______ _____ _____    ______ ____
ROOT
ATOM      1  C   UNL     1       1.331   8.664  20.133  0.00  0.00    +0.000 A 
ATOM      2  C   UNL     1       0.800   8.216  21.345  0.00  0.00    +0.000 A 
ATOM      3  C   UNL     1      -0.083   9.007  22.078  0.00  0.00    +0.000 A 
ATOM      4  C   UNL     1      -0.468  10.256  21.598  0.00  0.00    +0.000 A 
ATOM      5  C   UNL     1       0.043  10.725  20.381  0.00  0.00    +0.000 A 
ATOM      6  C   UNL     1       0.979   9.940  19.677  0.00  0.00    +0.000 A 
ENDROOT
BRANCH   1   9
ATOM      7  C   UNL     1       2.375   6.508  19.497  0.00  0.00    +0.000 C 
ATOM      8  O   UNL     1       1.849   5.807  20.356  0.00  0.00    +0.000 OA
ATOM      9  N   UNL     1       2.188   7.872  19.329  0.00  0.00    +0.000 N 
ATOM     10  H   UNL     1       2.522   8.294  18.471  0.00  0.00    +0.000 HD
BRANCH   7  15
ATOM     11  C   UNL     1       5.593   4.039  15.366  0.00  0.00    +0.000 C 
ATOM     12  C   UNL     1       4.772   4.631  16.470  0.00  0.00    +0.000 A 
ATOM     13  C   UNL     1       3.959   3.837  17.293  0.00  0.00    +0.000 A 
ATOM     14  C   UNL     1       3.184   4.420  18.309  0.00  0.00    +0.000 A 
ATOM     15  C   UNL     1       3.225   5.805  18.502  0.00  0.00    +0.000 A 
ATOM     16  C   UNL     1       4.035   6.594  17.681  0.00  0.00    +0.000 A 
ATOM     17  C   UNL     1       4.800   6.008  16.683  0.00  0.00    +0.000 A 
ATOM     18  F   UNL     1       5.563   6.788  15.906  0.00  0.00    +0.000 F 
ENDBRANCH   7  15
ENDBRANCH   1   9
BRANCH   5  19
ATOM     19  C   UNL     1      -0.429  12.048  19.821  0.00  0.00    +0.000 C 
BRANCH  19  20
ATOM     20  C   UNL     1      -1.942  12.117  19.659  0.00  0.00    +0.000 A 
ATOM     21  N   UNL     1      -2.596  12.756  20.586  0.00  0.00    +0.000 NA
ATOM     22  N   UNL     1      -3.948  12.817  20.470  0.00  0.00    +0.000 N 
ATOM     23  C   UNL     1      -4.696  12.250  19.476  0.00  0.00    +0.000 A 
ATOM     24  O   UNL     1      -5.922  12.286  19.475  0.00  0.00    +0.000 OA
ATOM     25  C   UNL     1      -3.932  11.598  18.383  0.00  0.00    +0.000 A 
ATOM     26  C   UNL     1      -2.593  11.499  18.461  0.00  0.00    +0.000 A 
ATOM     27  C   UNL     1      -1.777  10.822  17.392  0.00  0.00    +0.000 C 
ATOM     28  C   UNL     1      -2.623  10.022  16.396  0.00  0.00    +0.000 C 
ATOM     29  C   UNL     1      -3.864  10.803  15.989  0.00  0.00    +0.000 C 
ATOM     30  C   UNL     1      -4.734  11.093  17.214  0.00  0.00    +0.000 C 
ATOM     31  H   UNL     1      -4.450  13.264  21.230  0.00  0.00    +0.000 HD
ENDBRANCH  19  20
ENDBRANCH   5  19
TORSDOF 4
ENDMDL
MODEL 9
REMARK VINA RESULT:      -8.8      1.669      2.498
REMARK  Name = 
REMARK  5 active torsions:
REMARK  status: ('A' for Active; 'I' for Inactive)
REMARK    1  A    between atoms: C_1  and  C_2
REMARK    2  A    between atoms: C_5  and  C_6
REMARK    3  A    between atoms: N_8  and  C_9
REMARK    4  A    between atoms: C_13  and  C_14
REMARK    5  A    between atoms: C_14  and  C_15
REMARK                            x       y       z     vdW  Elec       q    Type
REMARK                         _______ _______ _______ _____ _____    ______ ____
ROOT
ATOM      1  C   UNL     1       1.877   5.124  20.305  0.00  0.00    +0.000 A 
ATOM      2  C   UNL     1       1.006   4.059  20.063  0.00  0.00    +0.000 A 
ATOM      3  C   UNL     1       1.487   2.821  19.642  0.00  0.00    +0.000 A 
ATOM      4  C   UNL     1       2.855   2.620  19.476  0.00  0.00    +0.000 A 
ATOM      5  C   UNL     1       3.750   3.668  19.721  0.00  0.00    +0.000 A 
ATOM      6  C   UNL     1       3.248   4.932  20.092  0.00  0.00    +0.000 A 
ENDROOT
BRANCH   1   9
ATOM      7  C   UNL     1       1.639   7.585  20.125  0.00  0.00    +0.000 C 
ATOM      8  O   UNL     1       2.224   7.732  19.057  0.00  0.00    +0.000 OA
ATOM      9  N   UNL     1       1.438   6.383  20.787  0.00  0.00    +0.000 N 
ATOM     10  H   UNL     1       0.777   6.368  21.553  0.00  0.00    +0.000 HD
BRANCH   7  15
ATOM     11  C   UNL     1      -0.499  12.535  22.234  0.00  0.00    +0.000 C 
ATOM     12  C   UNL     1       0.016  11.224  21.723  0.00  0.00    +0.000 A 
ATOM     13  C   UNL     1       0.177  10.114  22.567  0.00  0.00    +0.000 A 
ATOM     14  C   UNL     1       0.680   8.903  22.066  0.00  0.00    +0.000 A 
ATOM     15  C   UNL     1       1.023   8.802  20.714  0.00  0.00    +0.000 A 
ATOM     16  C   UNL     1       0.863   9.908  19.875  0.00  0.00    +0.000 A 
ATOM     17  C   UNL     1       0.362  11.100  20.378  0.00  0.00    +0.000 A 
ATOM     18  F   UNL     1       0.224  12.147  19.555  0.00  0.00    +0.000 F 
ENDBRANCH   7  15
ENDBRANCH   1   9
BRANCH   5  19
ATOM     19  C   UNL     1       5.240   3.433  19.613  0.00  0.00    +0.000 C 
BRANCH  19  20
ATOM     20  C   UNL     1       5.962   4.541  18.858  0.00  0.00    +0.000 A 
ATOM     21  N   UNL     1       6.678   5.360  19.572  0.00  0.00    +0.000 NA
ATOM     22  N   UNL     1       7.318   6.365  18.921  0.00  0.00    +0.000 N 
ATOM     23  C   UNL     1       7.266   6.613  17.577  0.00  0.00    +0.000 A 
ATOM     24  O   UNL     1       7.815   7.584  17.067  0.00  0.00    +0.000 OA
ATOM     25  C   UNL     1       6.516   5.623  16.765  0.00  0.00    +0.000 A 
ATOM     26  C   UNL     1       5.852   4.619  17.367  0.00  0.00    +0.000 A 
ATOM     27  C   UNL     1       5.054   3.608  16.588  0.00  0.00    +0.000 C 
ATOM     28  C   UNL     1       4.835   4.002  15.124  0.00  0.00    +0.000 C 
ATOM     29  C   UNL     1       6.115   4.555  14.514  0.00  0.00    +0.000 C 
ATOM     30  C   UNL     1       6.567   5.805  15.271  0.00  0.00    +0.000 C 
ATOM     31  H   UNL     1       7.822   7.032  19.496  0.00  0.00    +0.000 HD
ENDBRANCH  19  20
ENDBRANCH   5  19
TORSDOF 4
ENDMDL
