MODEL 1
REMARK VINA RESULT:      -4.3      0.000      0.000
REMARK  Name = 
REMARK  1 active torsions:
REMARK  status: ('A' for Active; 'I' for Inactive)
REMARK    1  A    between atoms: C_2  and  C_4
REMARK                            x       y       z     vdW  Elec       q    Type
REMARK                         _______ _______ _______ _____ _____    ______ ____
ROOT
ATOM      1  N   UNL     1       7.405   5.337  15.229  0.00  0.00    +0.000 NA
ATOM      2  C   UNL     1       6.982   4.530  16.137  0.00  0.00    +0.000 C 
ATOM      3  N   UNL     1       6.039   3.575  15.917  0.00  0.00    +0.000 N 
ATOM      4  H   UNL     1       6.916   5.158  14.351  0.00  0.00    +0.000 HD
ATOM      5  H   UNL     1       5.909   3.290  14.954  0.00  0.00    +0.000 HD
ATOM      6  H   UNL     1       6.055   2.788  16.560  0.00  0.00    +0.000 HD
ENDROOT
BRANCH   2   7
ATOM      7  C   UNL     1       7.531   4.595  17.616  0.00  0.00    +0.000 C 
ATOM      8  C   UNL     1       7.544   5.950  18.353  0.00  0.00    +0.000 C 
ATOM      9  C   UNL     1       6.184   5.528  18.915  0.00  0.00    +0.000 C 
ATOM     10  N   UNL     1       6.531   4.120  18.623  0.00  0.00    +0.000 NA
ATOM     11  H   UNL     1       5.754   3.600  18.213  0.00  0.00    +0.000 HD
ENDBRANCH   2   7
TORSDOF 1
ENDMDL
MODEL 2
REMARK VINA RESULT:      -4.3      0.067      1.247
REMARK  Name = 
REMARK  1 active torsions:
REMARK  status: ('A' for Active; 'I' for Inactive)
REMARK    1  A    between atoms: C_2  and  C_4
REMARK                            x       y       z     vdW  Elec       q    Type
REMARK                         _______ _______ _______ _____ _____    ______ ____
ROOT
ATOM      1  N   UNL     1       6.084   3.620  15.822  0.00  0.00    +0.000 NA
ATOM      2  C   UNL     1       6.955   4.507  16.155  0.00  0.00    +0.000 C 
ATOM      3  N   UNL     1       7.466   5.422  15.290  0.00  0.00    +0.000 N 
ATOM      4  H   UNL     1       5.866   3.705  14.828  0.00  0.00    +0.000 HD
ATOM      5  H   UNL     1       6.916   5.609  14.460  0.00  0.00    +0.000 HD
ATOM      6  H   UNL     1       7.834   6.269  15.716  0.00  0.00    +0.000 HD
ENDROOT
BRANCH   2   7
ATOM      7  C   UNL     1       7.517   4.594  17.628  0.00  0.00    +0.000 C 
ATOM      8  C   UNL     1       7.527   5.958  18.347  0.00  0.00    +0.000 C 
ATOM      9  C   UNL     1       6.174   5.535  18.926  0.00  0.00    +0.000 C 
ATOM     10  N   UNL     1       6.529   4.126  18.650  0.00  0.00    +0.000 NA
ATOM     11  H   UNL     1       5.752   3.595  18.253  0.00  0.00    +0.000 HD
ENDBRANCH   2   7
TORSDOF 1
ENDMDL
MODEL 3
REMARK VINA RESULT:      -4.2      1.637      2.348
REMARK  Name = 
REMARK  1 active torsions:
REMARK  status: ('A' for Active; 'I' for Inactive)
REMARK    1  A    between atoms: C_2  and  C_4
REMARK                            x       y       z     vdW  Elec       q    Type
REMARK                         _______ _______ _______ _____ _____    ______ ____
ROOT
ATOM      1  N   UNL     1       8.163   4.112  17.615  0.00  0.00    +0.000 NA
ATOM      2  C   UNL     1       7.273   5.025  17.441  0.00  0.00    +0.000 C 
ATOM      3  N   UNL     1       7.351   5.978  16.474  0.00  0.00    +0.000 N 
ATOM      4  H   UNL     1       8.920   4.234  16.942  0.00  0.00    +0.000 HD
ATOM      5  H   UNL     1       7.952   5.768  15.687  0.00  0.00    +0.000 HD
ATOM      6  H   UNL     1       6.465   6.389  16.192  0.00  0.00    +0.000 HD
ENDROOT
BRANCH   2   7
ATOM      7  C   UNL     1       5.996   5.115  18.364  0.00  0.00    +0.000 C 
ATOM      8  C   UNL     1       4.609   5.285  17.713  0.00  0.00    +0.000 C 
ATOM      9  C   UNL     1       4.511   3.759  17.789  0.00  0.00    +0.000 C 
ATOM     10  N   UNL     1       5.541   3.774  18.850  0.00  0.00    +0.000 NA
ATOM     11  H   UNL     1       6.239   3.039  18.732  0.00  0.00    +0.000 HD
ENDBRANCH   2   7
TORSDOF 1
ENDMDL
MODEL 4
REMARK VINA RESULT:      -4.1      1.880      3.391
REMARK  Name = 
REMARK  1 active torsions:
REMARK  status: ('A' for Active; 'I' for Inactive)
REMARK    1  A    between atoms: C_2  and  C_4
REMARK                            x       y       z     vdW  Elec       q    Type
REMARK                         _______ _______ _______ _____ _____    ______ ____
ROOT
ATOM      1  N   UNL     1       8.122   5.322  20.445  0.00  0.00    +0.000 NA
ATOM      2  C   UNL     1       7.767   5.973  19.394  0.00  0.00    +0.000 C 
ATOM      3  N   UNL     1       8.399   7.093  18.951  0.00  0.00    +0.000 N 
ATOM      4  H   UNL     1       8.919   5.785  20.886  0.00  0.00    +0.000 HD
ATOM      5  H   UNL     1       9.350   7.225  19.273  0.00  0.00    +0.000 HD
ATOM      6  H   UNL     1       8.287   7.296  17.962  0.00  0.00    +0.000 HD
ENDROOT
BRANCH   2   7
ATOM      7  C   UNL     1       6.533   5.515  18.522  0.00  0.00    +0.000 C 
ATOM      8  C   UNL     1       6.477   5.915  17.034  0.00  0.00    +0.000 C 
ATOM      9  C   UNL     1       7.128   4.557  16.760  0.00  0.00    +0.000 C 
ATOM     10  N   UNL     1       6.641   4.090  18.076  0.00  0.00    +0.000 NA
ATOM     11  H   UNL     1       7.343   3.554  18.588  0.00  0.00    +0.000 HD
ENDBRANCH   2   7
TORSDOF 1
ENDMDL
MODEL 5
REMARK VINA RESULT:      -4.0      4.963      5.812
REMARK  Name = 
REMARK  1 active torsions:
REMARK  status: ('A' for Active; 'I' for Inactive)
REMARK    1  A    between atoms: C_2  and  C_4
REMARK                            x       y       z     vdW  Elec       q    Type
REMARK                         _______ _______ _______ _____ _____    ______ ____
ROOT
ATOM      1  N   UNL     1       4.865   1.882  19.909  0.00  0.00    +0.000 NA
ATOM      2  C   UNL     1       3.650   2.194  19.625  0.00  0.00    +0.000 C 
ATOM      3  N   UNL     1       2.938   1.615  18.621  0.00  0.00    +0.000 N 
ATOM      4  H   UNL     1       5.199   1.165  19.263  0.00  0.00    +0.000 HD
ATOM      5  H   UNL     1       3.264   0.708  18.308  0.00  0.00    +0.000 HD
ATOM      6  H   UNL     1       1.928   1.656  18.721  0.00  0.00    +0.000 HD
ENDROOT
BRANCH   2   7
ATOM      7  C   UNL     1       2.877   3.308  20.433  0.00  0.00    +0.000 C 
ATOM      8  C   UNL     1       1.341   3.387  20.320  0.00  0.00    +0.000 C 
ATOM      9  C   UNL     1       1.316   2.510  21.574  0.00  0.00    +0.000 C 
ATOM     10  N   UNL     1       2.695   2.950  21.876  0.00  0.00    +0.000 NA
ATOM     11  H   UNL     1       3.294   2.184  22.185  0.00  0.00    +0.000 HD
ENDBRANCH   2   7
TORSDOF 1
ENDMDL
MODEL 6
REMARK VINA RESULT:      -4.0      3.609      4.329
REMARK  Name = 
REMARK  1 active torsions:
REMARK  status: ('A' for Active; 'I' for Inactive)
REMARK    1  A    between atoms: C_2  and  C_4
REMARK                            x       y       z     vdW  Elec       q    Type
REMARK                         _______ _______ _______ _____ _____    ______ ____
ROOT
ATOM      1  N   UNL     1       2.038   1.858  18.164  0.00  0.00    +0.000 NA
ATOM      2  C   UNL     1       3.323   1.847  18.118  0.00  0.00    +0.000 C 
ATOM      3  N   UNL     1       4.078   0.749  18.389  0.00  0.00    +0.000 N 
ATOM      4  H   UNL     1       1.694   0.940  18.448  0.00  0.00    +0.000 HD
ATOM      5  H   UNL     1       3.609  -0.145  18.312  0.00  0.00    +0.000 HD
ATOM      6  H   UNL     1       5.006   0.742  17.976  0.00  0.00    +0.000 HD
ENDROOT
BRANCH   2   7
ATOM      7  C   UNL     1       4.144   3.143  17.743  0.00  0.00    +0.000 C 
ATOM      8  C   UNL     1       3.516   4.528  18.000  0.00  0.00    +0.000 C 
ATOM      9  C   UNL     1       4.257   4.490  19.339  0.00  0.00    +0.000 C 
ATOM     10  N   UNL     1       5.180   3.485  18.769  0.00  0.00    +0.000 NA
ATOM     11  H   UNL     1       5.380   2.722  19.417  0.00  0.00    +0.000 HD
ENDBRANCH   2   7
TORSDOF 1
ENDMDL
MODEL 7
REMARK VINA RESULT:      -4.0      3.907      4.968
REMARK  Name = 
REMARK  1 active torsions:
REMARK  status: ('A' for Active; 'I' for Inactive)
REMARK    1  A    between atoms: C_2  and  C_4
REMARK                            x       y       z     vdW  Elec       q    Type
REMARK                         _______ _______ _______ _____ _____    ______ ____
ROOT
ATOM      1  N   UNL     1       5.375   3.665  19.137  0.00  0.00    +0.000 NA
ATOM      2  C   UNL     1       4.612   2.746  19.613  0.00  0.00    +0.000 C 
ATOM      3  N   UNL     1       5.075   1.632  20.240  0.00  0.00    +0.000 N 
ATOM      4  H   UNL     1       6.354   3.415  19.287  0.00  0.00    +0.000 HD
ATOM      5  H   UNL     1       6.014   1.689  20.617  0.00  0.00    +0.000 HD
ATOM      6  H   UNL     1       4.423   1.186  20.880  0.00  0.00    +0.000 HD
ENDROOT
BRANCH   2   7
ATOM      7  C   UNL     1       3.041   2.839  19.494  0.00  0.00    +0.000 C 
ATOM      8  C   UNL     1       2.422   3.740  18.407  0.00  0.00    +0.000 C 
ATOM      9  C   UNL     1       2.377   2.476  17.545  0.00  0.00    +0.000 C 
ATOM     10  N   UNL     1       2.447   1.665  18.779  0.00  0.00    +0.000 NA
ATOM     11  H   UNL     1       3.086   0.873  18.694  0.00  0.00    +0.000 HD
ENDBRANCH   2   7
TORSDOF 1
ENDMDL
MODEL 8
REMARK VINA RESULT:      -4.0      3.669      4.372
REMARK  Name = 
REMARK  1 active torsions:
REMARK  status: ('A' for Active; 'I' for Inactive)
REMARK    1  A    between atoms: C_2  and  C_4
REMARK                            x       y       z     vdW  Elec       q    Type
REMARK                         _______ _______ _______ _____ _____    ______ ____
ROOT
ATOM      1  N   UNL     1       4.051   0.790  18.400  0.00  0.00    +0.000 NA
ATOM      2  C   UNL     1       3.310   1.808  18.133  0.00  0.00    +0.000 C 
ATOM      3  N   UNL     1       1.957   1.810  18.262  0.00  0.00    +0.000 N 
ATOM      4  H   UNL     1       3.468   0.006  18.695  0.00  0.00    +0.000 HD
ATOM      5  H   UNL     1       1.566   1.108  18.879  0.00  0.00    +0.000 HD
ATOM      6  H   UNL     1       1.530   2.724  18.388  0.00  0.00    +0.000 HD
ENDROOT
BRANCH   2   7
ATOM      7  C   UNL     1       3.932   3.163  17.613  0.00  0.00    +0.000 C 
ATOM      8  C   UNL     1       3.318   4.498  18.080  0.00  0.00    +0.000 C 
ATOM      9  C   UNL     1       4.384   4.473  19.179  0.00  0.00    +0.000 C 
ATOM     10  N   UNL     1       5.179   3.544  18.348  0.00  0.00    +0.000 NA
ATOM     11  H   UNL     1       5.583   2.778  18.890  0.00  0.00    +0.000 HD
ENDBRANCH   2   7
TORSDOF 1
ENDMDL
MODEL 9
REMARK VINA RESULT:      -3.9      4.776      5.604
REMARK  Name = 
REMARK  1 active torsions:
REMARK  status: ('A' for Active; 'I' for Inactive)
REMARK    1  A    between atoms: C_2  and  C_4
REMARK                            x       y       z     vdW  Elec       q    Type
REMARK                         _______ _______ _______ _____ _____    ______ ____
ROOT
ATOM      1  N   UNL     1       3.828   0.945  18.345  0.00  0.00    +0.000 NA
ATOM      2  C   UNL     1       3.922   1.941  19.154  0.00  0.00    +0.000 C 
ATOM      3  N   UNL     1       4.990   2.151  19.969  0.00  0.00    +0.000 N 
ATOM      4  H   UNL     1       4.652   0.349  18.432  0.00  0.00    +0.000 HD
ATOM      5  H   UNL     1       5.853   1.695  19.701  0.00  0.00    +0.000 HD
ATOM      6  H   UNL     1       5.130   3.113  20.268  0.00  0.00    +0.000 HD
ENDROOT
BRANCH   2   7
ATOM      7  C   UNL     1       2.773   3.017  19.270  0.00  0.00    +0.000 C 
ATOM      8  C   UNL     1       1.308   2.544  19.362  0.00  0.00    +0.000 C 
ATOM      9  C   UNL     1       1.494   2.631  20.879  0.00  0.00    +0.000 C 
ATOM     10  N   UNL     1       2.627   3.556  20.659  0.00  0.00    +0.000 NA
ATOM     11  H   UNL     1       3.425   3.351  21.262  0.00  0.00    +0.000 HD
ENDBRANCH   2   7
TORSDOF 1
ENDMDL
