MODEL 1
REMARK VINA RESULT:      -5.6      0.000      0.000
REMARK  Name = 
REMARK  9 active torsions:
REMARK  status: ('A' for Active; 'I' for Inactive)
REMARK    1  A    between atoms: C_1  and  O_2
REMARK    2  A    between atoms: O_2  and  C_3
REMARK    3  A    between atoms: C_3  and  C_4
REMARK    4  A    between atoms: C_4  and  N_5
REMARK    5  A    between atoms: N_5  and  C_6
REMARK    6  A    between atoms: C_6  and  C_7
REMARK    7  A    between atoms: C_7  and  C_8
REMARK    8  A    between atoms: C_8  and  O_9
REMARK    9  A    between atoms: O_9  and  C_10
REMARK                            x       y       z     vdW  Elec       q    Type
REMARK                         _______ _______ _______ _____ _____    ______ ____
ROOT
ATOM      1  C   UNL     1       6.380   5.413  19.357  0.00  0.00    +0.000 C 
ENDROOT
BRANCH   1   2
ATOM      2  C   UNL     1       7.711   5.880  18.766  0.00  0.00    +0.000 C 
BRANCH   2   3
ATOM      3  C   UNL     1       7.490   5.985  17.258  0.00  0.00    +0.000 C 
BRANCH   3   4
ATOM      4  N   UNL     1       7.565   4.717  16.540  0.00  0.00    +0.000 NA
ATOM      5  H   UNL     1       8.549   4.454  16.439  0.00  0.00    +0.000 HD
BRANCH   4   6
ATOM      6  C   UNL     1       7.023   4.880  15.171  0.00  0.00    +0.000 C 
BRANCH   6   7
ATOM      7  C   UNL     1       5.490   4.758  15.082  0.00  0.00    +0.000 C 
BRANCH   7   9
ATOM      8  C   UNL     1       6.317   3.707  13.132  0.00  0.00    +0.000 C 
ATOM      9  O   UNL     1       5.163   4.165  13.823  0.00  0.00    +0.000 OA
ENDBRANCH   7   9
ENDBRANCH   6   7
ENDBRANCH   4   6
ENDBRANCH   3   4
ENDBRANCH   2   3
ENDBRANCH   1   2
BRANCH   1  10
ATOM     10  O   UNL     1       5.268   5.843  18.581  0.00  0.00    +0.000 OA
BRANCH  10  11
ATOM     11  C   UNL     1       4.208   4.965  18.572  0.00  0.00    +0.000 A 
ATOM     12  C   UNL     1       4.346   3.578  18.747  0.00  0.00    +0.000 A 
ATOM     13  C   UNL     1       3.226   2.744  18.768  0.00  0.00    +0.000 A 
ATOM     14  C   UNL     1       1.956   3.289  18.622  0.00  0.00    +0.000 A 
ATOM     15 CL   UNL     1       0.582   2.257  18.667  0.00  0.00    +0.000 Cl
ATOM     16  C   UNL     1       1.795   4.662  18.447  0.00  0.00    +0.000 A 
ATOM     17  C   UNL     1       2.918   5.495  18.425  0.00  0.00    +0.000 A 
ATOM     18 BR   UNL     1       2.637   7.355  18.159  0.00  0.00    +0.000 Br
ENDBRANCH  10  11
ENDBRANCH   1  10
TORSDOF 8
ENDMDL
MODEL 2
REMARK VINA RESULT:      -5.5      1.698      3.227
REMARK  Name = 
REMARK  9 active torsions:
REMARK  status: ('A' for Active; 'I' for Inactive)
REMARK    1  A    between atoms: C_1  and  O_2
REMARK    2  A    between atoms: O_2  and  C_3
REMARK    3  A    between atoms: C_3  and  C_4
REMARK    4  A    between atoms: C_4  and  N_5
REMARK    5  A    between atoms: N_5  and  C_6
REMARK    6  A    between atoms: C_6  and  C_7
REMARK    7  A    between atoms: C_7  and  C_8
REMARK    8  A    between atoms: C_8  and  O_9
REMARK    9  A    between atoms: O_9  and  C_10
REMARK                            x       y       z     vdW  Elec       q    Type
REMARK                         _______ _______ _______ _____ _____    ______ ____
ROOT
ATOM      1  C   UNL     1       5.110   3.711  16.048  0.00  0.00    +0.000 C 
ENDROOT
BRANCH   1   2
ATOM      2  C   UNL     1       6.151   4.267  15.076  0.00  0.00    +0.000 C 
BRANCH   2   3
ATOM      3  C   UNL     1       7.064   5.170  15.904  0.00  0.00    +0.000 C 
BRANCH   3   4
ATOM      4  N   UNL     1       7.876   4.473  16.895  0.00  0.00    +0.000 NA
ATOM      5  H   UNL     1       7.597   3.487  16.914  0.00  0.00    +0.000 HD
BRANCH   4   6
ATOM      6  C   UNL     1       7.604   5.019  18.245  0.00  0.00    +0.000 C 
BRANCH   6   7
ATOM      7  C   UNL     1       7.101   6.475  18.245  0.00  0.00    +0.000 C 
BRANCH   7   9
ATOM      8  C   UNL     1       8.022   8.616  17.848  0.00  0.00    +0.000 C 
ATOM      9  O   UNL     1       8.228   7.335  18.427  0.00  0.00    +0.000 OA
ENDBRANCH   7   9
ENDBRANCH   6   7
ENDBRANCH   4   6
ENDBRANCH   3   4
ENDBRANCH   2   3
ENDBRANCH   1   2
BRANCH   1  10
ATOM     10  O   UNL     1       4.512   4.733  16.837  0.00  0.00    +0.000 OA
BRANCH  10  11
ATOM     11  C   UNL     1       3.853   4.275  17.955  0.00  0.00    +0.000 A 
ATOM     12  C   UNL     1       3.908   2.944  18.399  0.00  0.00    +0.000 A 
ATOM     13  C   UNL     1       3.248   2.549  19.565  0.00  0.00    +0.000 A 
ATOM     14  C   UNL     1       2.533   3.485  20.303  0.00  0.00    +0.000 A 
ATOM     15 CL   UNL     1       1.738   2.995  21.748  0.00  0.00    +0.000 Cl
ATOM     16  C   UNL     1       2.464   4.811  19.882  0.00  0.00    +0.000 A 
ATOM     17  C   UNL     1       3.124   5.203  18.714  0.00  0.00    +0.000 A 
ATOM     18 BR   UNL     1       2.974   7.019  18.177  0.00  0.00    +0.000 Br
ENDBRANCH  10  11
ENDBRANCH   1  10
TORSDOF 8
ENDMDL
MODEL 3
REMARK VINA RESULT:      -5.4      1.332      1.373
REMARK  Name = 
REMARK  9 active torsions:
REMARK  status: ('A' for Active; 'I' for Inactive)
REMARK    1  A    between atoms: C_1  and  O_2
REMARK    2  A    between atoms: O_2  and  C_3
REMARK    3  A    between atoms: C_3  and  C_4
REMARK    4  A    between atoms: C_4  and  N_5
REMARK    5  A    between atoms: N_5  and  C_6
REMARK    6  A    between atoms: C_6  and  C_7
REMARK    7  A    between atoms: C_7  and  C_8
REMARK    8  A    between atoms: C_8  and  O_9
REMARK    9  A    between atoms: O_9  and  C_10
REMARK                            x       y       z     vdW  Elec       q    Type
REMARK                         _______ _______ _______ _____ _____    ______ ____
ROOT
ATOM      1  C   UNL     1       6.095   5.924  18.146  0.00  0.00    +0.000 C 
ENDROOT
BRANCH   1   2
ATOM      2  C   UNL     1       7.322   5.032  17.954  0.00  0.00    +0.000 C 
BRANCH   2   3
ATOM      3  C   UNL     1       7.262   4.536  16.510  0.00  0.00    +0.000 C 
BRANCH   3   4
ATOM      4  N   UNL     1       7.567   5.548  15.504  0.00  0.00    +0.000 NA
ATOM      5  H   UNL     1       7.087   6.418  15.757  0.00  0.00    +0.000 HD
BRANCH   4   6
ATOM      6  C   UNL     1       7.029   5.130  14.189  0.00  0.00    +0.000 C 
BRANCH   6   7
ATOM      7  C   UNL     1       6.250   3.802  14.221  0.00  0.00    +0.000 C 
BRANCH   7   9
ATOM      8  C   UNL     1       5.633   2.983  12.090  0.00  0.00    +0.000 C 
ATOM      9  O   UNL     1       5.278   3.831  13.173  0.00  0.00    +0.000 OA
ENDBRANCH   7   9
ENDBRANCH   6   7
ENDBRANCH   4   6
ENDBRANCH   3   4
ENDBRANCH   2   3
ENDBRANCH   1   2
BRANCH   1  10
ATOM     10  O   UNL     1       4.923   5.357  17.573  0.00  0.00    +0.000 OA
BRANCH  10  11
ATOM     11  C   UNL     1       4.101   4.719  18.475  0.00  0.00    +0.000 A 
ATOM     12  C   UNL     1       4.327   3.415  18.945  0.00  0.00    +0.000 A 
ATOM     13  C   UNL     1       3.478   2.838  19.892  0.00  0.00    +0.000 A 
ATOM     14  C   UNL     1       2.398   3.562  20.383  0.00  0.00    +0.000 A 
ATOM     15 CL   UNL     1       1.367   2.851  21.562  0.00  0.00    +0.000 Cl
ATOM     16  C   UNL     1       2.154   4.858  19.931  0.00  0.00    +0.000 A 
ATOM     17  C   UNL     1       3.005   5.432  18.982  0.00  0.00    +0.000 A 
ATOM     18 BR   UNL     1       2.609   7.192  18.386  0.00  0.00    +0.000 Br
ENDBRANCH  10  11
ENDBRANCH   1  10
TORSDOF 8
ENDMDL
MODEL 4
REMARK VINA RESULT:      -5.4      3.632      5.491
REMARK  Name = 
REMARK  9 active torsions:
REMARK  status: ('A' for Active; 'I' for Inactive)
REMARK    1  A    between atoms: C_1  and  O_2
REMARK    2  A    between atoms: O_2  and  C_3
REMARK    3  A    between atoms: C_3  and  C_4
REMARK    4  A    between atoms: C_4  and  N_5
REMARK    5  A    between atoms: N_5  and  C_6
REMARK    6  A    between atoms: C_6  and  C_7
REMARK    7  A    between atoms: C_7  and  C_8
REMARK    8  A    between atoms: C_8  and  O_9
REMARK    9  A    between atoms: O_9  and  C_10
REMARK                            x       y       z     vdW  Elec       q    Type
REMARK                         _______ _______ _______ _____ _____    ______ ____
ROOT
ATOM      1  C   UNL     1       4.468   3.378  18.893  0.00  0.00    +0.000 C 
ENDROOT
BRANCH   1   2
ATOM      2  C   UNL     1       4.150   2.901  17.475  0.00  0.00    +0.000 C 
BRANCH   2   3
ATOM      3  C   UNL     1       2.630   2.758  17.408  0.00  0.00    +0.000 C 
BRANCH   3   4
ATOM      4  N   UNL     1       2.059   1.845  18.392  0.00  0.00    +0.000 NA
ATOM      5  H   UNL     1       1.895   0.939  17.943  0.00  0.00    +0.000 HD
BRANCH   4   6
ATOM      6  C   UNL     1       0.739   2.345  18.838  0.00  0.00    +0.000 C 
BRANCH   6   7
ATOM      7  C   UNL     1       0.811   3.384  19.974  0.00  0.00    +0.000 C 
BRANCH   7   9
ATOM      8  C   UNL     1       2.271   3.094  21.811  0.00  0.00    +0.000 C 
ATOM      9  O   UNL     1       1.055   2.688  21.199  0.00  0.00    +0.000 OA
ENDBRANCH   7   9
ENDBRANCH   6   7
ENDBRANCH   4   6
ENDBRANCH   3   4
ENDBRANCH   2   3
ENDBRANCH   1   2
BRANCH   1  10
ATOM     10  O   UNL     1       5.064   4.670  18.903  0.00  0.00    +0.000 OA
BRANCH  10  11
ATOM     11  C   UNL     1       4.174   5.707  18.729  0.00  0.00    +0.000 A 
ATOM     12  C   UNL     1       3.162   6.024  19.649  0.00  0.00    +0.000 A 
ATOM     13  C   UNL     1       2.315   7.114  19.434  0.00  0.00    +0.000 A 
ATOM     14  C   UNL     1       2.477   7.902  18.300  0.00  0.00    +0.000 A 
ATOM     15 CL   UNL     1       1.441   9.252  18.052  0.00  0.00    +0.000 Cl
ATOM     16  C   UNL     1       3.473   7.605  17.373  0.00  0.00    +0.000 A 
ATOM     17  C   UNL     1       4.319   6.513  17.590  0.00  0.00    +0.000 A 
ATOM     18 BR   UNL     1       5.644   6.143  16.279  0.00  0.00    +0.000 Br
ENDBRANCH  10  11
ENDBRANCH   1  10
TORSDOF 8
ENDMDL
MODEL 5
REMARK VINA RESULT:      -5.3      2.041      3.484
REMARK  Name = 
REMARK  9 active torsions:
REMARK  status: ('A' for Active; 'I' for Inactive)
REMARK    1  A    between atoms: C_1  and  O_2
REMARK    2  A    between atoms: O_2  and  C_3
REMARK    3  A    between atoms: C_3  and  C_4
REMARK    4  A    between atoms: C_4  and  N_5
REMARK    5  A    between atoms: N_5  and  C_6
REMARK    6  A    between atoms: C_6  and  C_7
REMARK    7  A    between atoms: C_7  and  C_8
REMARK    8  A    between atoms: C_8  and  O_9
REMARK    9  A    between atoms: O_9  and  C_10
REMARK                            x       y       z     vdW  Elec       q    Type
REMARK                         _______ _______ _______ _____ _____    ______ ____
ROOT
ATOM      1  C   UNL     1       5.513   3.882  16.159  0.00  0.00    +0.000 C 
ENDROOT
BRANCH   1   2
ATOM      2  C   UNL     1       6.861   4.603  16.151  0.00  0.00    +0.000 C 
BRANCH   2   3
ATOM      3  C   UNL     1       7.363   4.579  17.593  0.00  0.00    +0.000 C 
BRANCH   3   4
ATOM      4  N   UNL     1       6.812   5.625  18.449  0.00  0.00    +0.000 NA
ATOM      5  H   UNL     1       5.817   5.436  18.601  0.00  0.00    +0.000 HD
BRANCH   4   6
ATOM      6  C   UNL     1       6.898   6.934  17.764  0.00  0.00    +0.000 C 
BRANCH   6   7
ATOM      7  C   UNL     1       8.166   7.741  18.105  0.00  0.00    +0.000 C 
BRANCH   7   9
ATOM      8  C   UNL     1       8.759  10.004  18.453  0.00  0.00    +0.000 C 
ATOM      9  O   UNL     1       7.947   9.100  17.717  0.00  0.00    +0.000 OA
ENDBRANCH   7   9
ENDBRANCH   6   7
ENDBRANCH   4   6
ENDBRANCH   3   4
ENDBRANCH   2   3
ENDBRANCH   1   2
BRANCH   1  10
ATOM     10  O   UNL     1       4.447   4.742  16.544  0.00  0.00    +0.000 OA
BRANCH  10  11
ATOM     11  C   UNL     1       3.662   4.252  17.564  0.00  0.00    +0.000 A 
ATOM     12  C   UNL     1       3.540   2.886  17.863  0.00  0.00    +0.000 A 
ATOM     13  C   UNL     1       2.759   2.454  18.937  0.00  0.00    +0.000 A 
ATOM     14  C   UNL     1       2.097   3.387  19.728  0.00  0.00    +0.000 A 
ATOM     15 CL   UNL     1       1.151   2.849  21.059  0.00  0.00    +0.000 Cl
ATOM     16  C   UNL     1       2.202   4.748  19.449  0.00  0.00    +0.000 A 
ATOM     17  C   UNL     1       2.984   5.177  18.372  0.00  0.00    +0.000 A 
ATOM     18 BR   UNL     1       3.071   7.043  18.028  0.00  0.00    +0.000 Br
ENDBRANCH  10  11
ENDBRANCH   1  10
TORSDOF 8
ENDMDL
MODEL 6
REMARK VINA RESULT:      -5.2      1.632      3.237
REMARK  Name = 
REMARK  9 active torsions:
REMARK  status: ('A' for Active; 'I' for Inactive)
REMARK    1  A    between atoms: C_1  and  O_2
REMARK    2  A    between atoms: O_2  and  C_3
REMARK    3  A    between atoms: C_3  and  C_4
REMARK    4  A    between atoms: C_4  and  N_5
REMARK    5  A    between atoms: N_5  and  C_6
REMARK    6  A    between atoms: C_6  and  C_7
REMARK    7  A    between atoms: C_7  and  C_8
REMARK    8  A    between atoms: C_8  and  O_9
REMARK    9  A    between atoms: O_9  and  C_10
REMARK                            x       y       z     vdW  Elec       q    Type
REMARK                         _______ _______ _______ _____ _____    ______ ____
ROOT
ATOM      1  C   UNL     1       4.749   3.795  16.066  0.00  0.00    +0.000 C 
ENDROOT
BRANCH   1   2
ATOM      2  C   UNL     1       5.788   4.338  15.086  0.00  0.00    +0.000 C 
BRANCH   2   3
ATOM      3  C   UNL     1       5.946   5.822  15.415  0.00  0.00    +0.000 C 
BRANCH   3   4
ATOM      4  N   UNL     1       7.188   6.167  16.098  0.00  0.00    +0.000 NA
ATOM      5  H   UNL     1       7.572   5.321  16.530  0.00  0.00    +0.000 HD
BRANCH   4   6
ATOM      6  C   UNL     1       6.911   7.120  17.197  0.00  0.00    +0.000 C 
BRANCH   6   7
ATOM      7  C   UNL     1       7.953   7.092  18.332  0.00  0.00    +0.000 C 
BRANCH   7   9
ATOM      8  C   UNL     1       6.823   5.404  19.541  0.00  0.00    +0.000 C 
ATOM      9  O   UNL     1       8.011   5.761  18.850  0.00  0.00    +0.000 OA
ENDBRANCH   7   9
ENDBRANCH   6   7
ENDBRANCH   4   6
ENDBRANCH   3   4
ENDBRANCH   2   3
ENDBRANCH   1   2
BRANCH   1  10
ATOM     10  O   UNL     1       4.419   4.740  17.077  0.00  0.00    +0.000 OA
BRANCH  10  11
ATOM     11  C   UNL     1       3.687   4.222  18.122  0.00  0.00    +0.000 A 
ATOM     12  C   UNL     1       3.755   2.879  18.527  0.00  0.00    +0.000 A 
ATOM     13  C   UNL     1       3.017   2.423  19.622  0.00  0.00    +0.000 A 
ATOM     14  C   UNL     1       2.209   3.308  20.327  0.00  0.00    +0.000 A 
ATOM     15 CL   UNL     1       1.317   2.743  21.684  0.00  0.00    +0.000 Cl
ATOM     16  C   UNL     1       2.126   4.645  19.943  0.00  0.00    +0.000 A 
ATOM     17  C   UNL     1       2.865   5.098  18.846  0.00  0.00    +0.000 A 
ATOM     18 BR   UNL     1       2.692   6.925  18.355  0.00  0.00    +0.000 Br
ENDBRANCH  10  11
ENDBRANCH   1  10
TORSDOF 8
ENDMDL
MODEL 7
REMARK VINA RESULT:      -5.1      3.583      5.660
REMARK  Name = 
REMARK  9 active torsions:
REMARK  status: ('A' for Active; 'I' for Inactive)
REMARK    1  A    between atoms: C_1  and  O_2
REMARK    2  A    between atoms: O_2  and  C_3
REMARK    3  A    between atoms: C_3  and  C_4
REMARK    4  A    between atoms: C_4  and  N_5
REMARK    5  A    between atoms: N_5  and  C_6
REMARK    6  A    between atoms: C_6  and  C_7
REMARK    7  A    between atoms: C_7  and  C_8
REMARK    8  A    between atoms: C_8  and  O_9
REMARK    9  A    between atoms: O_9  and  C_10
REMARK                            x       y       z     vdW  Elec       q    Type
REMARK                         _______ _______ _______ _____ _____    ______ ____
ROOT
ATOM      1  C   UNL     1       3.768   5.911  19.017  0.00  0.00    +0.000 C 
ENDROOT
BRANCH   1   2
ATOM      2  C   UNL     1       2.347   5.346  19.036  0.00  0.00    +0.000 C 
BRANCH   2   3
ATOM      3  C   UNL     1       1.982   5.169  20.509  0.00  0.00    +0.000 C 
BRANCH   3   4
ATOM      4  N   UNL     1       1.219   3.962  20.807  0.00  0.00    +0.000 NA
ATOM      5  H   UNL     1       1.225   3.810  21.820  0.00  0.00    +0.000 HD
BRANCH   4   6
ATOM      6  C   UNL     1       1.877   2.785  20.195  0.00  0.00    +0.000 C 
BRANCH   6   7
ATOM      7  C   UNL     1       3.227   2.413  20.839  0.00  0.00    +0.000 C 
BRANCH   7   9
ATOM      8  C   UNL     1       3.400   1.661  18.604  0.00  0.00    +0.000 C 
ATOM      9  O   UNL     1       4.100   1.949  19.806  0.00  0.00    +0.000 OA
ENDBRANCH   7   9
ENDBRANCH   6   7
ENDBRANCH   4   6
ENDBRANCH   3   4
ENDBRANCH   2   3
ENDBRANCH   1   2
BRANCH   1  10
ATOM     10  O   UNL     1       4.749   4.891  18.867  0.00  0.00    +0.000 OA
BRANCH  10  11
ATOM     11  C   UNL     1       5.333   4.845  17.621  0.00  0.00    +0.000 A 
ATOM     12  C   UNL     1       4.662   4.423  16.462  0.00  0.00    +0.000 A 
ATOM     13  C   UNL     1       5.299   4.437  15.219  0.00  0.00    +0.000 A 
ATOM     14  C   UNL     1       6.612   4.881  15.122  0.00  0.00    +0.000 A 
ATOM     15 CL   UNL     1       7.384   4.913  13.586  0.00  0.00    +0.000 Cl
ATOM     16  C   UNL     1       7.299   5.305  16.258  0.00  0.00    +0.000 A 
ATOM     17  C   UNL     1       6.659   5.288  17.501  0.00  0.00    +0.000 A 
ATOM     18 BR   UNL     1       7.653   5.855  19.018  0.00  0.00    +0.000 Br
ENDBRANCH  10  11
ENDBRANCH   1  10
TORSDOF 8
ENDMDL
MODEL 8
REMARK VINA RESULT:      -5.1      2.606      4.009
REMARK  Name = 
REMARK  9 active torsions:
REMARK  status: ('A' for Active; 'I' for Inactive)
REMARK    1  A    between atoms: C_1  and  O_2
REMARK    2  A    between atoms: O_2  and  C_3
REMARK    3  A    between atoms: C_3  and  C_4
REMARK    4  A    between atoms: C_4  and  N_5
REMARK    5  A    between atoms: N_5  and  C_6
REMARK    6  A    between atoms: C_6  and  C_7
REMARK    7  A    between atoms: C_7  and  C_8
REMARK    8  A    between atoms: C_8  and  O_9
REMARK    9  A    between atoms: O_9  and  C_10
REMARK                            x       y       z     vdW  Elec       q    Type
REMARK                         _______ _______ _______ _____ _____    ______ ____
ROOT
ATOM      1  C   UNL     1       6.646   5.097  18.937  0.00  0.00    +0.000 C 
ENDROOT
BRANCH   1   2
ATOM      2  C   UNL     1       6.972   5.100  17.443  0.00  0.00    +0.000 C 
BRANCH   2   3
ATOM      3  C   UNL     1       7.319   6.546  17.090  0.00  0.00    +0.000 C 
BRANCH   3   4
ATOM      4  N   UNL     1       7.912   7.315  18.178  0.00  0.00    +0.000 NA
ATOM      5  H   UNL     1       7.324   7.213  19.011  0.00  0.00    +0.000 HD
BRANCH   4   6
ATOM      6  C   UNL     1       7.918   8.755  17.833  0.00  0.00    +0.000 C 
BRANCH   6   7
ATOM      7  C   UNL     1       8.858   9.607  18.707  0.00  0.00    +0.000 C 
BRANCH   7   9
ATOM      8  C   UNL     1       9.908  11.724  18.795  0.00  0.00    +0.000 C 
ATOM      9  O   UNL     1       9.041  10.870  18.062  0.00  0.00    +0.000 OA
ENDBRANCH   7   9
ENDBRANCH   6   7
ENDBRANCH   4   6
ENDBRANCH   3   4
ENDBRANCH   2   3
ENDBRANCH   1   2
BRANCH   1  10
ATOM     10  O   UNL     1       5.392   5.709  19.214  0.00  0.00    +0.000 OA
BRANCH  10  11
ATOM     11  C   UNL     1       4.309   4.867  19.087  0.00  0.00    +0.000 A 
ATOM     12  C   UNL     1       4.331   3.513  19.457  0.00  0.00    +0.000 A 
ATOM     13  C   UNL     1       3.186   2.721  19.340  0.00  0.00    +0.000 A 
ATOM     14  C   UNL     1       2.007   3.278  18.860  0.00  0.00    +0.000 A 
ATOM     15 CL   UNL     1       0.597   2.300  18.737  0.00  0.00    +0.000 Cl
ATOM     16  C   UNL     1       1.962   4.619  18.487  0.00  0.00    +0.000 A 
ATOM     17  C   UNL     1       3.110   5.410  18.603  0.00  0.00    +0.000 A 
ATOM     18 BR   UNL     1       2.994   7.225  18.057  0.00  0.00    +0.000 Br
ENDBRANCH  10  11
ENDBRANCH   1  10
TORSDOF 8
ENDMDL
MODEL 9
REMARK VINA RESULT:      -5.1      1.659      2.025
REMARK  Name = 
REMARK  9 active torsions:
REMARK  status: ('A' for Active; 'I' for Inactive)
REMARK    1  A    between atoms: C_1  and  O_2
REMARK    2  A    between atoms: O_2  and  C_3
REMARK    3  A    between atoms: C_3  and  C_4
REMARK    4  A    between atoms: C_4  and  N_5
REMARK    5  A    between atoms: N_5  and  C_6
REMARK    6  A    between atoms: C_6  and  C_7
REMARK    7  A    between atoms: C_7  and  C_8
REMARK    8  A    between atoms: C_8  and  O_9
REMARK    9  A    between atoms: O_9  and  C_10
REMARK                            x       y       z     vdW  Elec       q    Type
REMARK                         _______ _______ _______ _____ _____    ______ ____
ROOT
ATOM      1  C   UNL     1       6.577   4.394  17.684  0.00  0.00    +0.000 C 
ENDROOT
BRANCH   1   2
ATOM      2  C   UNL     1       7.051   4.716  16.266  0.00  0.00    +0.000 C 
BRANCH   2   3
ATOM      3  C   UNL     1       5.905   5.474  15.599  0.00  0.00    +0.000 C 
BRANCH   3   4
ATOM      4  N   UNL     1       5.341   4.818  14.424  0.00  0.00    +0.000 NA
ATOM      5  H   UNL     1       4.461   4.366  14.690  0.00  0.00    +0.000 HD
BRANCH   4   6
ATOM      6  C   UNL     1       6.250   3.744  13.962  0.00  0.00    +0.000 C 
BRANCH   6   7
ATOM      7  C   UNL     1       6.434   3.689  12.433  0.00  0.00    +0.000 C 
BRANCH   7   9
ATOM      8  C   UNL     1       4.376   3.170  11.390  0.00  0.00    +0.000 C 
ATOM      9  O   UNL     1       5.589   2.656  11.920  0.00  0.00    +0.000 OA
ENDBRANCH   7   9
ENDBRANCH   6   7
ENDBRANCH   4   6
ENDBRANCH   3   4
ENDBRANCH   2   3
ENDBRANCH   1   2
BRANCH   1  10
ATOM     10  O   UNL     1       5.518   5.246  18.101  0.00  0.00    +0.000 OA
BRANCH  10  11
ATOM     11  C   UNL     1       4.530   4.613  18.822  0.00  0.00    +0.000 A 
ATOM     12  C   UNL     1       4.686   3.346  19.407  0.00  0.00    +0.000 A 
ATOM     13  C   UNL     1       3.659   2.773  20.160  0.00  0.00    +0.000 A 
ATOM     14  C   UNL     1       2.468   3.466  20.343  0.00  0.00    +0.000 A 
ATOM     15 CL   UNL     1       1.215   2.762  21.287  0.00  0.00    +0.000 Cl
ATOM     16  C   UNL     1       2.290   4.724  19.772  0.00  0.00    +0.000 A 
ATOM     17  C   UNL     1       3.319   5.295  19.017  0.00  0.00    +0.000 A 
ATOM     18 BR   UNL     1       3.010   7.002  18.243  0.00  0.00    +0.000 Br
ENDBRANCH  10  11
ENDBRANCH   1  10
TORSDOF 8
ENDMDL
