MODEL 1
REMARK VINA RESULT:      -7.1      0.000      0.000
REMARK  Name = 
REMARK  5 active torsions:
REMARK  status: ('A' for Active; 'I' for Inactive)
REMARK    1  A    between atoms: C_1  and  C_2
REMARK    2  A    between atoms: C_2  and  C_3
REMARK    3  A    between atoms: C_2  and  N_4
REMARK    4  A    between atoms: C_8  and  C_10
REMARK    5  A    between atoms: N_15  and  C_16
REMARK                            x       y       z     vdW  Elec       q    Type
REMARK                         _______ _______ _______ _____ _____    ______ ____
ROOT
ATOM      1  C   UNL     1       0.944   8.791  21.401  0.00  0.00    +0.000 C 
ATOM      2  C   UNL     1      -0.457   8.360  21.741  0.00  0.00    +0.000 C 
ATOM      3  C   UNL     1      -0.205   9.820  21.424  0.00  0.00    +0.000 C 
ATOM      4  C   UNL     1      -0.855  10.288  20.129  0.00  0.00    +0.000 C 
ATOM      5  C   UNL     1      -0.851  11.791  19.949  0.00  0.00    +0.000 C 
ATOM      6  N   UNL     1      -1.484  12.450  21.084  0.00  0.00    +0.000 NA
ATOM      7  C   UNL     1      -0.645  12.230  22.265  0.00  0.00    +0.000 C 
ATOM      8  C   UNL     1      -0.370  10.760  22.621  0.00  0.00    +0.000 C 
ENDROOT
BRANCH   1  13
ATOM      9  N   UNL     1       2.948   4.276  19.315  0.00  0.00    +0.000 NA
ATOM     10  C   UNL     1       3.636   5.481  18.787  0.00  0.00    +0.000 C 
ATOM     11  C   UNL     1       2.776   6.757  18.750  0.00  0.00    +0.000 C 
ATOM     12  N   UNL     1       2.109   7.052  20.008  0.00  0.00    +0.000 N 
ATOM     13  C   UNL     1       1.562   8.339  20.108  0.00  0.00    +0.000 C 
ATOM     14  O   UNL     1       1.620   9.130  19.171  0.00  0.00    +0.000 OA
ATOM     15  C   UNL     1       1.512   5.892  20.688  0.00  0.00    +0.000 C 
ATOM     16  C   UNL     1       2.417   4.642  20.650  0.00  0.00    +0.000 C 
BRANCH   9  18
ATOM     17  C   UNL     1       2.649   3.042  17.171  0.00  0.00    +0.000 C 
ATOM     18  C   UNL     1       1.951   3.717  18.369  0.00  0.00    +0.000 C 
ATOM     19  C   UNL     1       1.033   2.651  18.996  0.00  0.00    +0.000 C 
ENDBRANCH   9  18
ENDBRANCH   1  13
BRANCH   6  20
ATOM     20  C   UNL     1      -2.957  12.343  21.263  0.00  0.00    +0.000 C 
ATOM     21  C   UNL     1      -3.397  12.643  22.710  0.00  0.00    +0.000 C 
ATOM     22  C   UNL     1      -3.798  14.096  22.917  0.00  0.00    +0.000 C 
ATOM     23  O   UNL     1      -4.916  14.407  22.092  0.00  0.00    +0.000 OA
ATOM     24  C   UNL     1      -4.614  14.331  20.705  0.00  0.00    +0.000 C 
ATOM     25  C   UNL     1      -3.992  12.988  20.299  0.00  0.00    +0.000 C 
ENDBRANCH   6  20
TORSDOF 3
ENDMDL
MODEL 2
REMARK VINA RESULT:      -6.8      2.294      3.731
REMARK  Name = 
REMARK  5 active torsions:
REMARK  status: ('A' for Active; 'I' for Inactive)
REMARK    1  A    between atoms: C_1  and  C_2
REMARK    2  A    between atoms: C_2  and  C_3
REMARK    3  A    between atoms: C_2  and  N_4
REMARK    4  A    between atoms: C_8  and  C_10
REMARK    5  A    between atoms: N_15  and  C_16
REMARK                            x       y       z     vdW  Elec       q    Type
REMARK                         _______ _______ _______ _____ _____    ______ ____
ROOT
ATOM      1  C   UNL     1       1.536   8.469  18.063  0.00  0.00    +0.000 C 
ATOM      2  C   UNL     1       2.112   9.852  17.925  0.00  0.00    +0.000 C 
ATOM      3  C   UNL     1       0.851   9.670  18.747  0.00  0.00    +0.000 C 
ATOM      4  C   UNL     1       1.045   9.932  20.234  0.00  0.00    +0.000 C 
ATOM      5  C   UNL     1      -0.249  10.031  21.013  0.00  0.00    +0.000 C 
ATOM      6  N   UNL     1      -1.119  11.052  20.443  0.00  0.00    +0.000 NA
ATOM      7  C   UNL     1      -1.537  10.604  19.112  0.00  0.00    +0.000 C 
ATOM      8  C   UNL     1      -0.399  10.298  18.125  0.00  0.00    +0.000 C 
ENDROOT
BRANCH   1  13
ATOM      9  N   UNL     1       5.678   5.136  17.375  0.00  0.00    +0.000 NA
ATOM     10  C   UNL     1       4.660   4.568  18.295  0.00  0.00    +0.000 C 
ATOM     11  C   UNL     1       3.840   5.608  19.078  0.00  0.00    +0.000 C 
ATOM     12  N   UNL     1       3.260   6.648  18.242  0.00  0.00    +0.000 N 
ATOM     13  C   UNL     1       2.279   7.435  18.861  0.00  0.00    +0.000 C 
ATOM     14  O   UNL     1       1.976   7.265  20.039  0.00  0.00    +0.000 OA
ATOM     15  C   UNL     1       4.148   7.182  17.198  0.00  0.00    +0.000 C 
ATOM     16  C   UNL     1       4.966   6.082  16.485  0.00  0.00    +0.000 C 
BRANCH   9  18
ATOM     17  C   UNL     1       7.972   4.645  18.216  0.00  0.00    +0.000 C 
ATOM     18  C   UNL     1       6.853   5.698  18.086  0.00  0.00    +0.000 C 
ATOM     19  C   UNL     1       7.479   6.915  17.381  0.00  0.00    +0.000 C 
ENDBRANCH   9  18
ENDBRANCH   1  13
BRANCH   6  20
ATOM     20  C   UNL     1      -0.761  12.487  20.598  0.00  0.00    +0.000 C 
ATOM     21  C   UNL     1      -1.911  13.428  20.185  0.00  0.00    +0.000 C 
ATOM     22  C   UNL     1      -2.783  13.848  21.359  0.00  0.00    +0.000 C 
ATOM     23  O   UNL     1      -2.001  14.572  22.302  0.00  0.00    +0.000 OA
ATOM     24  C   UNL     1      -0.985  13.777  22.900  0.00  0.00    +0.000 C 
ATOM     25  C   UNL     1      -0.088  13.076  21.870  0.00  0.00    +0.000 C 
ENDBRANCH   6  20
TORSDOF 3
ENDMDL
MODEL 3
REMARK VINA RESULT:      -6.7      7.271     10.104
REMARK  Name = 
REMARK  5 active torsions:
REMARK  status: ('A' for Active; 'I' for Inactive)
REMARK    1  A    between atoms: C_1  and  C_2
REMARK    2  A    between atoms: C_2  and  C_3
REMARK    3  A    between atoms: C_2  and  N_4
REMARK    4  A    between atoms: C_8  and  C_10
REMARK    5  A    between atoms: N_15  and  C_16
REMARK                            x       y       z     vdW  Elec       q    Type
REMARK                         _______ _______ _______ _____ _____    ______ ____
ROOT
ATOM      1  C   UNL     1       7.595   6.588  18.505  0.00  0.00    +0.000 C 
ATOM      2  C   UNL     1       7.547   5.210  17.905  0.00  0.00    +0.000 C 
ATOM      3  C   UNL     1       6.247   5.860  18.331  0.00  0.00    +0.000 C 
ATOM      4  C   UNL     1       5.322   6.204  17.172  0.00  0.00    +0.000 C 
ATOM      5  C   UNL     1       3.921   6.587  17.597  0.00  0.00    +0.000 C 
ATOM      6  N   UNL     1       3.322   5.536  18.410  0.00  0.00    +0.000 NA
ATOM      7  C   UNL     1       4.067   5.452  19.670  0.00  0.00    +0.000 C 
ATOM      8  C   UNL     1       5.576   5.190  19.534  0.00  0.00    +0.000 C 
ENDROOT
BRANCH   1  13
ATOM      9  N   UNL     1       9.528  11.549  19.141  0.00  0.00    +0.000 NA
ATOM     10  C   UNL     1       8.617  11.457  17.972  0.00  0.00    +0.000 C 
ATOM     11  C   UNL     1       8.558  10.073  17.301  0.00  0.00    +0.000 C 
ATOM     12  N   UNL     1       8.319   8.981  18.231  0.00  0.00    +0.000 N 
ATOM     13  C   UNL     1       7.969   7.759  17.640  0.00  0.00    +0.000 C 
ATOM     14  O   UNL     1       7.914   7.634  16.420  0.00  0.00    +0.000 OA
ATOM     15  C   UNL     1       9.073   9.053  19.492  0.00  0.00    +0.000 C 
ATOM     16  C   UNL     1       9.120  10.480  20.083  0.00  0.00    +0.000 C 
BRANCH   9  18
ATOM     17  C   UNL     1      11.227  12.528  17.605  0.00  0.00    +0.000 C 
ATOM     18  C   UNL     1      10.962  11.544  18.761  0.00  0.00    +0.000 C 
ATOM     19  C   UNL     1      11.908  11.950  19.906  0.00  0.00    +0.000 C 
ENDBRANCH   9  18
ENDBRANCH   1  13
BRANCH   6  20
ATOM     20  C   UNL     1       2.920   4.255  17.769  0.00  0.00    +0.000 C 
ATOM     21  C   UNL     1       3.804   3.072  18.213  0.00  0.00    +0.000 C 
ATOM     22  C   UNL     1       3.215   2.301  19.385  0.00  0.00    +0.000 C 
ATOM     23  O   UNL     1       1.963   1.738  19.008  0.00  0.00    +0.000 OA
ATOM     24  C   UNL     1       0.980   2.725  18.722  0.00  0.00    +0.000 C 
ATOM     25  C   UNL     1       1.450   3.756  17.686  0.00  0.00    +0.000 C 
ENDBRANCH   6  20
TORSDOF 3
ENDMDL
MODEL 4
REMARK VINA RESULT:      -6.7      1.872      2.346
REMARK  Name = 
REMARK  5 active torsions:
REMARK  status: ('A' for Active; 'I' for Inactive)
REMARK    1  A    between atoms: C_1  and  C_2
REMARK    2  A    between atoms: C_2  and  C_3
REMARK    3  A    between atoms: C_2  and  N_4
REMARK    4  A    between atoms: C_8  and  C_10
REMARK    5  A    between atoms: N_15  and  C_16
REMARK                            x       y       z     vdW  Elec       q    Type
REMARK                         _______ _______ _______ _____ _____    ______ ____
ROOT
ATOM      1  C   UNL     1       1.052   9.970  19.656  0.00  0.00    +0.000 C 
ATOM      2  C   UNL     1      -0.052   9.344  20.464  0.00  0.00    +0.000 C 
ATOM      3  C   UNL     1      -0.404  10.453  19.492  0.00  0.00    +0.000 C 
ATOM      4  C   UNL     1      -1.248   9.990  18.313  0.00  0.00    +0.000 C 
ATOM      5  C   UNL     1      -1.838  11.122  17.499  0.00  0.00    +0.000 C 
ATOM      6  N   UNL     1      -2.621  12.014  18.345  0.00  0.00    +0.000 NA
ATOM      7  C   UNL     1      -1.705  12.682  19.274  0.00  0.00    +0.000 C 
ATOM      8  C   UNL     1      -0.862  11.751  20.162  0.00  0.00    +0.000 C 
ENDROOT
BRANCH   1  13
ATOM      9  N   UNL     1       3.080   5.041  19.075  0.00  0.00    +0.000 NA
ATOM     10  C   UNL     1       3.820   6.041  18.265  0.00  0.00    +0.000 C 
ATOM     11  C   UNL     1       2.989   7.255  17.813  0.00  0.00    +0.000 C 
ATOM     12  N   UNL     1       2.259   7.901  18.892  0.00  0.00    +0.000 N 
ATOM     13  C   UNL     1       1.733   9.163  18.586  0.00  0.00    +0.000 C 
ATOM     14  O   UNL     1       1.858   9.652  17.466  0.00  0.00    +0.000 OA
ATOM     15  C   UNL     1       1.602   6.987  19.839  0.00  0.00    +0.000 C 
ATOM     16  C   UNL     1       2.483   5.776  20.215  0.00  0.00    +0.000 C 
BRANCH   9  18
ATOM     17  C   UNL     1       2.878   3.316  17.289  0.00  0.00    +0.000 C 
ATOM     18  C   UNL     1       2.127   4.235  18.272  0.00  0.00    +0.000 C 
ATOM     19  C   UNL     1       1.221   3.323  19.119  0.00  0.00    +0.000 C 
ENDBRANCH   9  18
ENDBRANCH   1  13
BRANCH   6  20
ATOM     20  C   UNL     1      -3.925  11.550  18.888  0.00  0.00    +0.000 C 
ATOM     21  C   UNL     1      -4.481  12.496  19.971  0.00  0.00    +0.000 C 
ATOM     22  C   UNL     1      -5.445  13.532  19.413  0.00  0.00    +0.000 C 
ATOM     23  O   UNL     1      -6.574  12.878  18.843  0.00  0.00    +0.000 OA
ATOM     24  C   UNL     1      -6.236  12.084  17.713  0.00  0.00    +0.000 C 
ATOM     25  C   UNL     1      -5.111  11.080  18.000  0.00  0.00    +0.000 C 
ENDBRANCH   6  20
TORSDOF 3
ENDMDL
MODEL 5
REMARK VINA RESULT:      -6.6      2.509      3.957
REMARK  Name = 
REMARK  5 active torsions:
REMARK  status: ('A' for Active; 'I' for Inactive)
REMARK    1  A    between atoms: C_1  and  C_2
REMARK    2  A    between atoms: C_2  and  C_3
REMARK    3  A    between atoms: C_2  and  N_4
REMARK    4  A    between atoms: C_8  and  C_10
REMARK    5  A    between atoms: N_15  and  C_16
REMARK                            x       y       z     vdW  Elec       q    Type
REMARK                         _______ _______ _______ _____ _____    ______ ____
ROOT
ATOM      1  C   UNL     1       1.461   8.545  18.060  0.00  0.00    +0.000 C 
ATOM      2  C   UNL     1       1.999   9.928  17.815  0.00  0.00    +0.000 C 
ATOM      3  C   UNL     1       0.743   9.777  18.649  0.00  0.00    +0.000 C 
ATOM      4  C   UNL     1       0.926  10.157  20.111  0.00  0.00    +0.000 C 
ATOM      5  C   UNL     1      -0.371  10.281  20.881  0.00  0.00    +0.000 C 
ATOM      6  N   UNL     1      -1.267  11.231  20.233  0.00  0.00    +0.000 NA
ATOM      7  C   UNL     1      -1.671  10.670  18.941  0.00  0.00    +0.000 C 
ATOM      8  C   UNL     1      -0.523  10.320  17.980  0.00  0.00    +0.000 C 
ENDROOT
BRANCH   1  13
ATOM      9  N   UNL     1       5.670   5.253  17.619  0.00  0.00    +0.000 NA
ATOM     10  C   UNL     1       4.669   4.742  18.590  0.00  0.00    +0.000 C 
ATOM     11  C   UNL     1       3.831   5.827  19.290  0.00  0.00    +0.000 C 
ATOM     12  N   UNL     1       3.225   6.781  18.376  0.00  0.00    +0.000 N 
ATOM     13  C   UNL     1       2.231   7.596  18.934  0.00  0.00    +0.000 C 
ATOM     14  O   UNL     1       1.938   7.519  20.125  0.00  0.00    +0.000 OA
ATOM     15  C   UNL     1       4.096   7.245  17.285  0.00  0.00    +0.000 C 
ATOM     16  C   UNL     1       4.932   6.108  16.659  0.00  0.00    +0.000 C 
BRANCH   9  18
ATOM     17  C   UNL     1       7.955   4.869  18.533  0.00  0.00    +0.000 C 
ATOM     18  C   UNL     1       6.836   5.897  18.272  0.00  0.00    +0.000 C 
ATOM     19  C   UNL     1       7.467   7.027  17.438  0.00  0.00    +0.000 C 
ENDBRANCH   9  18
ENDBRANCH   1  13
BRANCH   6  20
ATOM     20  C   UNL     1      -0.949  12.683  20.277  0.00  0.00    +0.000 C 
ATOM     21  C   UNL     1      -1.546  13.379  21.517  0.00  0.00    +0.000 C 
ATOM     22  C   UNL     1      -0.568  13.455  22.681  0.00  0.00    +0.000 C 
ATOM     23  O   UNL     1       0.567  14.227  22.303  0.00  0.00    +0.000 OA
ATOM     24  C   UNL     1       1.322  13.621  21.263  0.00  0.00    +0.000 C 
ATOM     25  C   UNL     1       0.473  13.263  20.035  0.00  0.00    +0.000 C 
ENDBRANCH   6  20
TORSDOF 3
ENDMDL
MODEL 6
REMARK VINA RESULT:      -6.6      1.049      1.174
REMARK  Name = 
REMARK  5 active torsions:
REMARK  status: ('A' for Active; 'I' for Inactive)
REMARK    1  A    between atoms: C_1  and  C_2
REMARK    2  A    between atoms: C_2  and  C_3
REMARK    3  A    between atoms: C_2  and  N_4
REMARK    4  A    between atoms: C_8  and  C_10
REMARK    5  A    between atoms: N_15  and  C_16
REMARK                            x       y       z     vdW  Elec       q    Type
REMARK                         _______ _______ _______ _____ _____    ______ ____
ROOT
ATOM      1  C   UNL     1       1.021   9.594  20.526  0.00  0.00    +0.000 C 
ATOM      2  C   UNL     1      -0.192   9.055  21.234  0.00  0.00    +0.000 C 
ATOM      3  C   UNL     1      -0.306  10.380  20.508  0.00  0.00    +0.000 C 
ATOM      4  C   UNL     1      -1.218  10.336  19.290  0.00  0.00    +0.000 C 
ATOM      5  C   UNL     1      -1.561  11.700  18.731  0.00  0.00    +0.000 C 
ATOM      6  N   UNL     1      -2.153  12.546  19.759  0.00  0.00    +0.000 NA
ATOM      7  C   UNL     1      -1.128  12.822  20.769  0.00  0.00    +0.000 C 
ATOM      8  C   UNL     1      -0.497  11.586  21.431  0.00  0.00    +0.000 C 
ENDROOT
BRANCH   1  13
ATOM      9  N   UNL     1       2.991   4.781  19.220  0.00  0.00    +0.000 NA
ATOM     10  C   UNL     1       3.580   5.863  18.390  0.00  0.00    +0.000 C 
ATOM     11  C   UNL     1       2.673   7.087  18.179  0.00  0.00    +0.000 C 
ATOM     12  N   UNL     1       2.116   7.625  19.410  0.00  0.00    +0.000 N 
ATOM     13  C   UNL     1       1.533   8.894  19.299  0.00  0.00    +0.000 C 
ATOM     14  O   UNL     1       1.472   9.475  18.218  0.00  0.00    +0.000 OA
ATOM     15  C   UNL     1       1.630   6.621  20.370  0.00  0.00    +0.000 C 
ATOM     16  C   UNL     1       2.574   5.406  20.498  0.00  0.00    +0.000 C 
BRANCH   9  18
ATOM     17  C   UNL     1       2.544   3.084  17.453  0.00  0.00    +0.000 C 
ATOM     18  C   UNL     1       1.932   4.020  18.514  0.00  0.00    +0.000 C 
ATOM     19  C   UNL     1       1.084   3.132  19.442  0.00  0.00    +0.000 C 
ENDBRANCH   9  18
ENDBRANCH   1  13
BRANCH   6  20
ATOM     20  C   UNL     1      -3.528  12.253  20.244  0.00  0.00    +0.000 C 
ATOM     21  C   UNL     1      -3.873  13.024  21.535  0.00  0.00    +0.000 C 
ATOM     22  C   UNL     1      -4.592  14.338  21.265  0.00  0.00    +0.000 C 
ATOM     23  O   UNL     1      -5.833  14.080  20.616  0.00  0.00    +0.000 OA
ATOM     24  C   UNL     1      -5.669  13.510  19.324  0.00  0.00    +0.000 C 
ATOM     25  C   UNL     1      -4.785  12.255  19.329  0.00  0.00    +0.000 C 
ENDBRANCH   6  20
TORSDOF 3
ENDMDL
MODEL 7
REMARK VINA RESULT:      -6.6      3.566      9.208
REMARK  Name = 
REMARK  5 active torsions:
REMARK  status: ('A' for Active; 'I' for Inactive)
REMARK    1  A    between atoms: C_1  and  C_2
REMARK    2  A    between atoms: C_2  and  C_3
REMARK    3  A    between atoms: C_2  and  N_4
REMARK    4  A    between atoms: C_8  and  C_10
REMARK    5  A    between atoms: N_15  and  C_16
REMARK                            x       y       z     vdW  Elec       q    Type
REMARK                         _______ _______ _______ _____ _____    ______ ____
ROOT
ATOM      1  C   UNL     1       1.435  10.420  18.292  0.00  0.00    +0.000 C 
ATOM      2  C   UNL     1       0.296   9.540  17.854  0.00  0.00    +0.000 C 
ATOM      3  C   UNL     1       1.480   8.900  18.550  0.00  0.00    +0.000 C 
ATOM      4  C   UNL     1       1.153   8.334  19.925  0.00  0.00    +0.000 C 
ATOM      5  C   UNL     1       2.241   7.453  20.500  0.00  0.00    +0.000 C 
ATOM      6  N   UNL     1       2.564   6.366  19.585  0.00  0.00    +0.000 NA
ATOM      7  C   UNL     1       3.173   6.946  18.384  0.00  0.00    +0.000 C 
ATOM      8  C   UNL     1       2.322   7.993  17.647  0.00  0.00    +0.000 C 
ENDROOT
BRANCH   1  13
ATOM      9  N   UNL     1       3.280  15.230  19.778  0.00  0.00    +0.000 NA
ATOM     10  C   UNL     1       2.933  14.386  20.950  0.00  0.00    +0.000 C 
ATOM     11  C   UNL     1       1.823  13.350  20.698  0.00  0.00    +0.000 C 
ATOM     12  N   UNL     1       2.043  12.531  19.517  0.00  0.00    +0.000 N 
ATOM     13  C   UNL     1       1.224  11.397  19.415  0.00  0.00    +0.000 C 
ATOM     14  O   UNL     1       0.363  11.155  20.256  0.00  0.00    +0.000 OA
ATOM     15  C   UNL     1       2.528  13.255  18.332  0.00  0.00    +0.000 C 
ATOM     16  C   UNL     1       3.611  14.302  18.670  0.00  0.00    +0.000 C 
BRANCH   9  18
ATOM     17  C   UNL     1       2.266  17.388  20.500  0.00  0.00    +0.000 C 
ATOM     18  C   UNL     1       2.244  16.244  19.466  0.00  0.00    +0.000 C 
ATOM     19  C   UNL     1       2.416  16.901  18.084  0.00  0.00    +0.000 C 
ENDBRANCH   9  18
ENDBRANCH   1  13
BRANCH   6  20
ATOM     20  C   UNL     1       1.588   5.260  19.389  0.00  0.00    +0.000 C 
ATOM     21  C   UNL     1       1.898   4.417  18.136  0.00  0.00    +0.000 C 
ATOM     22  C   UNL     1       2.743   3.189  18.443  0.00  0.00    +0.000 C 
ATOM     23  O   UNL     1       2.035   2.331  19.331  0.00  0.00    +0.000 OA
ATOM     24  C   UNL     1       1.815   2.920  20.606  0.00  0.00    +0.000 C 
ATOM     25  C   UNL     1       1.139   4.295  20.522  0.00  0.00    +0.000 C 
ENDBRANCH   6  20
TORSDOF 3
ENDMDL
MODEL 8
REMARK VINA RESULT:      -6.6      2.190      9.145
REMARK  Name = 
REMARK  5 active torsions:
REMARK  status: ('A' for Active; 'I' for Inactive)
REMARK    1  A    between atoms: C_1  and  C_2
REMARK    2  A    between atoms: C_2  and  C_3
REMARK    3  A    between atoms: C_2  and  N_4
REMARK    4  A    between atoms: C_8  and  C_10
REMARK    5  A    between atoms: N_15  and  C_16
REMARK                            x       y       z     vdW  Elec       q    Type
REMARK                         _______ _______ _______ _____ _____    ______ ____
ROOT
ATOM      1  C   UNL     1       1.757   9.418  18.799  0.00  0.00    +0.000 C 
ATOM      2  C   UNL     1       0.964   8.641  17.784  0.00  0.00    +0.000 C 
ATOM      3  C   UNL     1       2.201   8.001  18.381  0.00  0.00    +0.000 C 
ATOM      4  C   UNL     1       1.904   6.801  19.269  0.00  0.00    +0.000 C 
ATOM      5  C   UNL     1       3.128   5.991  19.636  0.00  0.00    +0.000 C 
ATOM      6  N   UNL     1       3.838   5.555  18.441  0.00  0.00    +0.000 NA
ATOM      7  C   UNL     1       4.382   6.742  17.775  0.00  0.00    +0.000 C 
ATOM      8  C   UNL     1       3.353   7.818  17.390  0.00  0.00    +0.000 C 
ENDROOT
BRANCH   1  13
ATOM      9  N   UNL     1      -1.478  13.031  21.085  0.00  0.00    +0.000 NA
ATOM     10  C   UNL     1      -0.474  12.504  22.044  0.00  0.00    +0.000 C 
ATOM     11  C   UNL     1       0.012  11.073  21.755  0.00  0.00    +0.000 C 
ATOM     12  N   UNL     1       0.449  10.868  20.383  0.00  0.00    +0.000 N 
ATOM     13  C   UNL     1       1.164   9.684  20.153  0.00  0.00    +0.000 C 
ATOM     14  O   UNL     1       1.360   8.874  21.055  0.00  0.00    +0.000 OA
ATOM     15  C   UNL     1      -0.407  11.477  19.354  0.00  0.00    +0.000 C 
ATOM     16  C   UNL     1      -0.886  12.896  19.734  0.00  0.00    +0.000 C 
BRANCH   9  18
ATOM     17  C   UNL     1      -3.376  12.693  22.664  0.00  0.00    +0.000 C 
ATOM     18  C   UNL     1      -2.818  12.417  21.253  0.00  0.00    +0.000 C 
ATOM     19  C   UNL     1      -3.869  12.943  20.258  0.00  0.00    +0.000 C 
ENDBRANCH   9  18
ENDBRANCH   1  13
BRANCH   6  20
ATOM     20  C   UNL     1       3.239   4.502  17.577  0.00  0.00    +0.000 C 
ATOM     21  C   UNL     1       4.088   3.216  17.543  0.00  0.00    +0.000 C 
ATOM     22  C   UNL     1       3.640   2.183  18.566  0.00  0.00    +0.000 C 
ATOM     23  O   UNL     1       2.303   1.780  18.286  0.00  0.00    +0.000 OA
ATOM     24  C   UNL     1       1.367   2.839  18.439  0.00  0.00    +0.000 C 
ATOM     25  C   UNL     1       1.741   4.091  17.632  0.00  0.00    +0.000 C 
ENDBRANCH   6  20
TORSDOF 3
ENDMDL
MODEL 9
REMARK VINA RESULT:      -6.4      7.123      8.667
REMARK  Name = 
REMARK  5 active torsions:
REMARK  status: ('A' for Active; 'I' for Inactive)
REMARK    1  A    between atoms: C_1  and  C_2
REMARK    2  A    between atoms: C_2  and  C_3
REMARK    3  A    between atoms: C_2  and  N_4
REMARK    4  A    between atoms: C_8  and  C_10
REMARK    5  A    between atoms: N_15  and  C_16
REMARK                            x       y       z     vdW  Elec       q    Type
REMARK                         _______ _______ _______ _____ _____    ______ ____
ROOT
ATOM      1  C   UNL     1       4.584  15.160  17.752  0.00  0.00    +0.000 C 
ATOM      2  C   UNL     1       3.317  15.969  17.705  0.00  0.00    +0.000 C 
ATOM      3  C   UNL     1       3.347  14.717  18.559  0.00  0.00    +0.000 C 
ATOM      4  C   UNL     1       3.256  14.991  20.054  0.00  0.00    +0.000 C 
ATOM      5  C   UNL     1       3.002  13.755  20.890  0.00  0.00    +0.000 C 
ATOM      6  N   UNL     1       1.798  13.066  20.441  0.00  0.00    +0.000 NA
ATOM      7  C   UNL     1       2.048  12.541  19.095  0.00  0.00    +0.000 C 
ATOM      8  C   UNL     1       2.458  13.583  18.041  0.00  0.00    +0.000 C 
ENDROOT
BRANCH   1  13
ATOM      9  N   UNL     1       9.641  13.684  18.750  0.00  0.00    +0.000 NA
ATOM     10  C   UNL     1       9.098  14.553  19.824  0.00  0.00    +0.000 C 
ATOM     11  C   UNL     1       8.013  15.545  19.370  0.00  0.00    +0.000 C 
ATOM     12  N   UNL     1       6.938  14.931  18.608  0.00  0.00    +0.000 N 
ATOM     13  C   UNL     1       5.799  15.728  18.430  0.00  0.00    +0.000 C 
ATOM     14  O   UNL     1       5.752  16.877  18.863  0.00  0.00    +0.000 OA
ATOM     15  C   UNL     1       7.364  13.941  17.607  0.00  0.00    +0.000 C 
ATOM     16  C   UNL     1       8.481  13.008  18.123  0.00  0.00    +0.000 C 
BRANCH   9  18
ATOM     17  C   UNL     1      11.666  15.125  18.575  0.00  0.00    +0.000 C 
ATOM     18  C   UNL     1      10.533  14.409  17.812  0.00  0.00    +0.000 C 
ATOM     19  C   UNL     1      11.213  13.498  16.774  0.00  0.00    +0.000 C 
ENDBRANCH   9  18
ENDBRANCH   1  13
BRANCH   6  20
ATOM     20  C   UNL     1       0.467  13.676  20.700  0.00  0.00    +0.000 C 
ATOM     21  C   UNL     1      -0.663  12.975  19.920  0.00  0.00    +0.000 C 
ATOM     22  C   UNL     1      -1.358  11.890  20.730  0.00  0.00    +0.000 C 
ATOM     23  O   UNL     1      -1.970  12.469  21.878  0.00  0.00    +0.000 OA
ATOM     24  C   UNL     1      -1.027  13.021  22.786  0.00  0.00    +0.000 C 
ATOM     25  C   UNL     1      -0.065  14.016  22.120  0.00  0.00    +0.000 C 
ENDBRANCH   6  20
TORSDOF 3
ENDMDL
