MODEL 1
REMARK VINA RESULT:      -6.6      0.000      0.000
REMARK  Name = 
REMARK  5 active torsions:
REMARK  status: ('A' for Active; 'I' for Inactive)
REMARK    1  A    between atoms: C_1  and  O_2
REMARK    2  A    between atoms: O_2  and  C_3
REMARK    3  A    between atoms: C_8  and  C_9
REMARK    4  A    between atoms: N_10  and  N_11
REMARK    5  A    between atoms: N_14  and  O_15
REMARK                            x       y       z     vdW  Elec       q    Type
REMARK                         _______ _______ _______ _____ _____    ______ ____
ROOT
ATOM      1  C   UNL     1       4.884   3.465  18.955  0.00  0.00    +0.000 C 
ATOM      2  N   UNL     1       5.633   4.520  19.112  0.00  0.00    +0.000 NA
ENDROOT
BRANCH   2   3
ATOM      3  N   UNL     1       6.825   4.385  18.391  0.00  0.00    +0.000 NA
ATOM      4  C   UNL     1       6.695   4.720  17.137  0.00  0.00    +0.000 C 
ATOM      5  N   UNL     1       5.531   5.156  16.573  0.00  0.00    +0.000 N 
ATOM      6  N   UNL     1       7.754   4.645  16.267  0.00  0.00    +0.000 N 
ATOM      7  H   UNL     1       4.896   5.398  17.332  0.00  0.00    +0.000 HD
ATOM      8  H   UNL     1       5.703   5.944  15.962  0.00  0.00    +0.000 HD
ATOM      9  H   UNL     1       8.654   4.635  16.736  0.00  0.00    +0.000 HD
BRANCH   6  10
ATOM     10  O   UNL     1       7.676   5.480  15.147  0.00  0.00    +0.000 OA
ATOM     11  H   UNL     1       8.196   6.255  15.437  0.00  0.00    +0.000 HD
ENDBRANCH   6  10
ENDBRANCH   2   3
BRANCH   1  17
ATOM     12  C   UNL     1       2.444   4.126  19.055  0.00  0.00    +0.000 A 
ATOM     13  C   UNL     1       1.271   4.191  19.821  0.00  0.00    +0.000 A 
ATOM     14  C   UNL     1       1.152   3.493  21.023  0.00  0.00    +0.000 A 
ATOM     15  C   UNL     1       2.198   2.692  21.461  0.00  0.00    +0.000 A 
ATOM     16  C   UNL     1       3.379   2.629  20.721  0.00  0.00    +0.000 A 
ATOM     17  C   UNL     1       3.527   3.378  19.540  0.00  0.00    +0.000 A 
BRANCH  12  19
ATOM     18  C   UNL     1       2.533   6.385  18.285  0.00  0.00    +0.000 C 
ATOM     19  O   UNL     1       2.450   4.996  17.998  0.00  0.00    +0.000 OA
ENDBRANCH  12  19
ENDBRANCH   1  17
TORSDOF 4
ENDMDL
MODEL 2
REMARK VINA RESULT:      -6.6      1.939      2.271
REMARK  Name = 
REMARK  5 active torsions:
REMARK  status: ('A' for Active; 'I' for Inactive)
REMARK    1  A    between atoms: C_1  and  O_2
REMARK    2  A    between atoms: O_2  and  C_3
REMARK    3  A    between atoms: C_8  and  C_9
REMARK    4  A    between atoms: N_10  and  N_11
REMARK    5  A    between atoms: N_14  and  O_15
REMARK                            x       y       z     vdW  Elec       q    Type
REMARK                         _______ _______ _______ _____ _____    ______ ____
ROOT
ATOM      1  C   UNL     1       4.576   4.688  16.973  0.00  0.00    +0.000 C 
ATOM      2  N   UNL     1       5.565   4.036  16.431  0.00  0.00    +0.000 NA
ENDROOT
BRANCH   2   3
ATOM      3  N   UNL     1       6.577   4.920  16.040  0.00  0.00    +0.000 NA
ATOM      4  C   UNL     1       6.967   4.725  14.810  0.00  0.00    +0.000 C 
ATOM      5  N   UNL     1       6.456   3.768  13.982  0.00  0.00    +0.000 N 
ATOM      6  N   UNL     1       7.960   5.490  14.249  0.00  0.00    +0.000 N 
ATOM      7  H   UNL     1       5.591   3.433  14.402  0.00  0.00    +0.000 HD
ATOM      8  H   UNL     1       6.304   4.142  13.054  0.00  0.00    +0.000 HD
ATOM      9  H   UNL     1       8.104   6.371  14.731  0.00  0.00    +0.000 HD
BRANCH   6  10
ATOM     10  O   UNL     1       7.943   5.571  12.852  0.00  0.00    +0.000 OA
ATOM     11  H   UNL     1       7.017   5.336  12.648  0.00  0.00    +0.000 HD
ENDBRANCH   6  10
ENDBRANCH   2   3
BRANCH   1  17
ATOM     12  C   UNL     1       2.323   4.675  18.125  0.00  0.00    +0.000 A 
ATOM     13  C   UNL     1       1.392   3.953  18.885  0.00  0.00    +0.000 A 
ATOM     14  C   UNL     1       1.504   2.571  19.043  0.00  0.00    +0.000 A 
ATOM     15  C   UNL     1       2.535   1.886  18.413  0.00  0.00    +0.000 A 
ATOM     16  C   UNL     1       3.479   2.591  17.667  0.00  0.00    +0.000 A 
ATOM     17  C   UNL     1       3.407   3.991  17.554  0.00  0.00    +0.000 A 
BRANCH  12  19
ATOM     18  C   UNL     1       2.508   6.663  19.434  0.00  0.00    +0.000 C 
ATOM     19  O   UNL     1       2.158   6.031  18.211  0.00  0.00    +0.000 OA
ENDBRANCH  12  19
ENDBRANCH   1  17
TORSDOF 4
ENDMDL
MODEL 3
REMARK VINA RESULT:      -6.5      1.771      2.058
REMARK  Name = 
REMARK  5 active torsions:
REMARK  status: ('A' for Active; 'I' for Inactive)
REMARK    1  A    between atoms: C_1  and  O_2
REMARK    2  A    between atoms: O_2  and  C_3
REMARK    3  A    between atoms: C_8  and  C_9
REMARK    4  A    between atoms: N_10  and  N_11
REMARK    5  A    between atoms: N_14  and  O_15
REMARK                            x       y       z     vdW  Elec       q    Type
REMARK                         _______ _______ _______ _____ _____    ______ ____
ROOT
ATOM      1  C   UNL     1       3.610   5.422  17.733  0.00  0.00    +0.000 C 
ATOM      2  N   UNL     1       4.853   5.164  18.025  0.00  0.00    +0.000 NA
ENDROOT
BRANCH   2   3
ATOM      3  N   UNL     1       5.709   5.996  17.294  0.00  0.00    +0.000 NA
ATOM      4  C   UNL     1       6.506   5.330  16.505  0.00  0.00    +0.000 C 
ATOM      5  N   UNL     1       6.518   3.969  16.392  0.00  0.00    +0.000 N 
ATOM      6  N   UNL     1       7.425   5.972  15.713  0.00  0.00    +0.000 N 
ATOM      7  H   UNL     1       5.663   3.620  16.823  0.00  0.00    +0.000 HD
ATOM      8  H   UNL     1       6.589   3.691  15.422  0.00  0.00    +0.000 HD
ATOM      9  H   UNL     1       7.204   6.951  15.561  0.00  0.00    +0.000 HD
BRANCH   6  10
ATOM     10  O   UNL     1       7.838   5.271  14.575  0.00  0.00    +0.000 OA
ATOM     11  H   UNL     1       7.591   5.888  13.859  0.00  0.00    +0.000 HD
ENDBRANCH   6  10
ENDBRANCH   2   3
BRANCH   1  17
ATOM     12  C   UNL     1       1.984   5.185  19.657  0.00  0.00    +0.000 A 
ATOM     13  C   UNL     1       1.115   4.345  20.369  0.00  0.00    +0.000 A 
ATOM     14  C   UNL     1       0.717   3.111  19.853  0.00  0.00    +0.000 A 
ATOM     15  C   UNL     1       1.159   2.714  18.598  0.00  0.00    +0.000 A 
ATOM     16  C   UNL     1       2.037   3.528  17.883  0.00  0.00    +0.000 A 
ATOM     17  C   UNL     1       2.490   4.745  18.424  0.00  0.00    +0.000 A 
BRANCH  12  19
ATOM     18  C   UNL     1       1.405   7.180  20.835  0.00  0.00    +0.000 C 
ATOM     19  O   UNL     1       2.398   6.272  20.376  0.00  0.00    +0.000 OA
ENDBRANCH  12  19
ENDBRANCH   1  17
TORSDOF 4
ENDMDL
MODEL 4
REMARK VINA RESULT:      -6.5      1.612      2.319
REMARK  Name = 
REMARK  5 active torsions:
REMARK  status: ('A' for Active; 'I' for Inactive)
REMARK    1  A    between atoms: C_1  and  O_2
REMARK    2  A    between atoms: O_2  and  C_3
REMARK    3  A    between atoms: C_8  and  C_9
REMARK    4  A    between atoms: N_10  and  N_11
REMARK    5  A    between atoms: N_14  and  O_15
REMARK                            x       y       z     vdW  Elec       q    Type
REMARK                         _______ _______ _______ _____ _____    ______ ____
ROOT
ATOM      1  C   UNL     1       4.272   5.395  18.857  0.00  0.00    +0.000 C 
ATOM      2  N   UNL     1       4.416   5.217  17.575  0.00  0.00    +0.000 NA
ENDROOT
BRANCH   2   3
ATOM      3  N   UNL     1       5.484   5.982  17.091  0.00  0.00    +0.000 NA
ATOM      4  C   UNL     1       6.298   5.291  16.342  0.00  0.00    +0.000 C 
ATOM      5  N   UNL     1       6.142   3.966  16.051  0.00  0.00    +0.000 N 
ATOM      6  N   UNL     1       7.412   5.867  15.783  0.00  0.00    +0.000 N 
ATOM      7  H   UNL     1       5.189   3.709  16.305  0.00  0.00    +0.000 HD
ATOM      8  H   UNL     1       6.330   3.791  15.073  0.00  0.00    +0.000 HD
ATOM      9  H   UNL     1       7.354   6.879  15.732  0.00  0.00    +0.000 HD
BRANCH   6  10
ATOM     10  O   UNL     1       7.902   5.241  14.632  0.00  0.00    +0.000 OA
ATOM     11  H   UNL     1       8.203   4.380  14.983  0.00  0.00    +0.000 HD
ENDBRANCH   6  10
ENDBRANCH   2   3
BRANCH   1  17
ATOM     12  C   UNL     1       3.307   3.246  19.779  0.00  0.00    +0.000 A 
ATOM     13  C   UNL     1       2.186   2.588  20.305  0.00  0.00    +0.000 A 
ATOM     14  C   UNL     1       1.064   3.299  20.731  0.00  0.00    +0.000 A 
ATOM     15  C   UNL     1       1.061   4.686  20.666  0.00  0.00    +0.000 A 
ATOM     16  C   UNL     1       2.160   5.356  20.130  0.00  0.00    +0.000 A 
ATOM     17  C   UNL     1       3.269   4.642  19.642  0.00  0.00    +0.000 A 
BRANCH  12  19
ATOM     18  C   UNL     1       3.798   1.389  18.360  0.00  0.00    +0.000 C 
ATOM     19  O   UNL     1       4.243   2.393  19.261  0.00  0.00    +0.000 OA
ENDBRANCH  12  19
ENDBRANCH   1  17
TORSDOF 4
ENDMDL
MODEL 5
REMARK VINA RESULT:      -6.4      2.021      2.845
REMARK  Name = 
REMARK  5 active torsions:
REMARK  status: ('A' for Active; 'I' for Inactive)
REMARK    1  A    between atoms: C_1  and  O_2
REMARK    2  A    between atoms: O_2  and  C_3
REMARK    3  A    between atoms: C_8  and  C_9
REMARK    4  A    between atoms: N_10  and  N_11
REMARK    5  A    between atoms: N_14  and  O_15
REMARK                            x       y       z     vdW  Elec       q    Type
REMARK                         _______ _______ _______ _____ _____    ______ ____
ROOT
ATOM      1  C   UNL     1       4.454   3.929  16.193  0.00  0.00    +0.000 C 
ATOM      2  N   UNL     1       5.749   3.802  16.133  0.00  0.00    +0.000 NA
ENDROOT
BRANCH   2   3
ATOM      3  N   UNL     1       6.197   3.973  14.818  0.00  0.00    +0.000 NA
ATOM      4  C   UNL     1       7.049   4.953  14.700  0.00  0.00    +0.000 C 
ATOM      5  N   UNL     1       7.468   5.739  15.735  0.00  0.00    +0.000 N 
ATOM      6  N   UNL     1       7.593   5.281  13.483  0.00  0.00    +0.000 N 
ATOM      7  H   UNL     1       7.201   5.271  16.600  0.00  0.00    +0.000 HD
ATOM      8  H   UNL     1       8.467   5.893  15.685  0.00  0.00    +0.000 HD
ATOM      9  H   UNL     1       7.536   4.527  12.805  0.00  0.00    +0.000 HD
BRANCH   6  10
ATOM     10  O   UNL     1       8.823   5.946  13.530  0.00  0.00    +0.000 OA
ATOM     11  H   UNL     1       8.975   6.155  12.588  0.00  0.00    +0.000 HD
ENDBRANCH   6  10
ENDBRANCH   2   3
BRANCH   1  17
ATOM     12  C   UNL     1       4.375   3.918  18.721  0.00  0.00    +0.000 A 
ATOM     13  C   UNL     1       3.646   3.600  19.876  0.00  0.00    +0.000 A 
ATOM     14  C   UNL     1       2.287   3.291  19.812  0.00  0.00    +0.000 A 
ATOM     15  C   UNL     1       1.628   3.329  18.590  0.00  0.00    +0.000 A 
ATOM     16  C   UNL     1       2.341   3.627  17.429  0.00  0.00    +0.000 A 
ATOM     17  C   UNL     1       3.724   3.880  17.479  0.00  0.00    +0.000 A 
BRANCH  12  19
ATOM     18  C   UNL     1       6.232   5.318  19.263  0.00  0.00    +0.000 C 
ATOM     19  O   UNL     1       5.720   4.032  18.943  0.00  0.00    +0.000 OA
ENDBRANCH  12  19
ENDBRANCH   1  17
TORSDOF 4
ENDMDL
MODEL 6
REMARK VINA RESULT:      -6.4      1.994      2.925
REMARK  Name = 
REMARK  5 active torsions:
REMARK  status: ('A' for Active; 'I' for Inactive)
REMARK    1  A    between atoms: C_1  and  O_2
REMARK    2  A    between atoms: O_2  and  C_3
REMARK    3  A    between atoms: C_8  and  C_9
REMARK    4  A    between atoms: N_10  and  N_11
REMARK    5  A    between atoms: N_14  and  O_15
REMARK                            x       y       z     vdW  Elec       q    Type
REMARK                         _______ _______ _______ _____ _____    ______ ____
ROOT
ATOM      1  C   UNL     1       4.701   4.865  17.499  0.00  0.00    +0.000 C 
ATOM      2  N   UNL     1       5.303   4.320  16.481  0.00  0.00    +0.000 NA
ENDROOT
BRANCH   2   3
ATOM      3  N   UNL     1       6.397   5.098  16.085  0.00  0.00    +0.000 NA
ATOM      4  C   UNL     1       6.827   4.792  14.892  0.00  0.00    +0.000 C 
ATOM      5  N   UNL     1       6.283   3.820  14.103  0.00  0.00    +0.000 N 
ATOM      6  N   UNL     1       7.901   5.441  14.334  0.00  0.00    +0.000 N 
ATOM      7  H   UNL     1       5.376   3.579  14.498  0.00  0.00    +0.000 HD
ATOM      8  H   UNL     1       6.203   4.140  13.146  0.00  0.00    +0.000 HD
ATOM      9  H   UNL     1       8.090   6.340  14.765  0.00  0.00    +0.000 HD
BRANCH   6  10
ATOM     10  O   UNL     1       7.955   5.428  12.937  0.00  0.00    +0.000 OA
ATOM     11  H   UNL     1       7.897   4.472  12.742  0.00  0.00    +0.000 HD
ENDBRANCH   6  10
ENDBRANCH   2   3
BRANCH   1  17
ATOM     12  C   UNL     1       3.727   3.296  19.228  0.00  0.00    +0.000 A 
ATOM     13  C   UNL     1       2.629   2.521  19.631  0.00  0.00    +0.000 A 
ATOM     14  C   UNL     1       1.377   2.675  19.035  0.00  0.00    +0.000 A 
ATOM     15  C   UNL     1       1.198   3.633  18.045  0.00  0.00    +0.000 A 
ATOM     16  C   UNL     1       2.282   4.400  17.620  0.00  0.00    +0.000 A 
ATOM     17  C   UNL     1       3.560   4.208  18.175  0.00  0.00    +0.000 A 
BRANCH  12  19
ATOM     18  C   UNL     1       4.923   1.667  20.500  0.00  0.00    +0.000 C 
ATOM     19  O   UNL     1       4.906   2.903  19.799  0.00  0.00    +0.000 OA
ENDBRANCH  12  19
ENDBRANCH   1  17
TORSDOF 4
ENDMDL
MODEL 7
REMARK VINA RESULT:      -6.4      1.680      2.789
REMARK  Name = 
REMARK  5 active torsions:
REMARK  status: ('A' for Active; 'I' for Inactive)
REMARK    1  A    between atoms: C_1  and  O_2
REMARK    2  A    between atoms: O_2  and  C_3
REMARK    3  A    between atoms: C_8  and  C_9
REMARK    4  A    between atoms: N_10  and  N_11
REMARK    5  A    between atoms: N_14  and  O_15
REMARK                            x       y       z     vdW  Elec       q    Type
REMARK                         _______ _______ _______ _____ _____    ______ ____
ROOT
ATOM      1  C   UNL     1       4.184   4.718  17.091  0.00  0.00    +0.000 C 
ATOM      2  N   UNL     1       5.454   4.445  16.989  0.00  0.00    +0.000 NA
ENDROOT
BRANCH   2   3
ATOM      3  N   UNL     1       5.815   4.296  15.644  0.00  0.00    +0.000 NA
ATOM      4  C   UNL     1       6.725   5.153  15.270  0.00  0.00    +0.000 C 
ATOM      5  N   UNL     1       7.275   6.099  16.087  0.00  0.00    +0.000 N 
ATOM      6  N   UNL     1       7.201   5.169  13.983  0.00  0.00    +0.000 N 
ATOM      7  H   UNL     1       7.039   5.848  17.046  0.00  0.00    +0.000 HD
ATOM      8  H   UNL     1       8.276   6.152  15.948  0.00  0.00    +0.000 HD
ATOM      9  H   UNL     1       7.039   4.298  13.487  0.00  0.00    +0.000 HD
BRANCH   6  10
ATOM     10  O   UNL     1       8.476   5.720  13.816  0.00  0.00    +0.000 OA
ATOM     11  H   UNL     1       8.289   6.678  13.861  0.00  0.00    +0.000 HD
ENDBRANCH   6  10
ENDBRANCH   2   3
BRANCH   1  17
ATOM     12  C   UNL     1       3.260   4.008  19.337  0.00  0.00    +0.000 A 
ATOM     13  C   UNL     1       2.428   4.321  20.422  0.00  0.00    +0.000 A 
ATOM     14  C   UNL     1       1.928   5.612  20.600  0.00  0.00    +0.000 A 
ATOM     15  C   UNL     1       2.282   6.618  19.711  0.00  0.00    +0.000 A 
ATOM     16  C   UNL     1       3.094   6.320  18.617  0.00  0.00    +0.000 A 
ATOM     17  C   UNL     1       3.552   5.008  18.398  0.00  0.00    +0.000 A 
BRANCH  12  19
ATOM     18  C   UNL     1       4.443   2.096  20.142  0.00  0.00    +0.000 C 
ATOM     19  O   UNL     1       3.522   2.670  19.224  0.00  0.00    +0.000 OA
ENDBRANCH  12  19
ENDBRANCH   1  17
TORSDOF 4
ENDMDL
MODEL 8
REMARK VINA RESULT:      -6.4      1.006      1.006
REMARK  Name = 
REMARK  5 active torsions:
REMARK  status: ('A' for Active; 'I' for Inactive)
REMARK    1  A    between atoms: C_1  and  O_2
REMARK    2  A    between atoms: O_2  and  C_3
REMARK    3  A    between atoms: C_8  and  C_9
REMARK    4  A    between atoms: N_10  and  N_11
REMARK    5  A    between atoms: N_14  and  O_15
REMARK                            x       y       z     vdW  Elec       q    Type
REMARK                         _______ _______ _______ _____ _____    ______ ____
ROOT
ATOM      1  C   UNL     1       4.766   4.227  18.982  0.00  0.00    +0.000 C 
ATOM      2  N   UNL     1       4.949   4.091  17.700  0.00  0.00    +0.000 NA
ENDROOT
BRANCH   2   3
ATOM      3  N   UNL     1       6.260   4.439  17.353  0.00  0.00    +0.000 NA
ATOM      4  C   UNL     1       6.430   4.535  16.063  0.00  0.00    +0.000 C 
ATOM      5  N   UNL     1       5.450   4.321  15.138  0.00  0.00    +0.000 N 
ATOM      6  N   UNL     1       7.653   4.859  15.529  0.00  0.00    +0.000 N 
ATOM      7  H   UNL     1       4.559   4.327  15.632  0.00  0.00    +0.000 HD
ATOM      8  H   UNL     1       5.482   5.026  14.413  0.00  0.00    +0.000 HD
ATOM      9  H   UNL     1       8.269   5.316  16.194  0.00  0.00    +0.000 HD
BRANCH   6  10
ATOM     10  O   UNL     1       7.622   5.433  14.254  0.00  0.00    +0.000 OA
ATOM     11  H   UNL     1       6.881   4.953  13.835  0.00  0.00    +0.000 HD
ENDBRANCH   6  10
ENDBRANCH   2   3
BRANCH   1  17
ATOM     12  C   UNL     1       2.334   4.633  19.550  0.00  0.00    +0.000 A 
ATOM     13  C   UNL     1       1.260   4.346  20.405  0.00  0.00    +0.000 A 
ATOM     14  C   UNL     1       1.310   3.274  21.296  0.00  0.00    +0.000 A 
ATOM     15  C   UNL     1       2.428   2.450  21.320  0.00  0.00    +0.000 A 
ATOM     16  C   UNL     1       3.513   2.730  20.490  0.00  0.00    +0.000 A 
ATOM     17  C   UNL     1       3.493   3.846  19.633  0.00  0.00    +0.000 A 
BRANCH  12  19
ATOM     18  C   UNL     1       2.311   7.020  19.597  0.00  0.00    +0.000 C 
ATOM     19  O   UNL     1       2.184   5.808  18.866  0.00  0.00    +0.000 OA
ENDBRANCH  12  19
ENDBRANCH   1  17
TORSDOF 4
ENDMDL
MODEL 9
REMARK VINA RESULT:      -6.3      3.006      6.069
REMARK  Name = 
REMARK  5 active torsions:
REMARK  status: ('A' for Active; 'I' for Inactive)
REMARK    1  A    between atoms: C_1  and  O_2
REMARK    2  A    between atoms: O_2  and  C_3
REMARK    3  A    between atoms: C_8  and  C_9
REMARK    4  A    between atoms: N_10  and  N_11
REMARK    5  A    between atoms: N_14  and  O_15
REMARK                            x       y       z     vdW  Elec       q    Type
REMARK                         _______ _______ _______ _____ _____    ______ ____
ROOT
ATOM      1  C   UNL     1       3.879   4.584  17.948  0.00  0.00    +0.000 C 
ATOM      2  N   UNL     1       2.713   4.115  17.604  0.00  0.00    +0.000 NA
ENDROOT
BRANCH   2   3
ATOM      3  N   UNL     1       1.756   4.424  18.578  0.00  0.00    +0.000 NA
ATOM      4  C   UNL     1       1.539   3.435  19.401  0.00  0.00    +0.000 C 
ATOM      5  N   UNL     1       2.165   2.224  19.333  0.00  0.00    +0.000 N 
ATOM      6  N   UNL     1       0.625   3.545  20.419  0.00  0.00    +0.000 N 
ATOM      7  H   UNL     1       2.969   2.331  18.716  0.00  0.00    +0.000 HD
ATOM      8  H   UNL     1       2.439   1.912  20.256  0.00  0.00    +0.000 HD
ATOM      9  H   UNL     1       0.409   4.508  20.658  0.00  0.00    +0.000 HD
BRANCH   6  10
ATOM     10  O   UNL     1       0.831   2.694  21.510  0.00  0.00    +0.000 OA
ATOM     11  H   UNL     1       0.376   1.879  21.218  0.00  0.00    +0.000 HD
ENDBRANCH   6  10
ENDBRANCH   2   3
BRANCH   1  17
ATOM     12  C   UNL     1       6.375   4.555  17.534  0.00  0.00    +0.000 A 
ATOM     13  C   UNL     1       7.418   4.710  16.609  0.00  0.00    +0.000 A 
ATOM     14  C   UNL     1       7.170   4.739  15.236  0.00  0.00    +0.000 A 
ATOM     15  C   UNL     1       5.872   4.581  14.767  0.00  0.00    +0.000 A 
ATOM     16  C   UNL     1       4.821   4.443  15.673  0.00  0.00    +0.000 A 
ATOM     17  C   UNL     1       5.057   4.474  17.059  0.00  0.00    +0.000 A 
BRANCH  12  19
ATOM     18  C   UNL     1       7.693   5.758  19.121  0.00  0.00    +0.000 C 
ATOM     19  O   UNL     1       6.774   4.713  18.833  0.00  0.00    +0.000 OA
ENDBRANCH  12  19
ENDBRANCH   1  17
TORSDOF 4
ENDMDL
