MODEL 1
REMARK VINA RESULT:      -6.6      0.000      0.000
REMARK  Name = 
REMARK  8 active torsions:
REMARK  status: ('A' for Active; 'I' for Inactive)
REMARK    1  A    between atoms: C_1  and  O_2
REMARK    2  A    between atoms: O_2  and  C_3
REMARK    3  A    between atoms: C_7  and  C_8
REMARK    4  A    between atoms: N_10  and  C_11
REMARK    5  A    between atoms: C_14  and  O_15
REMARK    6  A    between atoms: C_21  and  O_22
REMARK    7  A    between atoms: N_28  and  C_29
REMARK    8  A    between atoms: C_29  and  C_30
REMARK                            x       y       z     vdW  Elec       q    Type
REMARK                         _______ _______ _______ _____ _____    ______ ____
ROOT
ATOM      1  C   UNL     1      -2.365  10.872  18.810  0.00  0.00    +0.000 C 
ATOM      2  C   UNL     1      -1.891  11.257  17.390  0.00  0.00    +0.000 C 
ATOM      3  C   UNL     1      -1.302  12.670  17.534  0.00  0.00    +0.000 C 
ATOM      4  C   UNL     1      -0.328  12.742  18.724  0.00  0.00    +0.000 C 
ATOM      5  C   UNL     1      -0.413  14.142  19.424  0.00  0.00    +0.000 C 
ATOM      6  C   UNL     1      -1.602  13.968  20.805  0.00  0.00    +0.000 C 
ATOM      7  C   UNL     1      -1.580  12.743  21.753  0.00  0.00    +0.000 A 
ATOM      8  C   UNL     1      -2.284  12.215  22.857  0.00  0.00    +0.000 A 
ATOM      9  C   UNL     1      -1.838  11.023  23.566  0.00  0.00    +0.000 A 
ATOM     10  C   UNL     1      -0.825  10.248  23.053  0.00  0.00    +0.000 A 
ATOM     11  C   UNL     1      -0.599  10.506  21.750  0.00  0.00    +0.000 A 
ATOM     12  C   UNL     1      -0.832  11.775  21.219  0.00  0.00    +0.000 A 
ATOM     13  C   UNL     1      -0.108  11.900  19.965  0.00  0.00    +0.000 C 
ATOM     14  C   UNL     1       1.244  12.504  20.851  0.00  0.00    +0.000 C 
ATOM     15  C   UNL     1       1.416  14.095  20.870  0.00  0.00    +0.000 C 
ATOM     16  N   UNL     1       1.009  14.685  19.611  0.00  0.00    +0.000 NA
ATOM     17  C   UNL     1      -0.810  10.575  19.590  0.00  0.00    +0.000 C 
ATOM     18  O   UNL     1      -0.783   9.632  20.698  0.00  0.00    +0.000 OA
ENDROOT
BRANCH   1  21
ATOM     19  C   UNL     1      -4.636  12.608  19.184  0.00  0.00    +0.000 C 
ATOM     20  O   UNL     1      -4.856  13.822  19.034  0.00  0.00    +0.000 OA
ATOM     21  N   UNL     1      -3.385  12.096  18.951  0.00  0.00    +0.000 N 
ATOM     22  H   UNL     1      -3.121  12.845  18.337  0.00  0.00    +0.000 HD
BRANCH  19  27
ATOM     23  C   UNL     1      -7.240  11.041  21.279  0.00  0.00    +0.000 A 
ATOM     24  C   UNL     1      -7.515   9.922  20.492  0.00  0.00    +0.000 A 
ATOM     25  C   UNL     1      -6.950   9.727  19.241  0.00  0.00    +0.000 A 
ATOM     26  C   UNL     1      -6.043  10.644  18.764  0.00  0.00    +0.000 A 
ATOM     27  C   UNL     1      -5.693  11.709  19.601  0.00  0.00    +0.000 A 
ATOM     28  C   UNL     1      -6.347  11.972  20.828  0.00  0.00    +0.000 A 
BRANCH  23  30
ATOM     29  C   UNL     1      -7.542  12.112  23.387  0.00  0.00    +0.000 C 
ATOM     30  O   UNL     1      -7.914  11.093  22.460  0.00  0.00    +0.000 OA
ENDBRANCH  23  30
ENDBRANCH  19  27
ENDBRANCH   1  21
BRANCH   4  31
ATOM     31  O   UNL     1       0.790  12.130  17.997  0.00  0.00    +0.000 OA
ATOM     32  H   UNL     1       0.642  11.205  17.743  0.00  0.00    +0.000 HD
ENDBRANCH   4  31
BRANCH  10  33
ATOM     33  O   UNL     1       0.024   9.523  23.831  0.00  0.00    +0.000 OA
ATOM     34  H   UNL     1       0.939   9.727  23.547  0.00  0.00    +0.000 HD
ENDBRANCH  10  33
BRANCH  16  35
ATOM     35  C   UNL     1       1.963  14.197  18.560  0.00  0.00    +0.000 C 
BRANCH  35  36
ATOM     36  C   UNL     1       3.311  14.606  18.085  0.00  0.00    +0.000 C 
ATOM     37  C   UNL     1       3.420  15.807  17.201  0.00  0.00    +0.000 C 
ATOM     38  C   UNL     1       4.166  15.745  18.509  0.00  0.00    +0.000 C 
ENDBRANCH  35  36
ENDBRANCH  16  35
TORSDOF 7
ENDMDL
MODEL 2
REMARK VINA RESULT:      -6.4      3.308      5.894
REMARK  Name = 
REMARK  8 active torsions:
REMARK  status: ('A' for Active; 'I' for Inactive)
REMARK    1  A    between atoms: C_1  and  O_2
REMARK    2  A    between atoms: O_2  and  C_3
REMARK    3  A    between atoms: C_7  and  C_8
REMARK    4  A    between atoms: N_10  and  C_11
REMARK    5  A    between atoms: C_14  and  O_15
REMARK    6  A    between atoms: C_21  and  O_22
REMARK    7  A    between atoms: N_28  and  C_29
REMARK    8  A    between atoms: C_29  and  C_30
REMARK                            x       y       z     vdW  Elec       q    Type
REMARK                         _______ _______ _______ _____ _____    ______ ____
ROOT
ATOM      1  C   UNL     1      -2.319  12.218  22.204  0.00  0.00    +0.000 C 
ATOM      2  C   UNL     1      -1.018  12.436  23.012  0.00  0.00    +0.000 C 
ATOM      3  C   UNL     1      -0.794  13.957  23.009  0.00  0.00    +0.000 C 
ATOM      4  C   UNL     1      -2.083  14.704  23.397  0.00  0.00    +0.000 C 
ATOM      5  C   UNL     1      -2.199  16.053  22.608  0.00  0.00    +0.000 C 
ATOM      6  C   UNL     1      -3.214  15.708  21.124  0.00  0.00    +0.000 C 
ATOM      7  C   UNL     1      -4.508  14.859  21.197  0.00  0.00    +0.000 A 
ATOM      8  C   UNL     1      -5.516  14.348  20.353  0.00  0.00    +0.000 A 
ATOM      9  C   UNL     1      -6.687  13.653  20.872  0.00  0.00    +0.000 A 
ATOM     10  C   UNL     1      -6.748  13.289  22.196  0.00  0.00    +0.000 A 
ATOM     11  C   UNL     1      -5.537  13.316  22.785  0.00  0.00    +0.000 A 
ATOM     12  C   UNL     1      -4.552  14.208  22.361  0.00  0.00    +0.000 A 
ATOM     13  C   UNL     1      -3.555  14.341  23.410  0.00  0.00    +0.000 C 
ATOM     14  C   UNL     1      -4.475  15.646  24.065  0.00  0.00    +0.000 C 
ATOM     15  C   UNL     1      -3.972  17.117  23.687  0.00  0.00    +0.000 C 
ATOM     16  N   UNL     1      -2.527  17.176  23.601  0.00  0.00    +0.000 NA
ATOM     17  C   UNL     1      -3.511  12.796  23.370  0.00  0.00    +0.000 C 
ATOM     18  O   UNL     1      -4.851  12.233  23.297  0.00  0.00    +0.000 OA
ENDROOT
BRANCH   1  21
ATOM     19  C   UNL     1      -1.560  12.896  19.507  0.00  0.00    +0.000 C 
ATOM     20  O   UNL     1      -0.869  13.783  18.978  0.00  0.00    +0.000 OA
ATOM     21  N   UNL     1      -1.762  12.889  20.864  0.00  0.00    +0.000 N 
ATOM     22  H   UNL     1      -0.931  13.420  21.055  0.00  0.00    +0.000 HD
BRANCH  19  27
ATOM     23  C   UNL     1      -4.136  10.837  17.846  0.00  0.00    +0.000 A 
ATOM     24  C   UNL     1      -3.329   9.791  17.398  0.00  0.00    +0.000 A 
ATOM     25  C   UNL     1      -1.948   9.799  17.527  0.00  0.00    +0.000 A 
ATOM     26  C   UNL     1      -1.341  10.855  18.166  0.00  0.00    +0.000 A 
ATOM     27  C   UNL     1      -2.163  11.849  18.706  0.00  0.00    +0.000 A 
ATOM     28  C   UNL     1      -3.559  11.901  18.480  0.00  0.00    +0.000 A 
BRANCH  23  30
ATOM     29  C   UNL     1      -6.343  10.633  18.724  0.00  0.00    +0.000 C 
ATOM     30  O   UNL     1      -5.466  10.684  17.600  0.00  0.00    +0.000 OA
ENDBRANCH  23  30
ENDBRANCH  19  27
ENDBRANCH   1  21
BRANCH   4  31
ATOM     31  O   UNL     1      -1.919  14.477  24.838  0.00  0.00    +0.000 OA
ATOM     32  H   UNL     1      -1.210  15.001  25.246  0.00  0.00    +0.000 HD
ENDBRANCH   4  31
BRANCH  10  33
ATOM     33  O   UNL     1      -7.916  13.191  22.888  0.00  0.00    +0.000 OA
ATOM     34  H   UNL     1      -7.848  13.770  23.674  0.00  0.00    +0.000 HD
ENDBRANCH  10  33
BRANCH  16  35
ATOM     35  C   UNL     1      -1.987  16.915  24.976  0.00  0.00    +0.000 C 
BRANCH  35  36
ATOM     36  C   UNL     1      -1.057  17.621  25.898  0.00  0.00    +0.000 C 
ATOM     37  C   UNL     1      -0.572  16.896  27.112  0.00  0.00    +0.000 C 
ATOM     38  C   UNL     1       0.404  17.439  26.101  0.00  0.00    +0.000 C 
ENDBRANCH  35  36
ENDBRANCH  16  35
TORSDOF 7
ENDMDL
MODEL 3
REMARK VINA RESULT:      -6.4      2.993      7.219
REMARK  Name = 
REMARK  8 active torsions:
REMARK  status: ('A' for Active; 'I' for Inactive)
REMARK    1  A    between atoms: C_1  and  O_2
REMARK    2  A    between atoms: O_2  and  C_3
REMARK    3  A    between atoms: C_7  and  C_8
REMARK    4  A    between atoms: N_10  and  C_11
REMARK    5  A    between atoms: C_14  and  O_15
REMARK    6  A    between atoms: C_21  and  O_22
REMARK    7  A    between atoms: N_28  and  C_29
REMARK    8  A    between atoms: C_29  and  C_30
REMARK                            x       y       z     vdW  Elec       q    Type
REMARK                         _______ _______ _______ _____ _____    ______ ____
ROOT
ATOM      1  C   UNL     1       0.162  11.409  18.645  0.00  0.00    +0.000 C 
ATOM      2  C   UNL     1      -1.088  10.565  18.305  0.00  0.00    +0.000 C 
ATOM      3  C   UNL     1      -1.998  10.682  19.539  0.00  0.00    +0.000 C 
ATOM      4  C   UNL     1      -2.149  12.151  19.974  0.00  0.00    +0.000 C 
ATOM      5  C   UNL     1      -2.249  12.257  21.535  0.00  0.00    +0.000 C 
ATOM      6  C   UNL     1      -0.555  12.571  22.150  0.00  0.00    +0.000 C 
ATOM      7  C   UNL     1       0.388  13.592  21.467  0.00  0.00    +0.000 A 
ATOM      8  C   UNL     1       1.702  14.096  21.577  0.00  0.00    +0.000 A 
ATOM      9  C   UNL     1       2.184  15.200  20.757  0.00  0.00    +0.000 A 
ATOM     10  C   UNL     1       1.436  15.656  19.697  0.00  0.00    +0.000 A 
ATOM     11  C   UNL     1       0.485  14.774  19.331  0.00  0.00    +0.000 A 
ATOM     12  C   UNL     1      -0.095  13.915  20.265  0.00  0.00    +0.000 A 
ATOM     13  C   UNL     1      -1.350  13.416  19.729  0.00  0.00    +0.000 C 
ATOM     14  C   UNL     1      -2.150  14.764  20.450  0.00  0.00    +0.000 C 
ATOM     15  C   UNL     1      -2.874  14.482  21.849  0.00  0.00    +0.000 C 
ATOM     16  N   UNL     1      -3.445  13.151  21.890  0.00  0.00    +0.000 NA
ATOM     17  C   UNL     1      -0.507  13.034  18.491  0.00  0.00    +0.000 C 
ATOM     18  O   UNL     1       0.408  14.106  18.126  0.00  0.00    +0.000 OA
ENDROOT
BRANCH   1  21
ATOM     19  C   UNL     1       1.066   9.444  20.552  0.00  0.00    +0.000 C 
ATOM     20  O   UNL     1       0.993   9.309  21.786  0.00  0.00    +0.000 OA
ATOM     21  N   UNL     1       0.551  10.561  19.945  0.00  0.00    +0.000 N 
ATOM     22  H   UNL     1      -0.092  10.752  20.693  0.00  0.00    +0.000 HD
BRANCH  19  27
ATOM     23  C   UNL     1       2.585   6.231  19.556  0.00  0.00    +0.000 A 
ATOM     24  C   UNL     1       3.043   6.586  18.286  0.00  0.00    +0.000 A 
ATOM     25  C   UNL     1       2.768   7.815  17.705  0.00  0.00    +0.000 A 
ATOM     26  C   UNL     1       2.056   8.750  18.419  0.00  0.00    +0.000 A 
ATOM     27  C   UNL     1       1.690   8.428  19.730  0.00  0.00    +0.000 A 
ATOM     28  C   UNL     1       1.871   7.138  20.286  0.00  0.00    +0.000 A 
BRANCH  23  30
ATOM     29  C   UNL     1       2.203   4.427  21.066  0.00  0.00    +0.000 C 
ATOM     30  O   UNL     1       2.911   4.971  19.953  0.00  0.00    +0.000 OA
ENDBRANCH  23  30
ENDBRANCH  19  27
ENDBRANCH   1  21
BRANCH   4  31
ATOM     31  O   UNL     1      -3.150  12.474  18.951  0.00  0.00    +0.000 OA
ATOM     32  H   UNL     1      -4.013  12.740  19.308  0.00  0.00    +0.000 HD
ENDBRANCH   4  31
BRANCH  10  33
ATOM     33  O   UNL     1       1.468  16.945  19.264  0.00  0.00    +0.000 OA
ATOM     34  H   UNL     1       2.350  17.311  19.477  0.00  0.00    +0.000 HD
ENDBRANCH  10  33
BRANCH  16  35
ATOM     35  C   UNL     1      -4.536  13.101  20.862  0.00  0.00    +0.000 C 
BRANCH  35  36
ATOM     36  C   UNL     1      -6.022  13.049  20.899  0.00  0.00    +0.000 C 
ATOM     37  C   UNL     1      -6.700  11.774  20.515  0.00  0.00    +0.000 C 
ATOM     38  C   UNL     1      -6.928  12.386  21.873  0.00  0.00    +0.000 C 
ENDBRANCH  35  36
ENDBRANCH  16  35
TORSDOF 7
ENDMDL
MODEL 4
REMARK VINA RESULT:      -6.4      1.262      1.496
REMARK  Name = 
REMARK  8 active torsions:
REMARK  status: ('A' for Active; 'I' for Inactive)
REMARK    1  A    between atoms: C_1  and  O_2
REMARK    2  A    between atoms: O_2  and  C_3
REMARK    3  A    between atoms: C_7  and  C_8
REMARK    4  A    between atoms: N_10  and  C_11
REMARK    5  A    between atoms: C_14  and  O_15
REMARK    6  A    between atoms: C_21  and  O_22
REMARK    7  A    between atoms: N_28  and  C_29
REMARK    8  A    between atoms: C_29  and  C_30
REMARK                            x       y       z     vdW  Elec       q    Type
REMARK                         _______ _______ _______ _____ _____    ______ ____
ROOT
ATOM      1  C   UNL     1      -1.758  11.341  18.851  0.00  0.00    +0.000 C 
ATOM      2  C   UNL     1      -1.543  12.203  17.586  0.00  0.00    +0.000 C 
ATOM      3  C   UNL     1      -0.874  13.493  18.090  0.00  0.00    +0.000 C 
ATOM      4  C   UNL     1       0.309  13.173  19.021  0.00  0.00    +0.000 C 
ATOM      5  C   UNL     1       0.420  14.243  20.161  0.00  0.00    +0.000 C 
ATOM      6  C   UNL     1      -0.493  13.576  21.599  0.00  0.00    +0.000 C 
ATOM      7  C   UNL     1      -0.349  12.100  22.047  0.00  0.00    +0.000 A 
ATOM      8  C   UNL     1      -0.854  11.208  23.017  0.00  0.00    +0.000 A 
ATOM      9  C   UNL     1      -0.338   9.855  23.175  0.00  0.00    +0.000 A 
ATOM     10  C   UNL     1       0.525   9.328  22.243  0.00  0.00    +0.000 A 
ATOM     11  C   UNL     1       0.513  10.025  21.090  0.00  0.00    +0.000 A 
ATOM     12  C   UNL     1       0.241  11.393  21.081  0.00  0.00    +0.000 A 
ATOM     13  C   UNL     1       0.720  11.960  19.832  0.00  0.00    +0.000 C 
ATOM     14  C   UNL     1       2.242  12.252  20.593  0.00  0.00    +0.000 C 
ATOM     15  C   UNL     1       2.485  13.742  21.122  0.00  0.00    +0.000 C 
ATOM     16  N   UNL     1       1.876  14.722  20.245  0.00  0.00    +0.000 NA
ATOM     17  C   UNL     1      -0.099  10.830  19.168  0.00  0.00    +0.000 C 
ATOM     18  O   UNL     1       0.095   9.563  19.858  0.00  0.00    +0.000 OA
ENDROOT
BRANCH   1  21
ATOM     19  C   UNL     1      -3.900  12.932  19.942  0.00  0.00    +0.000 C 
ATOM     20  O   UNL     1      -3.978  14.011  20.555  0.00  0.00    +0.000 OA
ATOM     21  N   UNL     1      -2.677  12.418  19.597  0.00  0.00    +0.000 N 
ATOM     22  H   UNL     1      -2.220  13.312  19.621  0.00  0.00    +0.000 HD
BRANCH  19  27
ATOM     23  C   UNL     1      -6.946  10.870  20.256  0.00  0.00    +0.000 A 
ATOM     24  C   UNL     1      -7.207  10.652  18.902  0.00  0.00    +0.000 A 
ATOM     25  C   UNL     1      -6.477  11.255  17.890  0.00  0.00    +0.000 A 
ATOM     26  C   UNL     1      -5.417  12.068  18.220  0.00  0.00    +0.000 A 
ATOM     27  C   UNL     1      -5.095  12.200  19.575  0.00  0.00    +0.000 A 
ATOM     28  C   UNL     1      -5.903  11.677  20.613  0.00  0.00    +0.000 A 
BRANCH  23  30
ATOM     29  C   UNL     1      -7.910   8.815  20.984  0.00  0.00    +0.000 C 
ATOM     30  O   UNL     1      -7.787  10.231  21.114  0.00  0.00    +0.000 OA
ENDBRANCH  23  30
ENDBRANCH  19  27
ENDBRANCH   1  21
BRANCH   4  31
ATOM     31  O   UNL     1       1.241  12.875  17.927  0.00  0.00    +0.000 OA
ATOM     32  H   UNL     1       1.730  12.043  18.036  0.00  0.00    +0.000 HD
ENDBRANCH   4  31
BRANCH  10  33
ATOM     33  O   UNL     1       1.472   8.399  22.546  0.00  0.00    +0.000 OA
ATOM     34  H   UNL     1       1.868   8.089  21.706  0.00  0.00    +0.000 HD
ENDBRANCH  10  33
BRANCH  16  35
ATOM     35  C   UNL     1       2.591  14.647  18.928  0.00  0.00    +0.000 C 
BRANCH  35  36
ATOM     36  C   UNL     1       2.919  15.615  17.848  0.00  0.00    +0.000 C 
ATOM     37  C   UNL     1       2.293  16.972  17.893  0.00  0.00    +0.000 C 
ATOM     38  C   UNL     1       3.791  16.818  17.880  0.00  0.00    +0.000 C 
ENDBRANCH  35  36
ENDBRANCH  16  35
TORSDOF 7
ENDMDL
MODEL 5
REMARK VINA RESULT:      -6.2      3.415      6.439
REMARK  Name = 
REMARK  8 active torsions:
REMARK  status: ('A' for Active; 'I' for Inactive)
REMARK    1  A    between atoms: C_1  and  O_2
REMARK    2  A    between atoms: O_2  and  C_3
REMARK    3  A    between atoms: C_7  and  C_8
REMARK    4  A    between atoms: N_10  and  C_11
REMARK    5  A    between atoms: C_14  and  O_15
REMARK    6  A    between atoms: C_21  and  O_22
REMARK    7  A    between atoms: N_28  and  C_29
REMARK    8  A    between atoms: C_29  and  C_30
REMARK                            x       y       z     vdW  Elec       q    Type
REMARK                         _______ _______ _______ _____ _____    ______ ____
ROOT
ATOM      1  C   UNL     1      -2.215  12.440  22.085  0.00  0.00    +0.000 C 
ATOM      2  C   UNL     1      -1.008  12.720  23.009  0.00  0.00    +0.000 C 
ATOM      3  C   UNL     1      -0.922  14.252  23.104  0.00  0.00    +0.000 C 
ATOM      4  C   UNL     1      -2.299  14.862  23.421  0.00  0.00    +0.000 C 
ATOM      5  C   UNL     1      -2.474  16.241  22.696  0.00  0.00    +0.000 C 
ATOM      6  C   UNL     1      -3.332  15.898  21.116  0.00  0.00    +0.000 C 
ATOM      7  C   UNL     1      -4.546  14.939  21.035  0.00  0.00    +0.000 A 
ATOM      8  C   UNL     1      -5.434  14.395  20.084  0.00  0.00    +0.000 A 
ATOM      9  C   UNL     1      -6.575  13.573  20.465  0.00  0.00    +0.000 A 
ATOM     10  C   UNL     1      -6.708  13.126  21.759  0.00  0.00    +0.000 A 
ATOM     11  C   UNL     1      -5.555  13.222  22.449  0.00  0.00    +0.000 A 
ATOM     12  C   UNL     1      -4.624  14.219  22.156  0.00  0.00    +0.000 A 
ATOM     13  C   UNL     1      -3.729  14.374  23.290  0.00  0.00    +0.000 C 
ATOM     14  C   UNL     1      -4.812  15.555  23.933  0.00  0.00    +0.000 C 
ATOM     15  C   UNL     1      -4.415  17.083  23.675  0.00  0.00    +0.000 C 
ATOM     16  N   UNL     1      -2.979  17.271  23.714  0.00  0.00    +0.000 NA
ATOM     17  C   UNL     1      -3.543  12.844  23.174  0.00  0.00    +0.000 C 
ATOM     18  O   UNL     1      -4.817  12.174  22.960  0.00  0.00    +0.000 OA
ENDROOT
BRANCH   1  21
ATOM     19  C   UNL     1      -1.101  13.280  19.562  0.00  0.00    +0.000 C 
ATOM     20  O   UNL     1      -0.657  14.346  19.102  0.00  0.00    +0.000 OA
ATOM     21  N   UNL     1      -1.616  13.235  20.833  0.00  0.00    +0.000 N 
ATOM     22  H   UNL     1      -1.099  14.038  21.141  0.00  0.00    +0.000 HD
BRANCH  19  27
ATOM     23  C   UNL     1      -2.204  10.607  17.267  0.00  0.00    +0.000 A 
ATOM     24  C   UNL     1      -1.157   9.704  17.458  0.00  0.00    +0.000 A 
ATOM     25  C   UNL     1      -0.045   9.997  18.232  0.00  0.00    +0.000 A 
ATOM     26  C   UNL     1       0.019  11.207  18.883  0.00  0.00    +0.000 A 
ATOM     27  C   UNL     1      -1.080  12.065  18.773  0.00  0.00    +0.000 A 
ATOM     28  C   UNL     1      -2.165  11.819  17.897  0.00  0.00    +0.000 A 
BRANCH  23  30
ATOM     29  C   UNL     1      -3.044  10.415  15.045  0.00  0.00    +0.000 C 
ATOM     30  O   UNL     1      -3.196  10.172  16.443  0.00  0.00    +0.000 OA
ENDBRANCH  23  30
ENDBRANCH  19  27
ENDBRANCH   1  21
BRANCH   4  31
ATOM     31  O   UNL     1      -2.231  14.565  24.857  0.00  0.00    +0.000 OA
ATOM     32  H   UNL     1      -1.993  15.327  25.410  0.00  0.00    +0.000 HD
ENDBRANCH   4  31
BRANCH  10  33
ATOM     33  O   UNL     1      -7.913  12.888  22.344  0.00  0.00    +0.000 OA
ATOM     34  H   UNL     1      -7.981  13.461  23.135  0.00  0.00    +0.000 HD
ENDBRANCH  10  33
BRANCH  16  35
ATOM     35  C   UNL     1      -2.529  16.976  25.115  0.00  0.00    +0.000 C 
BRANCH  35  36
ATOM     36  C   UNL     1      -1.584  17.606  26.076  0.00  0.00    +0.000 C 
ATOM     37  C   UNL     1      -0.633  16.724  26.820  0.00  0.00    +0.000 C 
ATOM     38  C   UNL     1      -0.123  17.848  25.955  0.00  0.00    +0.000 C 
ENDBRANCH  35  36
ENDBRANCH  16  35
TORSDOF 7
ENDMDL
MODEL 6
REMARK VINA RESULT:      -6.2      2.944      7.568
REMARK  Name = 
REMARK  8 active torsions:
REMARK  status: ('A' for Active; 'I' for Inactive)
REMARK    1  A    between atoms: C_1  and  O_2
REMARK    2  A    between atoms: O_2  and  C_3
REMARK    3  A    between atoms: C_7  and  C_8
REMARK    4  A    between atoms: N_10  and  C_11
REMARK    5  A    between atoms: C_14  and  O_15
REMARK    6  A    between atoms: C_21  and  O_22
REMARK    7  A    between atoms: N_28  and  C_29
REMARK    8  A    between atoms: C_29  and  C_30
REMARK                            x       y       z     vdW  Elec       q    Type
REMARK                         _______ _______ _______ _____ _____    ______ ____
ROOT
ATOM      1  C   UNL     1      -1.687  14.439  21.222  0.00  0.00    +0.000 C 
ATOM      2  C   UNL     1      -2.241  13.610  20.041  0.00  0.00    +0.000 C 
ATOM      3  C   UNL     1      -3.267  12.652  20.670  0.00  0.00    +0.000 C 
ATOM      4  C   UNL     1      -4.227  13.409  21.604  0.00  0.00    +0.000 C 
ATOM      5  C   UNL     1      -4.620  12.518  22.833  0.00  0.00    +0.000 C 
ATOM      6  C   UNL     1      -3.462  12.945  24.183  0.00  0.00    +0.000 C 
ATOM      7  C   UNL     1      -3.091  14.414  24.510  0.00  0.00    +0.000 A 
ATOM      8  C   UNL     1      -2.269  15.154  25.387  0.00  0.00    +0.000 A 
ATOM      9  C   UNL     1      -2.306  16.609  25.445  0.00  0.00    +0.000 A 
ATOM     10  C   UNL     1      -2.998  17.325  24.497  0.00  0.00    +0.000 A 
ATOM     11  C   UNL     1      -3.277  16.584  23.406  0.00  0.00    +0.000 A 
ATOM     12  C   UNL     1      -3.469  15.206  23.505  0.00  0.00    +0.000 A 
ATOM     13  C   UNL     1      -4.174  14.744  22.322  0.00  0.00    +0.000 C 
ATOM     14  C   UNL     1      -5.664  15.024  23.148  0.00  0.00    +0.000 C 
ATOM     15  C   UNL     1      -6.352  13.739  23.807  0.00  0.00    +0.000 C 
ATOM     16  N   UNL     1      -6.145  12.555  22.998  0.00  0.00    +0.000 NA
ATOM     17  C   UNL     1      -3.068  15.490  21.542  0.00  0.00    +0.000 C 
ATOM     18  O   UNL     1      -2.799  16.795  22.129  0.00  0.00    +0.000 OA
ENDROOT
BRANCH   1  21
ATOM     19  C   UNL     1      -0.460  11.980  22.094  0.00  0.00    +0.000 C 
ATOM     20  O   UNL     1      -0.447  11.323  23.149  0.00  0.00    +0.000 OA
ATOM     21  N   UNL     1      -1.132  13.174  22.029  0.00  0.00    +0.000 N 
ATOM     22  H   UNL     1      -1.748  12.944  22.788  0.00  0.00    +0.000 HD
BRANCH  19  27
ATOM     23  C   UNL     1       1.698  11.951  19.099  0.00  0.00    +0.000 A 
ATOM     24  C   UNL     1       1.353  10.699  18.589  0.00  0.00    +0.000 A 
ATOM     25  C   UNL     1       0.517   9.819  19.259  0.00  0.00    +0.000 A 
ATOM     26  C   UNL     1      -0.040  10.204  20.457  0.00  0.00    +0.000 A 
ATOM     27  C   UNL     1       0.226  11.499  20.912  0.00  0.00    +0.000 A 
ATOM     28  C   UNL     1       1.164  12.358  20.289  0.00  0.00    +0.000 A 
BRANCH  23  30
ATOM     29  C   UNL     1       3.045  13.903  18.857  0.00  0.00    +0.000 C 
ATOM     30  O   UNL     1       2.563  12.668  18.330  0.00  0.00    +0.000 OA
ENDBRANCH  23  30
ENDBRANCH  19  27
ENDBRANCH   1  21
BRANCH   4  31
ATOM     31  O   UNL     1      -5.069  13.921  20.516  0.00  0.00    +0.000 OA
ATOM     32  H   UNL     1      -4.903  13.506  19.654  0.00  0.00    +0.000 HD
ENDBRANCH   4  31
BRANCH  10  33
ATOM     33  O   UNL     1      -3.571  18.533  24.748  0.00  0.00    +0.000 OA
ATOM     34  H   UNL     1      -4.313  18.390  25.371  0.00  0.00    +0.000 HD
ENDBRANCH  10  33
BRANCH  16  35
ATOM     35  C   UNL     1      -6.867  12.769  21.700  0.00  0.00    +0.000 C 
BRANCH  35  36
ATOM     36  C   UNL     1      -7.714  11.930  20.812  0.00  0.00    +0.000 C 
ATOM     37  C   UNL     1      -7.103  11.369  19.568  0.00  0.00    +0.000 C 
ATOM     38  C   UNL     1      -7.711  10.458  20.604  0.00  0.00    +0.000 C 
ENDBRANCH  35  36
ENDBRANCH  16  35
TORSDOF 7
ENDMDL
MODEL 7
REMARK VINA RESULT:      -6.1      3.315      6.742
REMARK  Name = 
REMARK  8 active torsions:
REMARK  status: ('A' for Active; 'I' for Inactive)
REMARK    1  A    between atoms: C_1  and  O_2
REMARK    2  A    between atoms: O_2  and  C_3
REMARK    3  A    between atoms: C_7  and  C_8
REMARK    4  A    between atoms: N_10  and  C_11
REMARK    5  A    between atoms: C_14  and  O_15
REMARK    6  A    between atoms: C_21  and  O_22
REMARK    7  A    between atoms: N_28  and  C_29
REMARK    8  A    between atoms: C_29  and  C_30
REMARK                            x       y       z     vdW  Elec       q    Type
REMARK                         _______ _______ _______ _____ _____    ______ ____
ROOT
ATOM      1  C   UNL     1      -2.409  11.902  22.680  0.00  0.00    +0.000 C 
ATOM      2  C   UNL     1      -1.002  12.432  23.040  0.00  0.00    +0.000 C 
ATOM      3  C   UNL     1      -0.963  13.868  22.492  0.00  0.00    +0.000 C 
ATOM      4  C   UNL     1      -2.218  14.653  22.913  0.00  0.00    +0.000 C 
ATOM      5  C   UNL     1      -2.655  15.646  21.781  0.00  0.00    +0.000 C 
ATOM      6  C   UNL     1      -3.911  14.776  20.775  0.00  0.00    +0.000 C 
ATOM      7  C   UNL     1      -5.053  13.954  21.423  0.00  0.00    +0.000 A 
ATOM      8  C   UNL     1      -6.151  13.147  21.054  0.00  0.00    +0.000 A 
ATOM      9  C   UNL     1      -7.097  12.626  22.032  0.00  0.00    +0.000 A 
ATOM     10  C   UNL     1      -6.835  12.734  23.377  0.00  0.00    +0.000 A 
ATOM     11  C   UNL     1      -5.538  13.007  23.621  0.00  0.00    +0.000 A 
ATOM     12  C   UNL     1      -4.775  13.738  22.710  0.00  0.00    +0.000 A 
ATOM     13  C   UNL     1      -3.603  14.259  23.391  0.00  0.00    +0.000 C 
ATOM     14  C   UNL     1      -4.509  15.673  23.788  0.00  0.00    +0.000 C 
ATOM     15  C   UNL     1      -4.272  16.945  22.846  0.00  0.00    +0.000 C 
ATOM     16  N   UNL     1      -2.894  17.027  22.405  0.00  0.00    +0.000 NA
ATOM     17  C   UNL     1      -3.388  12.797  23.843  0.00  0.00    +0.000 C 
ATOM     18  O   UNL     1      -4.639  12.191  24.277  0.00  0.00    +0.000 OA
ENDROOT
BRANCH   1  21
ATOM     19  C   UNL     1      -1.593  11.834  19.915  0.00  0.00    +0.000 C 
ATOM     20  O   UNL     1      -1.898  12.462  18.887  0.00  0.00    +0.000 OA
ATOM     21  N   UNL     1      -2.229  12.096  21.102  0.00  0.00    +0.000 N 
ATOM     22  H   UNL     1      -2.493  13.026  20.830  0.00  0.00    +0.000 HD
BRANCH  19  27
ATOM     23  C   UNL     1       1.089   9.641  18.640  0.00  0.00    +0.000 A 
ATOM     24  C   UNL     1       1.224   8.792  19.740  0.00  0.00    +0.000 A 
ATOM     25  C   UNL     1       0.539   8.990  20.929  0.00  0.00    +0.000 A 
ATOM     26  C   UNL     1      -0.350  10.035  21.025  0.00  0.00    +0.000 A 
ATOM     27  C   UNL     1      -0.559  10.819  19.886  0.00  0.00    +0.000 A 
ATOM     28  C   UNL     1       0.217  10.690  18.709  0.00  0.00    +0.000 A 
BRANCH  23  30
ATOM     29  C   UNL     1       2.812   8.267  17.733  0.00  0.00    +0.000 C 
ATOM     30  O   UNL     1       1.868   9.324  17.570  0.00  0.00    +0.000 OA
ENDBRANCH  23  30
ENDBRANCH  19  27
ENDBRANCH   1  21
BRANCH   4  31
ATOM     31  O   UNL     1      -1.730  14.938  24.267  0.00  0.00    +0.000 OA
ATOM     32  H   UNL     1      -0.912  15.461  24.294  0.00  0.00    +0.000 HD
ENDBRANCH   4  31
BRANCH  10  33
ATOM     33  O   UNL     1      -7.811  12.833  24.320  0.00  0.00    +0.000 OA
ATOM     34  H   UNL     1      -8.192  11.941  24.453  0.00  0.00    +0.000 HD
ENDBRANCH  10  33
BRANCH  16  35
ATOM     35  C   UNL     1      -2.050  17.272  23.621  0.00  0.00    +0.000 C 
BRANCH  35  36
ATOM     36  C   UNL     1      -1.799  18.433  24.517  0.00  0.00    +0.000 C 
ATOM     37  C   UNL     1      -2.158  18.308  25.962  0.00  0.00    +0.000 C 
ATOM     38  C   UNL     1      -0.746  18.630  25.547  0.00  0.00    +0.000 C 
ENDBRANCH  35  36
ENDBRANCH  16  35
TORSDOF 7
ENDMDL
MODEL 8
REMARK VINA RESULT:      -6.0      3.342      5.983
REMARK  Name = 
REMARK  8 active torsions:
REMARK  status: ('A' for Active; 'I' for Inactive)
REMARK    1  A    between atoms: C_1  and  O_2
REMARK    2  A    between atoms: O_2  and  C_3
REMARK    3  A    between atoms: C_7  and  C_8
REMARK    4  A    between atoms: N_10  and  C_11
REMARK    5  A    between atoms: C_14  and  O_15
REMARK    6  A    between atoms: C_21  and  O_22
REMARK    7  A    between atoms: N_28  and  C_29
REMARK    8  A    between atoms: C_29  and  C_30
REMARK                            x       y       z     vdW  Elec       q    Type
REMARK                         _______ _______ _______ _____ _____    ______ ____
ROOT
ATOM      1  C   UNL     1      -2.174  12.003  21.994  0.00  0.00    +0.000 C 
ATOM      2  C   UNL     1      -0.792  12.076  22.683  0.00  0.00    +0.000 C 
ATOM      3  C   UNL     1      -0.417  13.567  22.669  0.00  0.00    +0.000 C 
ATOM      4  C   UNL     1      -1.583  14.434  23.176  0.00  0.00    +0.000 C 
ATOM      5  C   UNL     1      -1.632  15.800  22.408  0.00  0.00    +0.000 C 
ATOM      6  C   UNL     1      -2.803  15.581  21.019  0.00  0.00    +0.000 C 
ATOM      7  C   UNL     1      -4.164  14.865  21.202  0.00  0.00    +0.000 A 
ATOM      8  C   UNL     1      -5.290  14.471  20.448  0.00  0.00    +0.000 A 
ATOM      9  C   UNL     1      -6.475  13.889  21.065  0.00  0.00    +0.000 A 
ATOM     10  C   UNL     1      -6.456  13.513  22.387  0.00  0.00    +0.000 A 
ATOM     11  C   UNL     1      -5.201  13.409  22.866  0.00  0.00    +0.000 A 
ATOM     12  C   UNL     1      -4.172  14.204  22.361  0.00  0.00    +0.000 A 
ATOM     13  C   UNL     1      -3.078  14.221  23.317  0.00  0.00    +0.000 C 
ATOM     14  C   UNL     1      -3.799  15.602  24.060  0.00  0.00    +0.000 C 
ATOM     15  C   UNL     1      -3.185  17.020  23.647  0.00  0.00    +0.000 C 
ATOM     16  N   UNL     1      -1.755  16.935  23.432  0.00  0.00    +0.000 NA
ATOM     17  C   UNL     1      -3.194  12.680  23.265  0.00  0.00    +0.000 C 
ATOM     18  O   UNL     1      -4.586  12.256  23.308  0.00  0.00    +0.000 OA
ENDROOT
BRANCH   1  21
ATOM     19  C   UNL     1      -1.665  12.697  19.242  0.00  0.00    +0.000 C 
ATOM     20  O   UNL     1      -0.873  13.451  18.652  0.00  0.00    +0.000 OA
ATOM     21  N   UNL     1      -1.673  12.635  20.613  0.00  0.00    +0.000 N 
ATOM     22  H   UNL     1      -0.726  12.958  20.698  0.00  0.00    +0.000 HD
BRANCH  19  27
ATOM     23  C   UNL     1      -2.973  10.380  16.683  0.00  0.00    +0.000 A 
ATOM     24  C   UNL     1      -4.336  10.478  16.971  0.00  0.00    +0.000 A 
ATOM     25  C   UNL     1      -4.825  11.194  18.052  0.00  0.00    +0.000 A 
ATOM     26  C   UNL     1      -3.945  11.882  18.855  0.00  0.00    +0.000 A 
ATOM     27  C   UNL     1      -2.592  11.867  18.500  0.00  0.00    +0.000 A 
ATOM     28  C   UNL     1      -2.076  11.049  17.466  0.00  0.00    +0.000 A 
BRANCH  23  30
ATOM     29  C   UNL     1      -3.169  10.007  14.337  0.00  0.00    +0.000 C 
ATOM     30  O   UNL     1      -2.666   9.602  15.610  0.00  0.00    +0.000 OA
ENDBRANCH  23  30
ENDBRANCH  19  27
ENDBRANCH   1  21
BRANCH   4  31
ATOM     31  O   UNL     1      -1.317  14.171  24.595  0.00  0.00    +0.000 OA
ATOM     32  H   UNL     1      -2.046  14.412  25.189  0.00  0.00    +0.000 HD
ENDBRANCH   4  31
BRANCH  10  33
ATOM     33  O   UNL     1      -7.562  13.523  23.180  0.00  0.00    +0.000 OA
ATOM     34  H   UNL     1      -7.280  13.298  24.090  0.00  0.00    +0.000 HD
ENDBRANCH  10  33
BRANCH  16  35
ATOM     35  C   UNL     1      -1.125  16.601  24.752  0.00  0.00    +0.000 C 
BRANCH  35  36
ATOM     36  C   UNL     1      -0.208  17.298  25.692  0.00  0.00    +0.000 C 
ATOM     37  C   UNL     1      -0.796  18.236  26.697  0.00  0.00    +0.000 C 
ATOM     38  C   UNL     1       0.036  17.060  27.139  0.00  0.00    +0.000 C 
ENDBRANCH  35  36
ENDBRANCH  16  35
TORSDOF 7
ENDMDL
MODEL 9
REMARK VINA RESULT:      -6.0      2.601      7.903
REMARK  Name = 
REMARK  8 active torsions:
REMARK  status: ('A' for Active; 'I' for Inactive)
REMARK    1  A    between atoms: C_1  and  O_2
REMARK    2  A    between atoms: O_2  and  C_3
REMARK    3  A    between atoms: C_7  and  C_8
REMARK    4  A    between atoms: N_10  and  C_11
REMARK    5  A    between atoms: C_14  and  O_15
REMARK    6  A    between atoms: C_21  and  O_22
REMARK    7  A    between atoms: N_28  and  C_29
REMARK    8  A    between atoms: C_29  and  C_30
REMARK                            x       y       z     vdW  Elec       q    Type
REMARK                         _______ _______ _______ _____ _____    ______ ____
ROOT
ATOM      1  C   UNL     1       0.016  14.811  22.028  0.00  0.00    +0.000 C 
ATOM      2  C   UNL     1      -0.563  16.144  22.556  0.00  0.00    +0.000 C 
ATOM      3  C   UNL     1      -1.996  16.206  22.003  0.00  0.00    +0.000 C 
ATOM      4  C   UNL     1      -2.741  14.883  22.256  0.00  0.00    +0.000 C 
ATOM      5  C   UNL     1      -3.712  14.559  21.068  0.00  0.00    +0.000 C 
ATOM      6  C   UNL     1      -2.795  13.467  19.921  0.00  0.00    +0.000 C 
ATOM      7  C   UNL     1      -1.939  12.280  20.430  0.00  0.00    +0.000 A 
ATOM      8  C   UNL     1      -1.094  11.264  19.936  0.00  0.00    +0.000 A 
ATOM      9  C   UNL     1      -0.548  10.220  20.793  0.00  0.00    +0.000 A 
ATOM     10  C   UNL     1      -0.672  10.308  22.160  0.00  0.00    +0.000 A 
ATOM     11  C   UNL     1      -0.989  11.555  22.560  0.00  0.00    +0.000 A 
ATOM     12  C   UNL     1      -1.740  12.402  21.744  0.00  0.00    +0.000 A 
ATOM     13  C   UNL     1      -2.304  13.463  22.561  0.00  0.00    +0.000 C 
ATOM     14  C   UNL     1      -3.690  12.468  22.828  0.00  0.00    +0.000 C 
ATOM     15  C   UNL     1      -4.963  12.780  21.910  0.00  0.00    +0.000 C 
ATOM     16  N   UNL     1      -5.088  14.199  21.644  0.00  0.00    +0.000 NA
ATOM     17  C   UNL     1      -0.853  13.666  23.051  0.00  0.00    +0.000 C 
ATOM     18  O   UNL     1      -0.208  12.391  23.331  0.00  0.00    +0.000 OA
ENDROOT
BRANCH   1  21
ATOM     19  C   UNL     1       0.322  15.462  19.236  0.00  0.00    +0.000 C 
ATOM     20  O   UNL     1      -0.440  15.821  18.322  0.00  0.00    +0.000 OA
ATOM     21  N   UNL     1      -0.175  15.181  20.483  0.00  0.00    +0.000 N 
ATOM     22  H   UNL     1      -0.994  15.748  20.356  0.00  0.00    +0.000 HD
BRANCH  19  27
ATOM     23  C   UNL     1       3.873  16.391  18.839  0.00  0.00    +0.000 A 
ATOM     24  C   UNL     1       4.371  15.172  18.378  0.00  0.00    +0.000 A 
ATOM     25  C   UNL     1       3.597  14.024  18.302  0.00  0.00    +0.000 A 
ATOM     26  C   UNL     1       2.267  14.089  18.646  0.00  0.00    +0.000 A 
ATOM     27  C   UNL     1       1.747  15.337  19.007  0.00  0.00    +0.000 A 
ATOM     28  C   UNL     1       2.557  16.483  19.193  0.00  0.00    +0.000 A 
BRANCH  23  30
ATOM     29  C   UNL     1       6.163  17.046  18.908  0.00  0.00    +0.000 C 
ATOM     30  O   UNL     1       4.782  17.403  18.888  0.00  0.00    +0.000 OA
ENDBRANCH  23  30
ENDBRANCH  19  27
ENDBRANCH   1  21
BRANCH   4  31
ATOM     31  O   UNL     1      -3.051  15.189  23.657  0.00  0.00    +0.000 OA
ATOM     32  H   UNL     1      -3.230  16.127  23.830  0.00  0.00    +0.000 HD
ENDBRANCH   4  31
BRANCH  10  33
ATOM     33  O   UNL     1      -0.744   9.219  22.972  0.00  0.00    +0.000 OA
ATOM     34  H   UNL     1       0.024   8.645  22.773  0.00  0.00    +0.000 HD
ENDBRANCH  10  33
BRANCH  16  35
ATOM     35  C   UNL     1      -5.368  14.876  22.953  0.00  0.00    +0.000 C 
BRANCH  35  36
ATOM     36  C   UNL     1      -6.570  15.067  23.807  0.00  0.00    +0.000 C 
ATOM     37  C   UNL     1      -7.915  15.068  23.154  0.00  0.00    +0.000 C 
ATOM     38  C   UNL     1      -7.593  14.083  24.247  0.00  0.00    +0.000 C 
ENDBRANCH  35  36
ENDBRANCH  16  35
TORSDOF 7
ENDMDL
