MODEL 1
REMARK VINA RESULT:      -8.5      0.000      0.000
REMARK  Name = 
REMARK  9 active torsions:
REMARK  status: ('A' for Active; 'I' for Inactive)
REMARK    1  A    between atoms: C_1  and  N_2
REMARK    2  A    between atoms: N_2  and  C_3
REMARK    3  A    between atoms: N_2  and  C_4
REMARK    4  A    between atoms: C_4  and  C_5
REMARK    5  A    between atoms: C_8  and  C_9
REMARK    6  A    between atoms: N_16  and  C_17
REMARK    7  A    between atoms: C_20  and  C_21
REMARK    8  A    between atoms: N_24  and  C_25
REMARK    9  A    between atoms: C_25  and  C_26
REMARK                            x       y       z     vdW  Elec       q    Type
REMARK                         _______ _______ _______ _____ _____    ______ ____
ROOT
ATOM      1  C   UNL     1      -0.178  13.917  20.341  0.00  0.00    +0.000 A 
ATOM      2  C   UNL     1       0.428  15.126  20.002  0.00  0.00    +0.000 A 
ATOM      3  C   UNL     1       1.534  14.858  19.163  0.00  0.00    +0.000 A 
ATOM      4  C   UNL     1       1.558  13.498  18.996  0.00  0.00    +0.000 A 
ATOM      5  C   UNL     1       2.415  12.637  18.262  0.00  0.00    +0.000 A 
ATOM      6  N   UNL     1       2.167  11.372  18.241  0.00  0.00    +0.000 NA
ATOM      7  C   UNL     1       1.084  10.878  18.929  0.00  0.00    +0.000 A 
ATOM      8  N   UNL     1       0.802   9.535  18.844  0.00  0.00    +0.000 N 
ATOM      9  N   UNL     1       0.270  11.602  19.652  0.00  0.00    +0.000 NA
ATOM     10  N   UNL     1       0.532  12.928  19.678  0.00  0.00    +0.000 N 
ATOM     11  H   UNL     1       0.056   9.271  19.475  0.00  0.00    +0.000 HD
ENDROOT
BRANCH   1  15
ATOM     12  C   UNL     1      -3.551  13.170  22.895  0.00  0.00    +0.000 A 
ATOM     13  C   UNL     1      -2.293  13.457  23.436  0.00  0.00    +0.000 A 
ATOM     14  C   UNL     1      -1.205  13.715  22.597  0.00  0.00    +0.000 A 
ATOM     15  C   UNL     1      -1.347  13.693  21.204  0.00  0.00    +0.000 A 
ATOM     16  C   UNL     1      -2.610  13.409  20.668  0.00  0.00    +0.000 A 
ATOM     17  C   UNL     1      -3.700  13.155  21.505  0.00  0.00    +0.000 A 
BRANCH  12  18
ATOM     18  C   UNL     1      -4.739  12.882  23.786  0.00  0.00    +0.000 C 
BRANCH  18  20
ATOM     19  C   UNL     1      -7.153  13.026  24.028  0.00  0.00    +0.000 C 
ATOM     20  N   UNL     1      -5.962  13.606  23.399  0.00  0.00    +0.000 NA
ATOM     21  C   UNL     1      -5.842  15.016  23.778  0.00  0.00    +0.000 C 
ENDBRANCH  18  20
ENDBRANCH  12  18
ENDBRANCH   1  15
BRANCH   8  22
ATOM     22  C   UNL     1       1.778   8.527  18.724  0.00  0.00    +0.000 A 
ATOM     23  C   UNL     1       1.967   7.558  19.706  0.00  0.00    +0.000 A 
ATOM     24  C   UNL     1       2.870   6.511  19.519  0.00  0.00    +0.000 A 
ATOM     25  C   UNL     1       3.633   6.400  18.350  0.00  0.00    +0.000 A 
ATOM     26  C   UNL     1       3.452   7.390  17.369  0.00  0.00    +0.000 A 
ATOM     27  C   UNL     1       2.523   8.426  17.547  0.00  0.00    +0.000 A 
BRANCH  25  28
ATOM     28  C   UNL     1       4.553   5.212  18.069  0.00  0.00    +0.000 C 
ATOM     29  C   UNL     1       4.040   4.192  17.039  0.00  0.00    +0.000 C 
ATOM     30  C   UNL     1       2.947   3.273  17.596  0.00  0.00    +0.000 C 
ATOM     31  N   UNL     1       3.317   2.597  18.854  0.00  0.00    +0.000 NA
ATOM     32  C   UNL     1       3.830   3.558  19.853  0.00  0.00    +0.000 C 
ATOM     33  C   UNL     1       4.970   4.426  19.321  0.00  0.00    +0.000 C 
BRANCH  31  34
ATOM     34  C   UNL     1       2.107   1.940  19.444  0.00  0.00    +0.000 C 
BRANCH  34  35
ATOM     35  C   UNL     1       1.407   2.816  20.483  0.00  0.00    +0.000 C 
ATOM     36  N   UNL     1       1.672   2.504  21.785  0.00  0.00    +0.000 N 
ATOM     37  O   UNL     1       0.694   3.772  20.190  0.00  0.00    +0.000 OA
ATOM     38  H   UNL     1       2.090   1.602  21.984  0.00  0.00    +0.000 HD
ATOM     39  H   UNL     1       1.150   2.987  22.503  0.00  0.00    +0.000 HD
ENDBRANCH  34  35
ENDBRANCH  31  34
ENDBRANCH  25  28
ENDBRANCH   8  22
TORSDOF 7
ENDMDL
MODEL 2
REMARK VINA RESULT:      -8.3      2.299      3.266
REMARK  Name = 
REMARK  9 active torsions:
REMARK  status: ('A' for Active; 'I' for Inactive)
REMARK    1  A    between atoms: C_1  and  N_2
REMARK    2  A    between atoms: N_2  and  C_3
REMARK    3  A    between atoms: N_2  and  C_4
REMARK    4  A    between atoms: C_4  and  C_5
REMARK    5  A    between atoms: C_8  and  C_9
REMARK    6  A    between atoms: N_16  and  C_17
REMARK    7  A    between atoms: C_20  and  C_21
REMARK    8  A    between atoms: N_24  and  C_25
REMARK    9  A    between atoms: C_25  and  C_26
REMARK                            x       y       z     vdW  Elec       q    Type
REMARK                         _______ _______ _______ _____ _____    ______ ____
ROOT
ATOM      1  C   UNL     1      -0.236  14.172  19.836  0.00  0.00    +0.000 A 
ATOM      2  C   UNL     1       0.452  15.302  19.396  0.00  0.00    +0.000 A 
ATOM      3  C   UNL     1       1.609  14.886  18.698  0.00  0.00    +0.000 A 
ATOM      4  C   UNL     1       1.583  13.515  18.712  0.00  0.00    +0.000 A 
ATOM      5  C   UNL     1       2.457  12.534  18.174  0.00  0.00    +0.000 A 
ATOM      6  N   UNL     1       2.152  11.287  18.296  0.00  0.00    +0.000 NA
ATOM      7  C   UNL     1       0.995  10.928  18.946  0.00  0.00    +0.000 A 
ATOM      8  N   UNL     1       0.659   9.597  19.012  0.00  0.00    +0.000 N 
ATOM      9  N   UNL     1       0.159  11.771  19.495  0.00  0.00    +0.000 NA
ATOM     10  N   UNL     1       0.480  13.077  19.371  0.00  0.00    +0.000 N 
ATOM     11  H   UNL     1      -0.148   9.446  19.605  0.00  0.00    +0.000 HD
ENDROOT
BRANCH   1  15
ATOM     12  C   UNL     1      -3.926  14.001  22.028  0.00  0.00    +0.000 A 
ATOM     13  C   UNL     1      -3.612  13.023  21.078  0.00  0.00    +0.000 A 
ATOM     14  C   UNL     1      -2.401  13.077  20.381  0.00  0.00    +0.000 A 
ATOM     15  C   UNL     1      -1.480  14.106  20.616  0.00  0.00    +0.000 A 
ATOM     16  C   UNL     1      -1.798  15.080  21.571  0.00  0.00    +0.000 A 
ATOM     17  C   UNL     1      -3.006  15.025  22.272  0.00  0.00    +0.000 A 
BRANCH  12  18
ATOM     18  C   UNL     1      -5.233  13.963  22.787  0.00  0.00    +0.000 C 
BRANCH  18  20
ATOM     19  C   UNL     1      -4.598  12.417  24.552  0.00  0.00    +0.000 C 
ATOM     20  N   UNL     1      -5.510  12.667  23.432  0.00  0.00    +0.000 NA
ATOM     21  C   UNL     1      -6.895  12.638  23.907  0.00  0.00    +0.000 C 
ENDBRANCH  18  20
ENDBRANCH  12  18
ENDBRANCH   1  15
BRANCH   8  22
ATOM     22  C   UNL     1       1.593   8.548  19.109  0.00  0.00    +0.000 A 
ATOM     23  C   UNL     1       1.674   7.730  20.233  0.00  0.00    +0.000 A 
ATOM     24  C   UNL     1       2.539   6.635  20.265  0.00  0.00    +0.000 A 
ATOM     25  C   UNL     1       3.370   6.324  19.182  0.00  0.00    +0.000 A 
ATOM     26  C   UNL     1       3.298   7.162  18.056  0.00  0.00    +0.000 A 
ATOM     27  C   UNL     1       2.407   8.246  18.015  0.00  0.00    +0.000 A 
BRANCH  25  28
ATOM     28  C   UNL     1       4.250   5.075  19.143  0.00  0.00    +0.000 C 
ATOM     29  C   UNL     1       5.723   5.301  18.763  0.00  0.00    +0.000 C 
ATOM     30  C   UNL     1       5.926   5.545  17.264  0.00  0.00    +0.000 C 
ATOM     31  N   UNL     1       5.320   4.513  16.402  0.00  0.00    +0.000 NA
ATOM     32  C   UNL     1       3.909   4.267  16.762  0.00  0.00    +0.000 C 
ATOM     33  C   UNL     1       3.713   3.951  18.245  0.00  0.00    +0.000 C 
BRANCH  31  34
ATOM     34  C   UNL     1       5.346   4.973  14.976  0.00  0.00    +0.000 C 
BRANCH  34  35
ATOM     35  C   UNL     1       6.637   4.584  14.254  0.00  0.00    +0.000 C 
ATOM     36  N   UNL     1       6.560   3.459  13.484  0.00  0.00    +0.000 N 
ATOM     37  O   UNL     1       7.666   5.251  14.305  0.00  0.00    +0.000 OA
ATOM     38  H   UNL     1       5.773   2.836  13.627  0.00  0.00    +0.000 HD
ATOM     39  H   UNL     1       7.414   3.107  13.076  0.00  0.00    +0.000 HD
ENDBRANCH  34  35
ENDBRANCH  31  34
ENDBRANCH  25  28
ENDBRANCH   8  22
TORSDOF 7
ENDMDL
MODEL 3
REMARK VINA RESULT:      -8.2      0.716      1.048
REMARK  Name = 
REMARK  9 active torsions:
REMARK  status: ('A' for Active; 'I' for Inactive)
REMARK    1  A    between atoms: C_1  and  N_2
REMARK    2  A    between atoms: N_2  and  C_3
REMARK    3  A    between atoms: N_2  and  C_4
REMARK    4  A    between atoms: C_4  and  C_5
REMARK    5  A    between atoms: C_8  and  C_9
REMARK    6  A    between atoms: N_16  and  C_17
REMARK    7  A    between atoms: C_20  and  C_21
REMARK    8  A    between atoms: N_24  and  C_25
REMARK    9  A    between atoms: C_25  and  C_26
REMARK                            x       y       z     vdW  Elec       q    Type
REMARK                         _______ _______ _______ _____ _____    ______ ____
ROOT
ATOM      1  C   UNL     1      -0.116  14.011  20.133  0.00  0.00    +0.000 A 
ATOM      2  C   UNL     1       0.527  15.203  19.802  0.00  0.00    +0.000 A 
ATOM      3  C   UNL     1       1.657  14.902  19.006  0.00  0.00    +0.000 A 
ATOM      4  C   UNL     1       1.658  13.539  18.855  0.00  0.00    +0.000 A 
ATOM      5  C   UNL     1       2.523  12.652  18.164  0.00  0.00    +0.000 A 
ATOM      6  N   UNL     1       2.250  11.392  18.148  0.00  0.00    +0.000 NA
ATOM      7  C   UNL     1       1.132  10.929  18.803  0.00  0.00    +0.000 A 
ATOM      8  N   UNL     1       0.826   9.591  18.723  0.00  0.00    +0.000 N 
ATOM      9  N   UNL     1       0.308  11.679  19.487  0.00  0.00    +0.000 NA
ATOM     10  N   UNL     1       0.597  12.998  19.507  0.00  0.00    +0.000 N 
ATOM     11  H   UNL     1       0.052   9.350  19.330  0.00  0.00    +0.000 HD
ENDROOT
BRANCH   1  15
ATOM     12  C   UNL     1      -3.686  13.518  22.472  0.00  0.00    +0.000 A 
ATOM     13  C   UNL     1      -3.589  12.970  21.189  0.00  0.00    +0.000 A 
ATOM     14  C   UNL     1      -2.418  13.121  20.441  0.00  0.00    +0.000 A 
ATOM     15  C   UNL     1      -1.319  13.821  20.956  0.00  0.00    +0.000 A 
ATOM     16  C   UNL     1      -1.420  14.364  22.244  0.00  0.00    +0.000 A 
ATOM     17  C   UNL     1      -2.588  14.210  22.995  0.00  0.00    +0.000 A 
BRANCH  12  18
ATOM     18  C   UNL     1      -4.946  13.371  23.294  0.00  0.00    +0.000 C 
BRANCH  18  20
ATOM     19  C   UNL     1      -7.103  13.221  22.183  0.00  0.00    +0.000 C 
ATOM     20  N   UNL     1      -6.097  14.119  22.758  0.00  0.00    +0.000 NA
ATOM     21  C   UNL     1      -6.704  14.920  23.824  0.00  0.00    +0.000 C 
ENDBRANCH  18  20
ENDBRANCH  12  18
ENDBRANCH   1  15
BRANCH   8  22
ATOM     22  C   UNL     1       1.784   8.562  18.650  0.00  0.00    +0.000 A 
ATOM     23  C   UNL     1       1.960   7.639  19.678  0.00  0.00    +0.000 A 
ATOM     24  C   UNL     1       2.846   6.569  19.540  0.00  0.00    +0.000 A 
ATOM     25  C   UNL     1       3.603   6.389  18.376  0.00  0.00    +0.000 A 
ATOM     26  C   UNL     1       3.435   7.332  17.348  0.00  0.00    +0.000 A 
ATOM     27  C   UNL     1       2.524   8.391  17.478  0.00  0.00    +0.000 A 
BRANCH  25  28
ATOM     28  C   UNL     1       4.501   5.172  18.152  0.00  0.00    +0.000 C 
ATOM     29  C   UNL     1       3.989   4.135  17.138  0.00  0.00    +0.000 C 
ATOM     30  C   UNL     1       2.863   3.256  17.695  0.00  0.00    +0.000 C 
ATOM     31  N   UNL     1       3.188   2.610  18.980  0.00  0.00    +0.000 NA
ATOM     32  C   UNL     1       3.700   3.587  19.963  0.00  0.00    +0.000 C 
ATOM     33  C   UNL     1       4.871   4.415  19.435  0.00  0.00    +0.000 C 
BRANCH  31  34
ATOM     34  C   UNL     1       1.950   1.996  19.559  0.00  0.00    +0.000 C 
BRANCH  34  35
ATOM     35  C   UNL     1       1.381   2.805  20.725  0.00  0.00    +0.000 C 
ATOM     36  N   UNL     1       0.542   3.825  20.376  0.00  0.00    +0.000 N 
ATOM     37  O   UNL     1       1.605   2.542  21.902  0.00  0.00    +0.000 OA
ATOM     38  H   UNL     1       0.543   4.134  19.411  0.00  0.00    +0.000 HD
ATOM     39  H   UNL     1       0.228   4.449  21.105  0.00  0.00    +0.000 HD
ENDBRANCH  34  35
ENDBRANCH  31  34
ENDBRANCH  25  28
ENDBRANCH   8  22
TORSDOF 7
ENDMDL
MODEL 4
REMARK VINA RESULT:      -8.1      0.918      1.431
REMARK  Name = 
REMARK  9 active torsions:
REMARK  status: ('A' for Active; 'I' for Inactive)
REMARK    1  A    between atoms: C_1  and  N_2
REMARK    2  A    between atoms: N_2  and  C_3
REMARK    3  A    between atoms: N_2  and  C_4
REMARK    4  A    between atoms: C_4  and  C_5
REMARK    5  A    between atoms: C_8  and  C_9
REMARK    6  A    between atoms: N_16  and  C_17
REMARK    7  A    between atoms: C_20  and  C_21
REMARK    8  A    between atoms: N_24  and  C_25
REMARK    9  A    between atoms: C_25  and  C_26
REMARK                            x       y       z     vdW  Elec       q    Type
REMARK                         _______ _______ _______ _____ _____    ______ ____
ROOT
ATOM      1  C   UNL     1      -0.391  13.881  20.647  0.00  0.00    +0.000 A 
ATOM      2  C   UNL     1       0.216  15.116  20.422  0.00  0.00    +0.000 A 
ATOM      3  C   UNL     1       1.338  14.924  19.583  0.00  0.00    +0.000 A 
ATOM      4  C   UNL     1       1.372  13.582  19.303  0.00  0.00    +0.000 A 
ATOM      5  C   UNL     1       2.247  12.789  18.516  0.00  0.00    +0.000 A 
ATOM      6  N   UNL     1       2.005  11.529  18.383  0.00  0.00    +0.000 NA
ATOM      7  C   UNL     1       0.912  10.976  19.008  0.00  0.00    +0.000 A 
ATOM      8  N   UNL     1       0.639   9.643  18.805  0.00  0.00    +0.000 N 
ATOM      9  N   UNL     1       0.082  11.633  19.774  0.00  0.00    +0.000 NA
ATOM     10  N   UNL     1       0.337  12.953  19.916  0.00  0.00    +0.000 N 
ATOM     11  H   UNL     1      -0.117   9.324  19.399  0.00  0.00    +0.000 HD
ENDROOT
BRANCH   1  15
ATOM     12  C   UNL     1      -3.855  13.104  23.066  0.00  0.00    +0.000 A 
ATOM     13  C   UNL     1      -3.965  13.806  21.861  0.00  0.00    +0.000 A 
ATOM     14  C   UNL     1      -2.836  14.039  21.072  0.00  0.00    +0.000 A 
ATOM     15  C   UNL     1      -1.573  13.580  21.467  0.00  0.00    +0.000 A 
ATOM     16  C   UNL     1      -1.469  12.874  22.673  0.00  0.00    +0.000 A 
ATOM     17  C   UNL     1      -2.598  12.635  23.461  0.00  0.00    +0.000 A 
BRANCH  12  18
ATOM     18  C   UNL     1      -5.064  12.847  23.936  0.00  0.00    +0.000 C 
BRANCH  18  20
ATOM     19  C   UNL     1      -7.405  12.328  23.537  0.00  0.00    +0.000 C 
ATOM     20  N   UNL     1      -6.333  13.309  23.345  0.00  0.00    +0.000 NA
ATOM     21  C   UNL     1      -6.720  14.587  23.945  0.00  0.00    +0.000 C 
ENDBRANCH  18  20
ENDBRANCH  12  18
ENDBRANCH   1  15
BRANCH   8  22
ATOM     22  C   UNL     1       1.622   8.653  18.618  0.00  0.00    +0.000 A 
ATOM     23  C   UNL     1       2.421   8.607  17.478  0.00  0.00    +0.000 A 
ATOM     24  C   UNL     1       3.454   7.677  17.361  0.00  0.00    +0.000 A 
ATOM     25  C   UNL     1       3.721   6.745  18.371  0.00  0.00    +0.000 A 
ATOM     26  C   UNL     1       2.902   6.782  19.512  0.00  0.00    +0.000 A 
ATOM     27  C   UNL     1       1.881   7.736  19.640  0.00  0.00    +0.000 A 
BRANCH  25  28
ATOM     28  C   UNL     1       4.908   5.783  18.320  0.00  0.00    +0.000 C 
ATOM     29  C   UNL     1       5.049   4.954  17.033  0.00  0.00    +0.000 C 
ATOM     30  C   UNL     1       4.050   3.794  16.953  0.00  0.00    +0.000 C 
ATOM     31  N   UNL     1       4.055   2.917  18.138  0.00  0.00    +0.000 NA
ATOM     32  C   UNL     1       3.939   3.696  19.389  0.00  0.00    +0.000 C 
ATOM     33  C   UNL     1       4.982   4.807  19.503  0.00  0.00    +0.000 C 
BRANCH  31  34
ATOM     34  C   UNL     1       2.881   1.987  18.078  0.00  0.00    +0.000 C 
BRANCH  34  35
ATOM     35  C   UNL     1       1.552   2.697  18.340  0.00  0.00    +0.000 C 
ATOM     36  N   UNL     1       0.924   2.352  19.502  0.00  0.00    +0.000 N 
ATOM     37  O   UNL     1       1.090   3.559  17.598  0.00  0.00    +0.000 OA
ATOM     38  H   UNL     1       1.226   1.508  19.975  0.00  0.00    +0.000 HD
ATOM     39  H   UNL     1      -0.004   2.716  19.663  0.00  0.00    +0.000 HD
ENDBRANCH  34  35
ENDBRANCH  31  34
ENDBRANCH  25  28
ENDBRANCH   8  22
TORSDOF 7
ENDMDL
MODEL 5
REMARK VINA RESULT:      -7.9      2.345      3.220
REMARK  Name = 
REMARK  9 active torsions:
REMARK  status: ('A' for Active; 'I' for Inactive)
REMARK    1  A    between atoms: C_1  and  N_2
REMARK    2  A    between atoms: N_2  and  C_3
REMARK    3  A    between atoms: N_2  and  C_4
REMARK    4  A    between atoms: C_4  and  C_5
REMARK    5  A    between atoms: C_8  and  C_9
REMARK    6  A    between atoms: N_16  and  C_17
REMARK    7  A    between atoms: C_20  and  C_21
REMARK    8  A    between atoms: N_24  and  C_25
REMARK    9  A    between atoms: C_25  and  C_26
REMARK                            x       y       z     vdW  Elec       q    Type
REMARK                         _______ _______ _______ _____ _____    ______ ____
ROOT
ATOM      1  C   UNL     1      -0.213  13.567  19.975  0.00  0.00    +0.000 A 
ATOM      2  C   UNL     1       0.371  14.741  19.502  0.00  0.00    +0.000 A 
ATOM      3  C   UNL     1       1.501  14.402  18.722  0.00  0.00    +0.000 A 
ATOM      4  C   UNL     1       1.561  13.032  18.723  0.00  0.00    +0.000 A 
ATOM      5  C   UNL     1       2.455  12.112  18.117  0.00  0.00    +0.000 A 
ATOM      6  N   UNL     1       2.238  10.847  18.246  0.00  0.00    +0.000 NA
ATOM      7  C   UNL     1       1.152  10.413  18.970  0.00  0.00    +0.000 A 
ATOM      8  N   UNL     1       0.905   9.062  19.045  0.00  0.00    +0.000 N 
ATOM      9  N   UNL     1       0.305  11.198  19.583  0.00  0.00    +0.000 NA
ATOM     10  N   UNL     1       0.535  12.523  19.451  0.00  0.00    +0.000 N 
ATOM     11  H   UNL     1       0.151   8.857  19.690  0.00  0.00    +0.000 HD
ENDROOT
BRANCH   1  15
ATOM     12  C   UNL     1      -3.651  13.028  22.494  0.00  0.00    +0.000 A 
ATOM     13  C   UNL     1      -2.363  12.772  22.976  0.00  0.00    +0.000 A 
ATOM     14  C   UNL     1      -1.249  12.966  22.155  0.00  0.00    +0.000 A 
ATOM     15  C   UNL     1      -1.394  13.418  20.837  0.00  0.00    +0.000 A 
ATOM     16  C   UNL     1      -2.687  13.678  20.361  0.00  0.00    +0.000 A 
ATOM     17  C   UNL     1      -3.802  13.489  21.182  0.00  0.00    +0.000 A 
BRANCH  12  18
ATOM     18  C   UNL     1      -4.869  12.819  23.366  0.00  0.00    +0.000 C 
BRANCH  18  20
ATOM     19  C   UNL     1      -7.206  12.534  22.761  0.00  0.00    +0.000 C 
ATOM     20  N   UNL     1      -6.086  13.475  22.856  0.00  0.00    +0.000 NA
ATOM     21  C   UNL     1      -6.451  14.588  23.735  0.00  0.00    +0.000 C 
ENDBRANCH  18  20
ENDBRANCH  12  18
ENDBRANCH   1  15
BRANCH   8  22
ATOM     22  C   UNL     1       1.907   8.073  19.067  0.00  0.00    +0.000 A 
ATOM     23  C   UNL     1       2.026   7.163  20.114  0.00  0.00    +0.000 A 
ATOM     24  C   UNL     1       2.963   6.130  20.066  0.00  0.00    +0.000 A 
ATOM     25  C   UNL     1       3.829   5.976  18.976  0.00  0.00    +0.000 A 
ATOM     26  C   UNL     1       3.718   6.906  17.930  0.00  0.00    +0.000 A 
ATOM     27  C   UNL     1       2.756   7.928  17.968  0.00  0.00    +0.000 A 
BRANCH  25  28
ATOM     28  C   UNL     1       4.793   4.797  18.844  0.00  0.00    +0.000 C 
ATOM     29  C   UNL     1       6.177   5.121  18.256  0.00  0.00    +0.000 C 
ATOM     30  C   UNL     1       6.150   5.327  16.737  0.00  0.00    +0.000 C 
ATOM     31  N   UNL     1       5.516   4.223  15.994  0.00  0.00    +0.000 NA
ATOM     32  C   UNL     1       4.192   3.883  16.555  0.00  0.00    +0.000 C 
ATOM     33  C   UNL     1       4.230   3.605  18.057  0.00  0.00    +0.000 C 
BRANCH  31  34
ATOM     34  C   UNL     1       5.308   4.634  14.568  0.00  0.00    +0.000 C 
BRANCH  34  35
ATOM     35  C   UNL     1       6.540   4.386  13.697  0.00  0.00    +0.000 C 
ATOM     36  N   UNL     1       6.471   3.290  12.885  0.00  0.00    +0.000 N 
ATOM     37  O   UNL     1       7.512   5.136  13.673  0.00  0.00    +0.000 OA
ATOM     38  H   UNL     1       5.758   2.597  13.079  0.00  0.00    +0.000 HD
ATOM     39  H   UNL     1       7.302   3.029  12.373  0.00  0.00    +0.000 HD
ENDBRANCH  34  35
ENDBRANCH  31  34
ENDBRANCH  25  28
ENDBRANCH   8  22
TORSDOF 7
ENDMDL
MODEL 6
REMARK VINA RESULT:      -7.8      2.053      3.069
REMARK  Name = 
REMARK  9 active torsions:
REMARK  status: ('A' for Active; 'I' for Inactive)
REMARK    1  A    between atoms: C_1  and  N_2
REMARK    2  A    between atoms: N_2  and  C_3
REMARK    3  A    between atoms: N_2  and  C_4
REMARK    4  A    between atoms: C_4  and  C_5
REMARK    5  A    between atoms: C_8  and  C_9
REMARK    6  A    between atoms: N_16  and  C_17
REMARK    7  A    between atoms: C_20  and  C_21
REMARK    8  A    between atoms: N_24  and  C_25
REMARK    9  A    between atoms: C_25  and  C_26
REMARK                            x       y       z     vdW  Elec       q    Type
REMARK                         _______ _______ _______ _____ _____    ______ ____
ROOT
ATOM      1  C   UNL     1       0.560  14.164  19.936  0.00  0.00    +0.000 A 
ATOM      2  C   UNL     1       1.305  15.169  19.320  0.00  0.00    +0.000 A 
ATOM      3  C   UNL     1       2.254  14.568  18.461  0.00  0.00    +0.000 A 
ATOM      4  C   UNL     1       2.046  13.216  18.560  0.00  0.00    +0.000 A 
ATOM      5  C   UNL     1       2.671  12.103  17.940  0.00  0.00    +0.000 A 
ATOM      6  N   UNL     1       2.229  10.916  18.186  0.00  0.00    +0.000 NA
ATOM      7  C   UNL     1       1.167  10.749  19.043  0.00  0.00    +0.000 A 
ATOM      8  N   UNL     1       0.672   9.482  19.245  0.00  0.00    +0.000 N 
ATOM      9  N   UNL     1       0.562  11.721  19.676  0.00  0.00    +0.000 NA
ATOM     10  N   UNL     1       1.028  12.963  19.422  0.00  0.00    +0.000 N 
ATOM     11  H   UNL     1      -0.030   9.469  19.974  0.00  0.00    +0.000 HD
ENDROOT
BRANCH   1  15
ATOM     12  C   UNL     1      -2.617  14.466  22.812  0.00  0.00    +0.000 A 
ATOM     13  C   UNL     1      -1.366  13.957  23.178  0.00  0.00    +0.000 A 
ATOM     14  C   UNL     1      -0.333  13.877  22.239  0.00  0.00    +0.000 A 
ATOM     15  C   UNL     1      -0.524  14.303  20.919  0.00  0.00    +0.000 A 
ATOM     16  C   UNL     1      -1.778  14.817  20.560  0.00  0.00    +0.000 A 
ATOM     17  C   UNL     1      -2.810  14.901  21.497  0.00  0.00    +0.000 A 
BRANCH  12  18
ATOM     18  C   UNL     1      -3.748  14.554  23.812  0.00  0.00    +0.000 C 
BRANCH  18  20
ATOM     19  C   UNL     1      -4.627  12.506  24.780  0.00  0.00    +0.000 C 
ATOM     20  N   UNL     1      -4.741  13.472  23.684  0.00  0.00    +0.000 NA
ATOM     21  C   UNL     1      -6.090  14.041  23.666  0.00  0.00    +0.000 C 
ENDBRANCH  18  20
ENDBRANCH  12  18
ENDBRANCH   1  15
BRANCH   8  22
ATOM     22  C   UNL     1       1.459   8.315  19.243  0.00  0.00    +0.000 A 
ATOM     23  C   UNL     1       2.313   7.999  18.189  0.00  0.00    +0.000 A 
ATOM     24  C   UNL     1       3.157   6.889  18.256  0.00  0.00    +0.000 A 
ATOM     25  C   UNL     1       3.169   6.042  19.370  0.00  0.00    +0.000 A 
ATOM     26  C   UNL     1       2.293   6.354  20.424  0.00  0.00    +0.000 A 
ATOM     27  C   UNL     1       1.466   7.486  20.367  0.00  0.00    +0.000 A 
BRANCH  25  28
ATOM     28  C   UNL     1       4.153   4.881  19.519  0.00  0.00    +0.000 C 
ATOM     29  C   UNL     1       5.606   5.175  19.113  0.00  0.00    +0.000 C 
ATOM     30  C   UNL     1       5.810   5.211  17.594  0.00  0.00    +0.000 C 
ATOM     31  N   UNL     1       5.308   4.014  16.894  0.00  0.00    +0.000 NA
ATOM     32  C   UNL     1       3.916   3.704  17.284  0.00  0.00    +0.000 C 
ATOM     33  C   UNL     1       3.727   3.595  18.797  0.00  0.00    +0.000 C 
BRANCH  31  34
ATOM     34  C   UNL     1       5.316   4.259  15.416  0.00  0.00    +0.000 C 
BRANCH  34  35
ATOM     35  C   UNL     1       6.010   5.568  15.039  0.00  0.00    +0.000 C 
ATOM     36  N   UNL     1       7.311   5.447  14.642  0.00  0.00    +0.000 N 
ATOM     37  O   UNL     1       5.443   6.657  15.034  0.00  0.00    +0.000 OA
ATOM     38  H   UNL     1       7.795   4.581  14.851  0.00  0.00    +0.000 HD
ATOM     39  H   UNL     1       7.839   6.294  14.487  0.00  0.00    +0.000 HD
ENDBRANCH  34  35
ENDBRANCH  31  34
ENDBRANCH  25  28
ENDBRANCH   8  22
TORSDOF 7
ENDMDL
MODEL 7
REMARK VINA RESULT:      -7.8      2.224      3.218
REMARK  Name = 
REMARK  9 active torsions:
REMARK  status: ('A' for Active; 'I' for Inactive)
REMARK    1  A    between atoms: C_1  and  N_2
REMARK    2  A    between atoms: N_2  and  C_3
REMARK    3  A    between atoms: N_2  and  C_4
REMARK    4  A    between atoms: C_4  and  C_5
REMARK    5  A    between atoms: C_8  and  C_9
REMARK    6  A    between atoms: N_16  and  C_17
REMARK    7  A    between atoms: C_20  and  C_21
REMARK    8  A    between atoms: N_24  and  C_25
REMARK    9  A    between atoms: C_25  and  C_26
REMARK                            x       y       z     vdW  Elec       q    Type
REMARK                         _______ _______ _______ _____ _____    ______ ____
ROOT
ATOM      1  C   UNL     1       0.320  14.519  19.989  0.00  0.00    +0.000 A 
ATOM      2  C   UNL     1       1.047  15.536  19.371  0.00  0.00    +0.000 A 
ATOM      3  C   UNL     1       2.037  14.950  18.549  0.00  0.00    +0.000 A 
ATOM      4  C   UNL     1       1.871  13.594  18.670  0.00  0.00    +0.000 A 
ATOM      5  C   UNL     1       2.548  12.490  18.089  0.00  0.00    +0.000 A 
ATOM      6  N   UNL     1       2.138  11.295  18.347  0.00  0.00    +0.000 NA
ATOM      7  C   UNL     1       1.061  11.109  19.181  0.00  0.00    +0.000 A 
ATOM      8  N   UNL     1       0.603   9.831  19.395  0.00  0.00    +0.000 N 
ATOM      9  N   UNL     1       0.409  12.072  19.778  0.00  0.00    +0.000 NA
ATOM     10  N   UNL     1       0.840  13.325  19.511  0.00  0.00    +0.000 N 
ATOM     11  H   UNL     1      -0.117   9.808  20.107  0.00  0.00    +0.000 HD
ENDROOT
BRANCH   1  15
ATOM     12  C   UNL     1      -2.925  14.981  22.766  0.00  0.00    +0.000 A 
ATOM     13  C   UNL     1      -3.080  15.329  21.419  0.00  0.00    +0.000 A 
ATOM     14  C   UNL     1      -2.024  15.160  20.520  0.00  0.00    +0.000 A 
ATOM     15  C   UNL     1      -0.793  14.641  20.941  0.00  0.00    +0.000 A 
ATOM     16  C   UNL     1      -0.646  14.290  22.290  0.00  0.00    +0.000 A 
ATOM     17  C   UNL     1      -1.701  14.454  23.190  0.00  0.00    +0.000 A 
BRANCH  12  18
ATOM     18  C   UNL     1      -4.054  15.162  23.755  0.00  0.00    +0.000 C 
BRANCH  18  20
ATOM     19  C   UNL     1      -5.219  13.056  24.097  0.00  0.00    +0.000 C 
ATOM     20  N   UNL     1      -5.255  14.367  23.442  0.00  0.00    +0.000 NA
ATOM     21  C   UNL     1      -6.453  15.096  23.863  0.00  0.00    +0.000 C 
ENDBRANCH  18  20
ENDBRANCH  12  18
ENDBRANCH   1  15
BRANCH   8  22
ATOM     22  C   UNL     1       1.427   8.690  19.437  0.00  0.00    +0.000 A 
ATOM     23  C   UNL     1       1.461   7.840  20.539  0.00  0.00    +0.000 A 
ATOM     24  C   UNL     1       2.210   6.663  20.517  0.00  0.00    +0.000 A 
ATOM     25  C   UNL     1       2.969   6.297  19.399  0.00  0.00    +0.000 A 
ATOM     26  C   UNL     1       2.947   7.166  18.295  0.00  0.00    +0.000 A 
ATOM     27  C   UNL     1       2.171   8.335  18.309  0.00  0.00    +0.000 A 
BRANCH  25  28
ATOM     28  C   UNL     1       3.715   4.966  19.303  0.00  0.00    +0.000 C 
ATOM     29  C   UNL     1       5.240   5.061  19.133  0.00  0.00    +0.000 C 
ATOM     30  C   UNL     1       5.664   5.452  17.713  0.00  0.00    +0.000 C 
ATOM     31  N   UNL     1       5.076   4.605  16.658  0.00  0.00    +0.000 NA
ATOM     32  C   UNL     1       3.611   4.486  16.814  0.00  0.00    +0.000 C 
ATOM     33  C   UNL     1       3.190   4.025  18.209  0.00  0.00    +0.000 C 
BRANCH  31  34
ATOM     34  C   UNL     1       5.336   5.222  15.318  0.00  0.00    +0.000 C 
BRANCH  34  35
ATOM     35  C   UNL     1       6.554   4.618  14.617  0.00  0.00    +0.000 C 
ATOM     36  N   UNL     1       7.731   5.281  14.816  0.00  0.00    +0.000 N 
ATOM     37  O   UNL     1       6.510   3.581  13.962  0.00  0.00    +0.000 OA
ATOM     38  H   UNL     1       7.692   6.224  15.184  0.00  0.00    +0.000 HD
ATOM     39  H   UNL     1       8.538   4.979  14.288  0.00  0.00    +0.000 HD
ENDBRANCH  34  35
ENDBRANCH  31  34
ENDBRANCH  25  28
ENDBRANCH   8  22
TORSDOF 7
ENDMDL
MODEL 8
REMARK VINA RESULT:      -7.7      3.649      5.788
REMARK  Name = 
REMARK  9 active torsions:
REMARK  status: ('A' for Active; 'I' for Inactive)
REMARK    1  A    between atoms: C_1  and  N_2
REMARK    2  A    between atoms: N_2  and  C_3
REMARK    3  A    between atoms: N_2  and  C_4
REMARK    4  A    between atoms: C_4  and  C_5
REMARK    5  A    between atoms: C_8  and  C_9
REMARK    6  A    between atoms: N_16  and  C_17
REMARK    7  A    between atoms: C_20  and  C_21
REMARK    8  A    between atoms: N_24  and  C_25
REMARK    9  A    between atoms: C_25  and  C_26
REMARK                            x       y       z     vdW  Elec       q    Type
REMARK                         _______ _______ _______ _____ _____    ______ ____
ROOT
ATOM      1  C   UNL     1       0.978  13.884  19.719  0.00  0.00    +0.000 A 
ATOM      2  C   UNL     1       0.023  14.513  18.921  0.00  0.00    +0.000 A 
ATOM      3  C   UNL     1      -0.772  13.522  18.300  0.00  0.00    +0.000 A 
ATOM      4  C   UNL     1      -0.295  12.319  18.754  0.00  0.00    +0.000 A 
ATOM      5  C   UNL     1      -0.683  10.978  18.502  0.00  0.00    +0.000 A 
ATOM      6  N   UNL     1      -0.077  10.021  19.120  0.00  0.00    +0.000 NA
ATOM      7  C   UNL     1       0.934  10.315  20.005  0.00  0.00    +0.000 A 
ATOM      8  N   UNL     1       1.527   9.285  20.697  0.00  0.00    +0.000 N 
ATOM      9  N   UNL     1       1.368  11.521  20.263  0.00  0.00    +0.000 NA
ATOM     10  N   UNL     1       0.736  12.522  19.614  0.00  0.00    +0.000 N 
ATOM     11  H   UNL     1       2.325   9.607  21.231  0.00  0.00    +0.000 HD
ENDROOT
BRANCH   1  15
ATOM     12  C   UNL     1       4.097  15.589  22.132  0.00  0.00    +0.000 A 
ATOM     13  C   UNL     1       4.387  15.009  20.892  0.00  0.00    +0.000 A 
ATOM     14  C   UNL     1       3.364  14.472  20.106  0.00  0.00    +0.000 A 
ATOM     15  C   UNL     1       2.032  14.500  20.538  0.00  0.00    +0.000 A 
ATOM     16  C   UNL     1       1.747  15.087  21.779  0.00  0.00    +0.000 A 
ATOM     17  C   UNL     1       2.768  15.628  22.564  0.00  0.00    +0.000 A 
BRANCH  12  18
ATOM     18  C   UNL     1       5.191  16.170  22.999  0.00  0.00    +0.000 C 
BRANCH  18  20
ATOM     19  C   UNL     1       7.425  15.461  23.640  0.00  0.00    +0.000 C 
ATOM     20  N   UNL     1       5.993  15.156  23.706  0.00  0.00    +0.000 NA
ATOM     21  C   UNL     1       5.569  15.079  25.105  0.00  0.00    +0.000 C 
ENDBRANCH  18  20
ENDBRANCH  12  18
ENDBRANCH   1  15
BRANCH   8  22
ATOM     22  C   UNL     1       1.721   7.991  20.180  0.00  0.00    +0.000 A 
ATOM     23  C   UNL     1       2.248   7.772  18.909  0.00  0.00    +0.000 A 
ATOM     24  C   UNL     1       2.525   6.481  18.458  0.00  0.00    +0.000 A 
ATOM     25  C   UNL     1       2.269   5.356  19.251  0.00  0.00    +0.000 A 
ATOM     26  C   UNL     1       1.720   5.579  20.525  0.00  0.00    +0.000 A 
ATOM     27  C   UNL     1       1.469   6.880  20.988  0.00  0.00    +0.000 A 
BRANCH  25  28
ATOM     28  C   UNL     1       2.656   3.939  18.829  0.00  0.00    +0.000 C 
ATOM     29  C   UNL     1       3.906   3.352  19.505  0.00  0.00    +0.000 C 
ATOM     30  C   UNL     1       5.215   3.924  18.947  0.00  0.00    +0.000 C 
ATOM     31  N   UNL     1       5.329   3.835  17.479  0.00  0.00    +0.000 NA
ATOM     32  C   UNL     1       4.129   4.377  16.810  0.00  0.00    +0.000 C 
ATOM     33  C   UNL     1       2.827   3.755  17.314  0.00  0.00    +0.000 C 
BRANCH  31  34
ATOM     34  C   UNL     1       6.504   4.643  17.019  0.00  0.00    +0.000 C 
BRANCH  34  35
ATOM     35  C   UNL     1       6.772   4.494  15.521  0.00  0.00    +0.000 C 
ATOM     36  N   UNL     1       7.561   5.462  14.969  0.00  0.00    +0.000 N 
ATOM     37  O   UNL     1       6.361   3.550  14.853  0.00  0.00    +0.000 OA
ATOM     38  H   UNL     1       7.708   6.316  15.495  0.00  0.00    +0.000 HD
ATOM     39  H   UNL     1       7.677   5.462  13.966  0.00  0.00    +0.000 HD
ENDBRANCH  34  35
ENDBRANCH  31  34
ENDBRANCH  25  28
ENDBRANCH   8  22
TORSDOF 7
ENDMDL
MODEL 9
REMARK VINA RESULT:      -7.7      0.921      1.136
REMARK  Name = 
REMARK  9 active torsions:
REMARK  status: ('A' for Active; 'I' for Inactive)
REMARK    1  A    between atoms: C_1  and  N_2
REMARK    2  A    between atoms: N_2  and  C_3
REMARK    3  A    between atoms: N_2  and  C_4
REMARK    4  A    between atoms: C_4  and  C_5
REMARK    5  A    between atoms: C_8  and  C_9
REMARK    6  A    between atoms: N_16  and  C_17
REMARK    7  A    between atoms: C_20  and  C_21
REMARK    8  A    between atoms: N_24  and  C_25
REMARK    9  A    between atoms: C_25  and  C_26
REMARK                            x       y       z     vdW  Elec       q    Type
REMARK                         _______ _______ _______ _____ _____    ______ ____
ROOT
ATOM      1  C   UNL     1       0.492  14.248  20.057  0.00  0.00    +0.000 A 
ATOM      2  C   UNL     1       1.152  15.382  19.586  0.00  0.00    +0.000 A 
ATOM      3  C   UNL     1       2.161  14.976  18.682  0.00  0.00    +0.000 A 
ATOM      4  C   UNL     1       2.074  13.610  18.611  0.00  0.00    +0.000 A 
ATOM      5  C   UNL     1       2.803  12.640  17.874  0.00  0.00    +0.000 A 
ATOM      6  N   UNL     1       2.465  11.399  17.962  0.00  0.00    +0.000 NA
ATOM      7  C   UNL     1       1.411  11.036  18.768  0.00  0.00    +0.000 A 
ATOM      8  N   UNL     1       1.029   9.715  18.802  0.00  0.00    +0.000 N 
ATOM      9  N   UNL     1       0.715  11.865  19.500  0.00  0.00    +0.000 NA
ATOM     10  N   UNL     1       1.072  13.165  19.411  0.00  0.00    +0.000 N 
ATOM     11  H   UNL     1       0.322   9.550  19.508  0.00  0.00    +0.000 HD
ENDROOT
BRANCH   1  15
ATOM     12  C   UNL     1      -2.728  13.914  22.881  0.00  0.00    +0.000 A 
ATOM     13  C   UNL     1      -1.422  13.567  23.241  0.00  0.00    +0.000 A 
ATOM     14  C   UNL     1      -0.377  13.694  22.321  0.00  0.00    +0.000 A 
ATOM     15  C   UNL     1      -0.612  14.169  21.024  0.00  0.00    +0.000 A 
ATOM     16  C   UNL     1      -1.922  14.520  20.671  0.00  0.00    +0.000 A 
ATOM     17  C   UNL     1      -2.967  14.398  21.591  0.00  0.00    +0.000 A 
BRANCH  12  18
ATOM     18  C   UNL     1      -3.872  13.778  23.860  0.00  0.00    +0.000 C 
BRANCH  18  20
ATOM     19  C   UNL     1      -3.072  15.961  24.565  0.00  0.00    +0.000 C 
ATOM     20  N   UNL     1      -4.201  15.027  24.570  0.00  0.00    +0.000 NA
ATOM     21  C   UNL     1      -5.365  15.657  23.945  0.00  0.00    +0.000 C 
ENDBRANCH  18  20
ENDBRANCH  12  18
ENDBRANCH   1  15
BRANCH   8  22
ATOM     22  C   UNL     1       1.917   8.630  18.676  0.00  0.00    +0.000 A 
ATOM     23  C   UNL     1       2.022   7.642  19.651  0.00  0.00    +0.000 A 
ATOM     24  C   UNL     1       2.835   6.524  19.458  0.00  0.00    +0.000 A 
ATOM     25  C   UNL     1       3.589   6.358  18.290  0.00  0.00    +0.000 A 
ATOM     26  C   UNL     1       3.494   7.365  17.315  0.00  0.00    +0.000 A 
ATOM     27  C   UNL     1       2.655   8.475  17.500  0.00  0.00    +0.000 A 
BRANCH  25  28
ATOM     28  C   UNL     1       4.406   5.098  18.002  0.00  0.00    +0.000 C 
ATOM     29  C   UNL     1       3.771   4.091  17.030  0.00  0.00    +0.000 C 
ATOM     30  C   UNL     1       2.645   3.268  17.668  0.00  0.00    +0.000 C 
ATOM     31  N   UNL     1       3.029   2.603  18.927  0.00  0.00    +0.000 NA
ATOM     32  C   UNL     1       3.659   3.551  19.869  0.00  0.00    +0.000 C 
ATOM     33  C   UNL     1       4.829   4.319  19.256  0.00  0.00    +0.000 C 
BRANCH  31  34
ATOM     34  C   UNL     1       1.806   2.052  19.594  0.00  0.00    +0.000 C 
BRANCH  34  35
ATOM     35  C   UNL     1       1.232   2.998  20.649  0.00  0.00    +0.000 C 
ATOM     36  N   UNL     1       1.497   2.658  21.945  0.00  0.00    +0.000 N 
ATOM     37  O   UNL     1       0.620   4.025  20.373  0.00  0.00    +0.000 OA
ATOM     38  H   UNL     1       1.821   1.716  22.135  0.00  0.00    +0.000 HD
ATOM     39  H   UNL     1       1.049   3.194  22.675  0.00  0.00    +0.000 HD
ENDBRANCH  34  35
ENDBRANCH  31  34
ENDBRANCH  25  28
ENDBRANCH   8  22
TORSDOF 7
ENDMDL
