MODEL 1
REMARK VINA RESULT:      -7.1      0.000      0.000
REMARK  Name = 
REMARK  16 active torsions:
REMARK  status: ('A' for Active; 'I' for Inactive)
REMARK    1  A    between atoms: C_1  and  C_2
REMARK    2  A    between atoms: C_2  and  C_3
REMARK    3  A    between atoms: C_2  and  C_4
REMARK    4  A    between atoms: C_2  and  C_5
REMARK    5  A    between atoms: C_7  and  C_8
REMARK    6  A    between atoms: C_8  and  C_9
REMARK    7  A    between atoms: C_8  and  C_10
REMARK    8  A    between atoms: C_8  and  C_11
REMARK    9  A    between atoms: C_13  and  S_14
REMARK   10  A    between atoms: S_14  and  N_17
REMARK   11  A    between atoms: N_17  and  C_18
REMARK   12  A    between atoms: C_21  and  C_22
REMARK   13  A    between atoms: C_22  and  C_23
REMARK   14  A    between atoms: N_25  and  C_26
REMARK   15  A    between atoms: C_26  and  C_27
REMARK   16  A    between atoms: C_27  and  N_28
REMARK                            x       y       z     vdW  Elec       q    Type
REMARK                         _______ _______ _______ _____ _____    ______ ____
ROOT
ATOM      1  N   UNL     1       1.606   8.448  21.590  0.00  0.00    +0.000 N 
ATOM      2  H   UNL     1       1.934   8.187  22.529  0.00  0.00    +0.000 HD
ENDROOT
BRANCH   1   3
ATOM      3  C   UNL     1       1.892   7.516  20.559  0.00  0.00    +0.000 A 
ATOM      4  C   UNL     1       2.218   7.940  19.260  0.00  0.00    +0.000 A 
ATOM      5  C   UNL     1       2.540   6.997  18.272  0.00  0.00    +0.000 A 
ATOM      6  C   UNL     1       2.522   5.620  18.567  0.00  0.00    +0.000 A 
ATOM      7  C   UNL     1       2.173   5.207  19.863  0.00  0.00    +0.000 A 
ATOM      8  C   UNL     1       1.875   6.146  20.851  0.00  0.00    +0.000 A 
BRANCH   6   9
ATOM      9  C   UNL     1       2.835   4.597  17.502  0.00  0.00    +0.000 C 
BRANCH   9  10
ATOM     10  C   UNL     1       4.306   4.504  17.165  0.00  0.00    +0.000 C 
ATOM     11  O   UNL     1       4.620   4.219  16.017  0.00  0.00    +0.000 OA
ATOM     12  N   UNL     1       5.271   4.688  18.110  0.00  0.00    +0.000 N 
ATOM     13  H   UNL     1       4.996   4.915  19.079  0.00  0.00    +0.000 HD
BRANCH  12  14
ATOM     14  C   UNL     1       6.680   4.532  17.771  0.00  0.00    +0.000 C 
BRANCH  14  15
ATOM     15  C   UNL     1       7.403   5.877  17.641  0.00  0.00    +0.000 C 
BRANCH  15  16
ATOM     16  N   UNL     1       6.931   6.581  16.449  0.00  0.00    +0.000 NA
ATOM     17  H   UNL     1       7.562   7.392  16.253  0.00  0.00    +0.000 HD
ATOM     18  H   UNL     1       5.976   6.963  16.637  0.00  0.00    +0.000 HD
ENDBRANCH  15  16
ENDBRANCH  14  15
ENDBRANCH  12  14
ENDBRANCH   9  10
ENDBRANCH   6   9
ENDBRANCH   1   3
BRANCH   1  19
ATOM     19  S   UNL     1       0.000   9.149  21.692  0.00  0.00    +0.000 S 
ATOM     20  O   UNL     1      -0.176   9.594  23.152  0.00  0.00    +0.000 OA
ATOM     21  O   UNL     1      -0.951   7.946  21.595  0.00  0.00    +0.000 OA
BRANCH  19  26
ATOM     22  C   UNL     1      -1.784  11.226  18.656  0.00  0.00    +0.000 A 
ATOM     23  C   UNL     1      -0.969  12.369  18.560  0.00  0.00    +0.000 A 
ATOM     24  C   UNL     1       0.158  12.558  19.390  0.00  0.00    +0.000 A 
ATOM     25  C   UNL     1       0.436  11.577  20.372  0.00  0.00    +0.000 A 
ATOM     26  C   UNL     1      -0.362  10.433  20.483  0.00  0.00    +0.000 A 
ATOM     27  C   UNL     1      -1.442  10.257  19.630  0.00  0.00    +0.000 A 
BRANCH  22  29
ATOM     28  C   UNL     1      -2.361  11.362  16.276  0.00  0.00    +0.000 C 
ATOM     29  C   UNL     1      -2.914  10.942  17.651  0.00  0.00    +0.000 C 
ATOM     30  C   UNL     1      -4.208  11.756  17.907  0.00  0.00    +0.000 C 
ATOM     31  C   UNL     1      -3.337   9.449  17.659  0.00  0.00    +0.000 C 
ENDBRANCH  22  29
BRANCH  24  32
ATOM     32  C   UNL     1       1.066  13.785  19.147  0.00  0.00    +0.000 C 
ATOM     33  C   UNL     1       0.226  15.005  18.716  0.00  0.00    +0.000 C 
ATOM     34  C   UNL     1       1.884  14.180  20.398  0.00  0.00    +0.000 C 
ATOM     35  C   UNL     1       2.077  13.436  18.026  0.00  0.00    +0.000 C 
ENDBRANCH  24  32
ENDBRANCH  19  26
ENDBRANCH   1  19
TORSDOF 10
ENDMDL
MODEL 2
REMARK VINA RESULT:      -7.0      3.425      5.503
REMARK  Name = 
REMARK  16 active torsions:
REMARK  status: ('A' for Active; 'I' for Inactive)
REMARK    1  A    between atoms: C_1  and  C_2
REMARK    2  A    between atoms: C_2  and  C_3
REMARK    3  A    between atoms: C_2  and  C_4
REMARK    4  A    between atoms: C_2  and  C_5
REMARK    5  A    between atoms: C_7  and  C_8
REMARK    6  A    between atoms: C_8  and  C_9
REMARK    7  A    between atoms: C_8  and  C_10
REMARK    8  A    between atoms: C_8  and  C_11
REMARK    9  A    between atoms: C_13  and  S_14
REMARK   10  A    between atoms: S_14  and  N_17
REMARK   11  A    between atoms: N_17  and  C_18
REMARK   12  A    between atoms: C_21  and  C_22
REMARK   13  A    between atoms: C_22  and  C_23
REMARK   14  A    between atoms: N_25  and  C_26
REMARK   15  A    between atoms: C_26  and  C_27
REMARK   16  A    between atoms: C_27  and  N_28
REMARK                            x       y       z     vdW  Elec       q    Type
REMARK                         _______ _______ _______ _____ _____    ______ ____
ROOT
ATOM      1  N   UNL     1      -0.097  11.325  18.793  0.00  0.00    +0.000 N 
ATOM      2  H   UNL     1      -0.025  11.968  19.593  0.00  0.00    +0.000 HD
ENDROOT
BRANCH   1   3
ATOM      3  C   UNL     1       0.657  10.128  18.898  0.00  0.00    +0.000 A 
ATOM      4  C   UNL     1       1.401   9.637  17.813  0.00  0.00    +0.000 A 
ATOM      5  C   UNL     1       2.174   8.474  17.958  0.00  0.00    +0.000 A 
ATOM      6  C   UNL     1       2.197   7.782  19.184  0.00  0.00    +0.000 A 
ATOM      7  C   UNL     1       1.432   8.271  20.255  0.00  0.00    +0.000 A 
ATOM      8  C   UNL     1       0.681   9.438  20.116  0.00  0.00    +0.000 A 
BRANCH   6   9
ATOM      9  C   UNL     1       2.999   6.512  19.341  0.00  0.00    +0.000 C 
BRANCH   9  10
ATOM     10  C   UNL     1       2.228   5.261  18.989  0.00  0.00    +0.000 C 
ATOM     11  O   UNL     1       1.973   5.050  17.811  0.00  0.00    +0.000 OA
ATOM     12  N   UNL     1       1.782   4.400  19.947  0.00  0.00    +0.000 N 
ATOM     13  H   UNL     1       1.990   4.594  20.940  0.00  0.00    +0.000 HD
BRANCH  12  14
ATOM     14  C   UNL     1       0.987   3.234  19.584  0.00  0.00    +0.000 C 
BRANCH  14  15
ATOM     15  C   UNL     1       1.848   1.986  19.357  0.00  0.00    +0.000 C 
BRANCH  15  16
ATOM     16  N   UNL     1       2.181   1.866  17.938  0.00  0.00    +0.000 NA
ATOM     17  H   UNL     1       1.301   1.892  17.372  0.00  0.00    +0.000 HD
ATOM     18  H   UNL     1       2.635   0.938  17.774  0.00  0.00    +0.000 HD
ENDBRANCH  15  16
ENDBRANCH  14  15
ENDBRANCH  12  14
ENDBRANCH   9  10
ENDBRANCH   6   9
ENDBRANCH   1   3
BRANCH   1  19
ATOM     19  S   UNL     1      -1.762  11.245  18.242  0.00  0.00    +0.000 S 
ATOM     20  O   UNL     1      -1.997   9.790  17.811  0.00  0.00    +0.000 OA
ATOM     21  O   UNL     1      -1.758  11.992  16.899  0.00  0.00    +0.000 OA
BRANCH  19  26
ATOM     22  C   UNL     1      -3.492  12.744  21.629  0.00  0.00    +0.000 A 
ATOM     23  C   UNL     1      -4.843  12.844  21.253  0.00  0.00    +0.000 A 
ATOM     24  C   UNL     1      -5.297  12.451  19.974  0.00  0.00    +0.000 A 
ATOM     25  C   UNL     1      -4.339  11.985  19.041  0.00  0.00    +0.000 A 
ATOM     26  C   UNL     1      -2.990  11.879  19.396  0.00  0.00    +0.000 A 
ATOM     27  C   UNL     1      -2.579  12.239  20.672  0.00  0.00    +0.000 A 
BRANCH  22  29
ATOM     28  C   UNL     1      -1.809  12.098  23.293  0.00  0.00    +0.000 C 
ATOM     29  C   UNL     1      -3.022  13.021  23.069  0.00  0.00    +0.000 C 
ATOM     30  C   UNL     1      -4.077  12.684  24.154  0.00  0.00    +0.000 C 
ATOM     31  C   UNL     1      -2.647  14.511  23.281  0.00  0.00    +0.000 C 
ENDBRANCH  22  29
BRANCH  24  32
ATOM     32  C   UNL     1      -6.813  12.485  19.676  0.00  0.00    +0.000 C 
ATOM     33  C   UNL     1      -7.424  13.829  20.126  0.00  0.00    +0.000 C 
ATOM     34  C   UNL     1      -7.132  12.289  18.177  0.00  0.00    +0.000 C 
ATOM     35  C   UNL     1      -7.493  11.328  20.449  0.00  0.00    +0.000 C 
ENDBRANCH  24  32
ENDBRANCH  19  26
ENDBRANCH   1  19
TORSDOF 10
ENDMDL
MODEL 3
REMARK VINA RESULT:      -6.9      3.454      5.393
REMARK  Name = 
REMARK  16 active torsions:
REMARK  status: ('A' for Active; 'I' for Inactive)
REMARK    1  A    between atoms: C_1  and  C_2
REMARK    2  A    between atoms: C_2  and  C_3
REMARK    3  A    between atoms: C_2  and  C_4
REMARK    4  A    between atoms: C_2  and  C_5
REMARK    5  A    between atoms: C_7  and  C_8
REMARK    6  A    between atoms: C_8  and  C_9
REMARK    7  A    between atoms: C_8  and  C_10
REMARK    8  A    between atoms: C_8  and  C_11
REMARK    9  A    between atoms: C_13  and  S_14
REMARK   10  A    between atoms: S_14  and  N_17
REMARK   11  A    between atoms: N_17  and  C_18
REMARK   12  A    between atoms: C_21  and  C_22
REMARK   13  A    between atoms: C_22  and  C_23
REMARK   14  A    between atoms: N_25  and  C_26
REMARK   15  A    between atoms: C_26  and  C_27
REMARK   16  A    between atoms: C_27  and  N_28
REMARK                            x       y       z     vdW  Elec       q    Type
REMARK                         _______ _______ _______ _____ _____    ______ ____
ROOT
ATOM      1  N   UNL     1       0.069  11.089  19.935  0.00  0.00    +0.000 N 
ATOM      2  H   UNL     1      -0.202  11.062  20.927  0.00  0.00    +0.000 HD
ENDROOT
BRANCH   1   3
ATOM      3  C   UNL     1       0.867  10.005  19.488  0.00  0.00    +0.000 A 
ATOM      4  C   UNL     1       1.098   8.884  20.301  0.00  0.00    +0.000 A 
ATOM      5  C   UNL     1       1.856   7.806  19.816  0.00  0.00    +0.000 A 
ATOM      6  C   UNL     1       2.405   7.847  18.520  0.00  0.00    +0.000 A 
ATOM      7  C   UNL     1       2.186   8.983  17.724  0.00  0.00    +0.000 A 
ATOM      8  C   UNL     1       1.415  10.044  18.199  0.00  0.00    +0.000 A 
BRANCH   6   9
ATOM      9  C   UNL     1       3.249   6.708  18.001  0.00  0.00    +0.000 C 
BRANCH   9  10
ATOM     10  C   UNL     1       3.406   5.572  18.987  0.00  0.00    +0.000 C 
ATOM     11  O   UNL     1       4.399   5.559  19.702  0.00  0.00    +0.000 OA
ATOM     12  N   UNL     1       2.497   4.559  19.064  0.00  0.00    +0.000 N 
ATOM     13  H   UNL     1       1.669   4.572  18.448  0.00  0.00    +0.000 HD
BRANCH  12  14
ATOM     14  C   UNL     1       2.705   3.445  19.981  0.00  0.00    +0.000 C 
BRANCH  14  15
ATOM     15  C   UNL     1       3.504   2.303  19.343  0.00  0.00    +0.000 C 
BRANCH  15  16
ATOM     16  N   UNL     1       4.917   2.428  19.698  0.00  0.00    +0.000 NA
ATOM     17  H   UNL     1       5.159   3.441  19.806  0.00  0.00    +0.000 HD
ATOM     18  H   UNL     1       5.498   2.046  18.917  0.00  0.00    +0.000 HD
ENDBRANCH  15  16
ENDBRANCH  14  15
ENDBRANCH  12  14
ENDBRANCH   9  10
ENDBRANCH   6   9
ENDBRANCH   1   3
BRANCH   1  19
ATOM     19  S   UNL     1      -1.294  11.612  18.959  0.00  0.00    +0.000 S 
ATOM     20  O   UNL     1      -1.554  10.481  17.954  0.00  0.00    +0.000 OA
ATOM     21  O   UNL     1      -0.722  12.723  18.066  0.00  0.00    +0.000 OA
BRANCH  19  26
ATOM     22  C   UNL     1      -3.684  13.082  21.931  0.00  0.00    +0.000 A 
ATOM     23  C   UNL     1      -4.970  12.927  21.382  0.00  0.00    +0.000 A 
ATOM     24  C   UNL     1      -5.176  12.360  20.104  0.00  0.00    +0.000 A 
ATOM     25  C   UNL     1      -4.038  11.983  19.351  0.00  0.00    +0.000 A 
ATOM     26  C   UNL     1      -2.751  12.129  19.880  0.00  0.00    +0.000 A 
ATOM     27  C   UNL     1      -2.582  12.655  21.153  0.00  0.00    +0.000 A 
BRANCH  22  29
ATOM     28  C   UNL     1      -4.070  12.443  24.268  0.00  0.00    +0.000 C 
ATOM     29  C   UNL     1      -3.467  13.549  23.381  0.00  0.00    +0.000 C 
ATOM     30  C   UNL     1      -4.184  14.878  23.733  0.00  0.00    +0.000 C 
ATOM     31  C   UNL     1      -1.965  13.774  23.701  0.00  0.00    +0.000 C 
ENDBRANCH  22  29
BRANCH  24  32
ATOM     32  C   UNL     1      -6.624  12.121  19.619  0.00  0.00    +0.000 C 
ATOM     33  C   UNL     1      -7.228  13.423  19.052  0.00  0.00    +0.000 C 
ATOM     34  C   UNL     1      -6.715  11.032  18.525  0.00  0.00    +0.000 C 
ATOM     35  C   UNL     1      -7.474  11.641  20.821  0.00  0.00    +0.000 C 
ENDBRANCH  24  32
ENDBRANCH  19  26
ENDBRANCH   1  19
TORSDOF 10
ENDMDL
MODEL 4
REMARK VINA RESULT:      -6.9      3.437      5.326
REMARK  Name = 
REMARK  16 active torsions:
REMARK  status: ('A' for Active; 'I' for Inactive)
REMARK    1  A    between atoms: C_1  and  C_2
REMARK    2  A    between atoms: C_2  and  C_3
REMARK    3  A    between atoms: C_2  and  C_4
REMARK    4  A    between atoms: C_2  and  C_5
REMARK    5  A    between atoms: C_7  and  C_8
REMARK    6  A    between atoms: C_8  and  C_9
REMARK    7  A    between atoms: C_8  and  C_10
REMARK    8  A    between atoms: C_8  and  C_11
REMARK    9  A    between atoms: C_13  and  S_14
REMARK   10  A    between atoms: S_14  and  N_17
REMARK   11  A    between atoms: N_17  and  C_18
REMARK   12  A    between atoms: C_21  and  C_22
REMARK   13  A    between atoms: C_22  and  C_23
REMARK   14  A    between atoms: N_25  and  C_26
REMARK   15  A    between atoms: C_26  and  C_27
REMARK   16  A    between atoms: C_27  and  N_28
REMARK                            x       y       z     vdW  Elec       q    Type
REMARK                         _______ _______ _______ _____ _____    ______ ____
ROOT
ATOM      1  N   UNL     1       0.059  11.222  19.784  0.00  0.00    +0.000 N 
ATOM      2  H   UNL     1      -0.187  11.209  20.783  0.00  0.00    +0.000 HD
ENDROOT
BRANCH   1   3
ATOM      3  C   UNL     1       0.847  10.132  19.333  0.00  0.00    +0.000 A 
ATOM      4  C   UNL     1       1.464  10.149  18.072  0.00  0.00    +0.000 A 
ATOM      5  C   UNL     1       2.276   9.077  17.670  0.00  0.00    +0.000 A 
ATOM      6  C   UNL     1       2.463   7.968  18.518  0.00  0.00    +0.000 A 
ATOM      7  C   UNL     1       1.823   7.952  19.768  0.00  0.00    +0.000 A 
ATOM      8  C   UNL     1       1.035   9.028  20.175  0.00  0.00    +0.000 A 
BRANCH   6   9
ATOM      9  C   UNL     1       3.308   6.795  18.082  0.00  0.00    +0.000 C 
BRANCH   9  10
ATOM     10  C   UNL     1       2.805   5.464  18.594  0.00  0.00    +0.000 C 
ATOM     11  O   UNL     1       1.831   4.964  18.049  0.00  0.00    +0.000 OA
ATOM     12  N   UNL     1       3.383   4.843  19.661  0.00  0.00    +0.000 N 
ATOM     13  H   UNL     1       4.197   5.279  20.123  0.00  0.00    +0.000 HD
BRANCH  12  14
ATOM     14  C   UNL     1       2.840   3.591  20.173  0.00  0.00    +0.000 C 
BRANCH  14  15
ATOM     15  C   UNL     1       3.850   2.441  20.099  0.00  0.00    +0.000 C 
BRANCH  15  16
ATOM     16  N   UNL     1       5.100   2.916  19.507  0.00  0.00    +0.000 NA
ATOM     17  H   UNL     1       5.870   2.244  19.735  0.00  0.00    +0.000 HD
ATOM     18  H   UNL     1       5.349   3.837  19.934  0.00  0.00    +0.000 HD
ENDBRANCH  15  16
ENDBRANCH  14  15
ENDBRANCH  12  14
ENDBRANCH   9  10
ENDBRANCH   6   9
ENDBRANCH   1   3
BRANCH   1  19
ATOM     19  S   UNL     1      -1.328  11.728  18.835  0.00  0.00    +0.000 S 
ATOM     20  O   UNL     1      -1.562  10.618  17.800  0.00  0.00    +0.000 OA
ATOM     21  O   UNL     1      -0.800  12.882  17.969  0.00  0.00    +0.000 OA
BRANCH  19  26
ATOM     22  C   UNL     1      -3.736  13.034  21.870  0.00  0.00    +0.000 A 
ATOM     23  C   UNL     1      -5.021  12.857  21.325  0.00  0.00    +0.000 A 
ATOM     24  C   UNL     1      -5.222  12.323  20.033  0.00  0.00    +0.000 A 
ATOM     25  C   UNL     1      -4.080  12.004  19.259  0.00  0.00    +0.000 A 
ATOM     26  C   UNL     1      -2.793  12.172  19.782  0.00  0.00    +0.000 A 
ATOM     27  C   UNL     1      -2.628  12.665  21.070  0.00  0.00    +0.000 A 
BRANCH  22  29
ATOM     28  C   UNL     1      -1.993  13.511  23.528  0.00  0.00    +0.000 C 
ATOM     29  C   UNL     1      -3.521  13.463  23.331  0.00  0.00    +0.000 C 
ATOM     30  C   UNL     1      -4.099  12.473  24.375  0.00  0.00    +0.000 C 
ATOM     31  C   UNL     1      -4.173  14.838  23.636  0.00  0.00    +0.000 C 
ENDBRANCH  22  29
BRANCH  24  32
ATOM     32  C   UNL     1      -6.666  12.055  19.551  0.00  0.00    +0.000 C 
ATOM     33  C   UNL     1      -7.162  13.210  18.656  0.00  0.00    +0.000 C 
ATOM     34  C   UNL     1      -6.794  10.737  18.754  0.00  0.00    +0.000 C 
ATOM     35  C   UNL     1      -7.584  11.935  20.792  0.00  0.00    +0.000 C 
ENDBRANCH  24  32
ENDBRANCH  19  26
ENDBRANCH   1  19
TORSDOF 10
ENDMDL
MODEL 5
REMARK VINA RESULT:      -6.9      3.316      5.241
REMARK  Name = 
REMARK  16 active torsions:
REMARK  status: ('A' for Active; 'I' for Inactive)
REMARK    1  A    between atoms: C_1  and  C_2
REMARK    2  A    between atoms: C_2  and  C_3
REMARK    3  A    between atoms: C_2  and  C_4
REMARK    4  A    between atoms: C_2  and  C_5
REMARK    5  A    between atoms: C_7  and  C_8
REMARK    6  A    between atoms: C_8  and  C_9
REMARK    7  A    between atoms: C_8  and  C_10
REMARK    8  A    between atoms: C_8  and  C_11
REMARK    9  A    between atoms: C_13  and  S_14
REMARK   10  A    between atoms: S_14  and  N_17
REMARK   11  A    between atoms: N_17  and  C_18
REMARK   12  A    between atoms: C_21  and  C_22
REMARK   13  A    between atoms: C_22  and  C_23
REMARK   14  A    between atoms: N_25  and  C_26
REMARK   15  A    between atoms: C_26  and  C_27
REMARK   16  A    between atoms: C_27  and  N_28
REMARK                            x       y       z     vdW  Elec       q    Type
REMARK                         _______ _______ _______ _____ _____    ______ ____
ROOT
ATOM      1  N   UNL     1       0.227  10.732  19.993  0.00  0.00    +0.000 N 
ATOM      2  H   UNL     1      -0.189  10.595  20.924  0.00  0.00    +0.000 HD
ENDROOT
BRANCH   1   3
ATOM      3  C   UNL     1       1.014   9.656  19.508  0.00  0.00    +0.000 A 
ATOM      4  C   UNL     1       1.580   9.685  18.223  0.00  0.00    +0.000 A 
ATOM      5  C   UNL     1       2.391   8.626  17.787  0.00  0.00    +0.000 A 
ATOM      6  C   UNL     1       2.629   7.519  18.624  0.00  0.00    +0.000 A 
ATOM      7  C   UNL     1       2.040   7.490  19.898  0.00  0.00    +0.000 A 
ATOM      8  C   UNL     1       1.252   8.553  20.339  0.00  0.00    +0.000 A 
BRANCH   6   9
ATOM      9  C   UNL     1       3.474   6.360  18.151  0.00  0.00    +0.000 C 
BRANCH   9  10
ATOM     10  C   UNL     1       2.808   5.014  18.328  0.00  0.00    +0.000 C 
ATOM     11  O   UNL     1       1.770   4.797  17.717  0.00  0.00    +0.000 OA
ATOM     12  N   UNL     1       3.311   4.071  19.173  0.00  0.00    +0.000 N 
ATOM     13  H   UNL     1       4.180   4.268  19.694  0.00  0.00    +0.000 HD
BRANCH  12  14
ATOM     14  C   UNL     1       2.615   2.806  19.371  0.00  0.00    +0.000 C 
BRANCH  14  15
ATOM     15  C   UNL     1       1.754   2.804  20.639  0.00  0.00    +0.000 C 
BRANCH  15  16
ATOM     16  N   UNL     1       0.516   3.545  20.399  0.00  0.00    +0.000 NA
ATOM     17  H   UNL     1      -0.143   3.387  21.197  0.00  0.00    +0.000 HD
ATOM     18  H   UNL     1       0.060   3.172  19.535  0.00  0.00    +0.000 HD
ENDBRANCH  15  16
ENDBRANCH  14  15
ENDBRANCH  12  14
ENDBRANCH   9  10
ENDBRANCH   6   9
ENDBRANCH   1   3
BRANCH   1  19
ATOM     19  S   UNL     1      -0.941  11.491  18.925  0.00  0.00    +0.000 S 
ATOM     20  O   UNL     1      -1.154  10.509  17.763  0.00  0.00    +0.000 OA
ATOM     21  O   UNL     1      -0.163  12.633  18.254  0.00  0.00    +0.000 OA
BRANCH  19  26
ATOM     22  C   UNL     1      -3.557  13.006  21.676  0.00  0.00    +0.000 A 
ATOM     23  C   UNL     1      -4.789  12.894  21.008  0.00  0.00    +0.000 A 
ATOM     24  C   UNL     1      -4.891  12.344  19.711  0.00  0.00    +0.000 A 
ATOM     25  C   UNL     1      -3.699  11.939  19.062  0.00  0.00    +0.000 A 
ATOM     26  C   UNL     1      -2.464  12.043  19.711  0.00  0.00    +0.000 A 
ATOM     27  C   UNL     1      -2.399  12.554  21.000  0.00  0.00    +0.000 A 
BRANCH  22  29
ATOM     28  C   UNL     1      -4.371  14.696  23.258  0.00  0.00    +0.000 C 
ATOM     29  C   UNL     1      -3.463  13.455  23.145  0.00  0.00    +0.000 C 
ATOM     30  C   UNL     1      -2.038  13.873  23.590  0.00  0.00    +0.000 C 
ATOM     31  C   UNL     1      -3.909  12.338  24.125  0.00  0.00    +0.000 C 
ENDBRANCH  22  29
BRANCH  24  32
ATOM     32  C   UNL     1      -6.293  12.151  19.089  0.00  0.00    +0.000 C 
ATOM     33  C   UNL     1      -6.628  10.650  18.961  0.00  0.00    +0.000 C 
ATOM     34  C   UNL     1      -7.411  12.825  19.917  0.00  0.00    +0.000 C 
ATOM     35  C   UNL     1      -6.303  12.802  17.684  0.00  0.00    +0.000 C 
ENDBRANCH  24  32
ENDBRANCH  19  26
ENDBRANCH   1  19
TORSDOF 10
ENDMDL
MODEL 6
REMARK VINA RESULT:      -6.9      0.698      1.533
REMARK  Name = 
REMARK  16 active torsions:
REMARK  status: ('A' for Active; 'I' for Inactive)
REMARK    1  A    between atoms: C_1  and  C_2
REMARK    2  A    between atoms: C_2  and  C_3
REMARK    3  A    between atoms: C_2  and  C_4
REMARK    4  A    between atoms: C_2  and  C_5
REMARK    5  A    between atoms: C_7  and  C_8
REMARK    6  A    between atoms: C_8  and  C_9
REMARK    7  A    between atoms: C_8  and  C_10
REMARK    8  A    between atoms: C_8  and  C_11
REMARK    9  A    between atoms: C_13  and  S_14
REMARK   10  A    between atoms: S_14  and  N_17
REMARK   11  A    between atoms: N_17  and  C_18
REMARK   12  A    between atoms: C_21  and  C_22
REMARK   13  A    between atoms: C_22  and  C_23
REMARK   14  A    between atoms: N_25  and  C_26
REMARK   15  A    between atoms: C_26  and  C_27
REMARK   16  A    between atoms: C_27  and  N_28
REMARK                            x       y       z     vdW  Elec       q    Type
REMARK                         _______ _______ _______ _____ _____    ______ ____
ROOT
ATOM      1  N   UNL     1       1.673   8.485  21.493  0.00  0.00    +0.000 N 
ATOM      2  H   UNL     1       2.058   8.294  22.428  0.00  0.00    +0.000 HD
ENDROOT
BRANCH   1   3
ATOM      3  C   UNL     1       1.978   7.523  20.496  0.00  0.00    +0.000 A 
ATOM      4  C   UNL     1       2.050   6.154  20.800  0.00  0.00    +0.000 A 
ATOM      5  C   UNL     1       2.309   5.220  19.785  0.00  0.00    +0.000 A 
ATOM      6  C   UNL     1       2.517   5.648  18.459  0.00  0.00    +0.000 A 
ATOM      7  C   UNL     1       2.465   7.021  18.171  0.00  0.00    +0.000 A 
ATOM      8  C   UNL     1       2.185   7.946  19.177  0.00  0.00    +0.000 A 
BRANCH   6   9
ATOM      9  C   UNL     1       2.829   4.654  17.366  0.00  0.00    +0.000 C 
BRANCH   9  10
ATOM     10  C   UNL     1       4.250   4.741  16.856  0.00  0.00    +0.000 C 
ATOM     11  O   UNL     1       4.643   3.875  16.087  0.00  0.00    +0.000 OA
ATOM     12  N   UNL     1       5.100   5.725  17.266  0.00  0.00    +0.000 N 
ATOM     13  H   UNL     1       4.763   6.444  17.927  0.00  0.00    +0.000 HD
BRANCH  12  14
ATOM     14  C   UNL     1       6.483   5.749  16.807  0.00  0.00    +0.000 C 
BRANCH  14  15
ATOM     15  C   UNL     1       7.476   5.400  17.921  0.00  0.00    +0.000 C 
BRANCH  15  16
ATOM     16  N   UNL     1       8.081   4.095  17.655  0.00  0.00    +0.000 NA
ATOM     17  H   UNL     1       9.048   4.074  18.057  0.00  0.00    +0.000 HD
ATOM     18  H   UNL     1       8.165   3.965  16.621  0.00  0.00    +0.000 HD
ENDBRANCH  15  16
ENDBRANCH  14  15
ENDBRANCH  12  14
ENDBRANCH   9  10
ENDBRANCH   6   9
ENDBRANCH   1   3
BRANCH   1  19
ATOM     19  S   UNL     1       0.028   9.083  21.636  0.00  0.00    +0.000 S 
ATOM     20  O   UNL     1      -0.173   9.420  23.120  0.00  0.00    +0.000 OA
ATOM     21  O   UNL     1      -0.850   7.834  21.458  0.00  0.00    +0.000 OA
BRANCH  19  26
ATOM     22  C   UNL     1      -1.832  11.217  18.688  0.00  0.00    +0.000 A 
ATOM     23  C   UNL     1      -1.128  12.435  18.713  0.00  0.00    +0.000 A 
ATOM     24  C   UNL     1      -0.055  12.662  19.603  0.00  0.00    +0.000 A 
ATOM     25  C   UNL     1       0.279  11.636  20.520  0.00  0.00    +0.000 A 
ATOM     26  C   UNL     1      -0.410  10.418  20.511  0.00  0.00    +0.000 A 
ATOM     27  C   UNL     1      -1.437  10.211  19.600  0.00  0.00    +0.000 A 
BRANCH  22  29
ATOM     28  C   UNL     1      -4.128  11.746  18.004  0.00  0.00    +0.000 C 
ATOM     29  C   UNL     1      -2.893  10.910  17.616  0.00  0.00    +0.000 C 
ATOM     30  C   UNL     1      -3.328   9.423  17.563  0.00  0.00    +0.000 C 
ATOM     31  C   UNL     1      -2.397  11.264  16.189  0.00  0.00    +0.000 C 
ENDBRANCH  22  29
BRANCH  24  32
ATOM     32  C   UNL     1       0.741  13.982  19.492  0.00  0.00    +0.000 C 
ATOM     33  C   UNL     1       1.023  14.564  20.893  0.00  0.00    +0.000 C 
ATOM     34  C   UNL     1       2.092  13.806  18.763  0.00  0.00    +0.000 C 
ATOM     35  C   UNL     1      -0.097  14.995  18.674  0.00  0.00    +0.000 C 
ENDBRANCH  24  32
ENDBRANCH  19  26
ENDBRANCH   1  19
TORSDOF 10
ENDMDL
MODEL 7
REMARK VINA RESULT:      -6.8      3.332      5.328
REMARK  Name = 
REMARK  16 active torsions:
REMARK  status: ('A' for Active; 'I' for Inactive)
REMARK    1  A    between atoms: C_1  and  C_2
REMARK    2  A    between atoms: C_2  and  C_3
REMARK    3  A    between atoms: C_2  and  C_4
REMARK    4  A    between atoms: C_2  and  C_5
REMARK    5  A    between atoms: C_7  and  C_8
REMARK    6  A    between atoms: C_8  and  C_9
REMARK    7  A    between atoms: C_8  and  C_10
REMARK    8  A    between atoms: C_8  and  C_11
REMARK    9  A    between atoms: C_13  and  S_14
REMARK   10  A    between atoms: S_14  and  N_17
REMARK   11  A    between atoms: N_17  and  C_18
REMARK   12  A    between atoms: C_21  and  C_22
REMARK   13  A    between atoms: C_22  and  C_23
REMARK   14  A    between atoms: N_25  and  C_26
REMARK   15  A    between atoms: C_26  and  C_27
REMARK   16  A    between atoms: C_27  and  N_28
REMARK                            x       y       z     vdW  Elec       q    Type
REMARK                         _______ _______ _______ _____ _____    ______ ____
ROOT
ATOM      1  N   UNL     1       0.128  10.736  20.040  0.00  0.00    +0.000 N 
ATOM      2  H   UNL     1      -0.301  10.595  20.965  0.00  0.00    +0.000 HD
ENDROOT
BRANCH   1   3
ATOM      3  C   UNL     1       0.945   9.673  19.575  0.00  0.00    +0.000 A 
ATOM      4  C   UNL     1       1.253   8.576  20.397  0.00  0.00    +0.000 A 
ATOM      5  C   UNL     1       2.027   7.517  19.896  0.00  0.00    +0.000 A 
ATOM      6  C   UNL     1       2.515   7.553  18.576  0.00  0.00    +0.000 A 
ATOM      7  C   UNL     1       2.219   8.666  17.771  0.00  0.00    +0.000 A 
ATOM      8  C   UNL     1       1.432   9.707  18.263  0.00  0.00    +0.000 A 
BRANCH   6   9
ATOM      9  C   UNL     1       3.376   6.435  18.039  0.00  0.00    +0.000 C 
BRANCH   9  10
ATOM     10  C   UNL     1       2.825   5.056  18.325  0.00  0.00    +0.000 C 
ATOM     11  O   UNL     1       1.828   4.693  17.715  0.00  0.00    +0.000 OA
ATOM     12  N   UNL     1       3.384   4.242  19.264  0.00  0.00    +0.000 N 
ATOM     13  H   UNL     1       4.217   4.562  19.783  0.00  0.00    +0.000 HD
BRANCH  12  14
ATOM     14  C   UNL     1       2.795   2.942  19.563  0.00  0.00    +0.000 C 
BRANCH  14  15
ATOM     15  C   UNL     1       1.863   2.988  20.778  0.00  0.00    +0.000 C 
BRANCH  15  16
ATOM     16  N   UNL     1       0.516   3.371  20.355  0.00  0.00    +0.000 NA
ATOM     17  H   UNL     1      -0.017   2.513  20.079  0.00  0.00    +0.000 HD
ATOM     18  H   UNL     1       0.587   3.984  19.512  0.00  0.00    +0.000 HD
ENDBRANCH  15  16
ENDBRANCH  14  15
ENDBRANCH  12  14
ENDBRANCH   9  10
ENDBRANCH   6   9
ENDBRANCH   1   3
BRANCH   1  19
ATOM     19  S   UNL     1      -1.036  11.465  18.947  0.00  0.00    +0.000 S 
ATOM     20  O   UNL     1      -1.255  10.446  17.819  0.00  0.00    +0.000 OA
ATOM     21  O   UNL     1      -0.250  12.579  18.238  0.00  0.00    +0.000 OA
BRANCH  19  26
ATOM     22  C   UNL     1      -3.650  13.033  21.670  0.00  0.00    +0.000 A 
ATOM     23  C   UNL     1      -4.875  12.958  20.982  0.00  0.00    +0.000 A 
ATOM     24  C   UNL     1      -4.973  12.419  19.680  0.00  0.00    +0.000 A 
ATOM     25  C   UNL     1      -3.782  11.986  19.047  0.00  0.00    +0.000 A 
ATOM     26  C   UNL     1      -2.554  12.053  19.714  0.00  0.00    +0.000 A 
ATOM     27  C   UNL     1      -2.495  12.554  21.007  0.00  0.00    +0.000 A 
BRANCH  22  29
ATOM     28  C   UNL     1      -2.087  13.829  23.385  0.00  0.00    +0.000 C 
ATOM     29  C   UNL     1      -3.566  13.470  23.143  0.00  0.00    +0.000 C 
ATOM     30  C   UNL     1      -3.954  12.362  24.156  0.00  0.00    +0.000 C 
ATOM     31  C   UNL     1      -4.498  14.673  23.446  0.00  0.00    +0.000 C 
ENDBRANCH  22  29
BRANCH  24  32
ATOM     32  C   UNL     1      -6.370  12.268  19.037  0.00  0.00    +0.000 C 
ATOM     33  C   UNL     1      -7.465  12.787  19.992  0.00  0.00    +0.000 C 
ATOM     34  C   UNL     1      -6.496  13.030  17.698  0.00  0.00    +0.000 C 
ATOM     35  C   UNL     1      -6.616  10.768  18.740  0.00  0.00    +0.000 C 
ENDBRANCH  24  32
ENDBRANCH  19  26
ENDBRANCH   1  19
TORSDOF 10
ENDMDL
MODEL 8
REMARK VINA RESULT:      -6.8      3.386      4.522
REMARK  Name = 
REMARK  16 active torsions:
REMARK  status: ('A' for Active; 'I' for Inactive)
REMARK    1  A    between atoms: C_1  and  C_2
REMARK    2  A    between atoms: C_2  and  C_3
REMARK    3  A    between atoms: C_2  and  C_4
REMARK    4  A    between atoms: C_2  and  C_5
REMARK    5  A    between atoms: C_7  and  C_8
REMARK    6  A    between atoms: C_8  and  C_9
REMARK    7  A    between atoms: C_8  and  C_10
REMARK    8  A    between atoms: C_8  and  C_11
REMARK    9  A    between atoms: C_13  and  S_14
REMARK   10  A    between atoms: S_14  and  N_17
REMARK   11  A    between atoms: N_17  and  C_18
REMARK   12  A    between atoms: C_21  and  C_22
REMARK   13  A    between atoms: C_22  and  C_23
REMARK   14  A    between atoms: N_25  and  C_26
REMARK   15  A    between atoms: C_26  and  C_27
REMARK   16  A    between atoms: C_27  and  N_28
REMARK                            x       y       z     vdW  Elec       q    Type
REMARK                         _______ _______ _______ _____ _____    ______ ____
ROOT
ATOM      1  N   UNL     1       0.234  10.744  20.064  0.00  0.00    +0.000 N 
ATOM      2  H   UNL     1      -0.106  10.658  21.031  0.00  0.00    +0.000 HD
ENDROOT
BRANCH   1   3
ATOM      3  C   UNL     1       0.980   9.640  19.576  0.00  0.00    +0.000 A 
ATOM      4  C   UNL     1       1.537   9.648  18.287  0.00  0.00    +0.000 A 
ATOM      5  C   UNL     1       2.308   8.561  17.847  0.00  0.00    +0.000 A 
ATOM      6  C   UNL     1       2.514   7.447  18.684  0.00  0.00    +0.000 A 
ATOM      7  C   UNL     1       1.934   7.441  19.963  0.00  0.00    +0.000 A 
ATOM      8  C   UNL     1       1.186   8.532  20.407  0.00  0.00    +0.000 A 
BRANCH   6   9
ATOM      9  C   UNL     1       3.315   6.259  18.208  0.00  0.00    +0.000 C 
BRANCH   9  10
ATOM     10  C   UNL     1       2.652   4.930  18.491  0.00  0.00    +0.000 C 
ATOM     11  O   UNL     1       1.664   4.624  17.837  0.00  0.00    +0.000 OA
ATOM     12  N   UNL     1       3.102   4.099  19.474  0.00  0.00    +0.000 N 
ATOM     13  H   UNL     1       3.927   4.372  20.030  0.00  0.00    +0.000 HD
BRANCH  12  14
ATOM     14  C   UNL     1       2.406   2.852  19.767  0.00  0.00    +0.000 C 
BRANCH  14  15
ATOM     15  C   UNL     1       1.476   2.971  20.980  0.00  0.00    +0.000 C 
BRANCH  15  16
ATOM     16  N   UNL     1       2.264   2.954  22.212  0.00  0.00    +0.000 NA
ATOM     17  H   UNL     1       1.746   3.469  22.962  0.00  0.00    +0.000 HD
ATOM     18  H   UNL     1       3.164   3.461  22.045  0.00  0.00    +0.000 HD
ENDBRANCH  15  16
ENDBRANCH  14  15
ENDBRANCH  12  14
ENDBRANCH   9  10
ENDBRANCH   6   9
ENDBRANCH   1   3
BRANCH   1  19
ATOM     19  S   UNL     1      -1.016  11.450  19.053  0.00  0.00    +0.000 S 
ATOM     20  O   UNL     1      -1.318  10.410  17.964  0.00  0.00    +0.000 OA
ATOM     21  O   UNL     1      -0.294  12.554  18.265  0.00  0.00    +0.000 OA
BRANCH  19  26
ATOM     22  C   UNL     1      -4.858  12.584  19.865  0.00  0.00    +0.000 A 
ATOM     23  C   UNL     1      -4.770  12.988  21.210  0.00  0.00    +0.000 A 
ATOM     24  C   UNL     1      -3.553  12.953  21.926  0.00  0.00    +0.000 A 
ATOM     25  C   UNL     1      -2.405  12.452  21.265  0.00  0.00    +0.000 A 
ATOM     26  C   UNL     1      -2.472  12.046  19.927  0.00  0.00    +0.000 A 
ATOM     27  C   UNL     1      -3.675  12.125  19.239  0.00  0.00    +0.000 A 
BRANCH  22  29
ATOM     28  C   UNL     1      -5.798  12.279  17.620  0.00  0.00    +0.000 C 
ATOM     29  C   UNL     1      -6.143  12.771  19.039  0.00  0.00    +0.000 C 
ATOM     30  C   UNL     1      -6.615  14.243  18.926  0.00  0.00    +0.000 C 
ATOM     31  C   UNL     1      -7.338  11.981  19.636  0.00  0.00    +0.000 C 
ENDBRANCH  22  29
BRANCH  24  32
ATOM     32  C   UNL     1      -3.515  13.519  23.364  0.00  0.00    +0.000 C 
ATOM     33  C   UNL     1      -4.014  12.464  24.374  0.00  0.00    +0.000 C 
ATOM     34  C   UNL     1      -2.099  13.965  23.793  0.00  0.00    +0.000 C 
ATOM     35  C   UNL     1      -4.432  14.765  23.427  0.00  0.00    +0.000 C 
ENDBRANCH  24  32
ENDBRANCH  19  26
ENDBRANCH   1  19
TORSDOF 10
ENDMDL
MODEL 9
REMARK VINA RESULT:      -6.8      3.333      9.138
REMARK  Name = 
REMARK  16 active torsions:
REMARK  status: ('A' for Active; 'I' for Inactive)
REMARK    1  A    between atoms: C_1  and  C_2
REMARK    2  A    between atoms: C_2  and  C_3
REMARK    3  A    between atoms: C_2  and  C_4
REMARK    4  A    between atoms: C_2  and  C_5
REMARK    5  A    between atoms: C_7  and  C_8
REMARK    6  A    between atoms: C_8  and  C_9
REMARK    7  A    between atoms: C_8  and  C_10
REMARK    8  A    between atoms: C_8  and  C_11
REMARK    9  A    between atoms: C_13  and  S_14
REMARK   10  A    between atoms: S_14  and  N_17
REMARK   11  A    between atoms: N_17  and  C_18
REMARK   12  A    between atoms: C_21  and  C_22
REMARK   13  A    between atoms: C_22  and  C_23
REMARK   14  A    between atoms: N_25  and  C_26
REMARK   15  A    between atoms: C_26  and  C_27
REMARK   16  A    between atoms: C_27  and  N_28
REMARK                            x       y       z     vdW  Elec       q    Type
REMARK                         _______ _______ _______ _____ _____    ______ ____
ROOT
ATOM      1  N   UNL     1       1.176   9.844  19.809  0.00  0.00    +0.000 N 
ATOM      2  H   UNL     1       2.028   9.938  19.240  0.00  0.00    +0.000 HD
ENDROOT
BRANCH   1   3
ATOM      3  C   UNL     1      -0.034  10.217  19.168  0.00  0.00    +0.000 A 
ATOM      4  C   UNL     1      -0.889  11.181  19.727  0.00  0.00    +0.000 A 
ATOM      5  C   UNL     1      -2.057  11.563  19.049  0.00  0.00    +0.000 A 
ATOM      6  C   UNL     1      -2.390  10.973  17.814  0.00  0.00    +0.000 A 
ATOM      7  C   UNL     1      -1.539   9.995  17.276  0.00  0.00    +0.000 A 
ATOM      8  C   UNL     1      -0.367   9.631  17.940  0.00  0.00    +0.000 A 
BRANCH   6   9
ATOM      9  C   UNL     1      -3.661  11.354  17.093  0.00  0.00    +0.000 C 
BRANCH   9  10
ATOM     10  C   UNL     1      -4.847  11.540  18.012  0.00  0.00    +0.000 C 
ATOM     11  O   UNL     1      -5.425  10.542  18.421  0.00  0.00    +0.000 OA
ATOM     12  N   UNL     1      -5.301  12.779  18.353  0.00  0.00    +0.000 N 
ATOM     13  H   UNL     1      -4.816  13.615  17.992  0.00  0.00    +0.000 HD
BRANCH  12  14
ATOM     14  C   UNL     1      -6.485  12.929  19.191  0.00  0.00    +0.000 C 
BRANCH  14  15
ATOM     15  C   UNL     1      -6.620  14.344  19.765  0.00  0.00    +0.000 C 
BRANCH  15  16
ATOM     16  N   UNL     1      -7.875  14.461  20.505  0.00  0.00    +0.000 NA
ATOM     17  H   UNL     1      -8.644  14.009  19.957  0.00  0.00    +0.000 HD
ATOM     18  H   UNL     1      -8.115  15.474  20.608  0.00  0.00    +0.000 HD
ENDBRANCH  15  16
ENDBRANCH  14  15
ENDBRANCH  12  14
ENDBRANCH   9  10
ENDBRANCH   6   9
ENDBRANCH   1   3
BRANCH   1  19
ATOM     19  S   UNL     1       1.235   8.350  20.729  0.00  0.00    +0.000 S 
ATOM     20  O   UNL     1      -0.204   8.080  21.192  0.00  0.00    +0.000 OA
ATOM     21  O   UNL     1       1.937   8.734  22.040  0.00  0.00    +0.000 OA
BRANCH  19  26
ATOM     22  C   UNL     1       2.224   4.532  19.654  0.00  0.00    +0.000 A 
ATOM     23  C   UNL     1       3.200   4.746  18.663  0.00  0.00    +0.000 A 
ATOM     24  C   UNL     1       3.615   6.043  18.287  0.00  0.00    +0.000 A 
ATOM     25  C   UNL     1       2.986   7.150  18.907  0.00  0.00    +0.000 A 
ATOM     26  C   UNL     1       2.013   6.958  19.894  0.00  0.00    +0.000 A 
ATOM     27  C   UNL     1       1.652   5.671  20.269  0.00  0.00    +0.000 A 
BRANCH  22  29
ATOM     28  C   UNL     1       3.118   2.256  19.854  0.00  0.00    +0.000 C 
ATOM     29  C   UNL     1       1.886   3.125  20.176  0.00  0.00    +0.000 C 
ATOM     30  C   UNL     1       0.658   2.472  19.491  0.00  0.00    +0.000 C 
ATOM     31  C   UNL     1       1.579   3.127  21.697  0.00  0.00    +0.000 C 
ENDBRANCH  22  29
BRANCH  24  32
ATOM     32  C   UNL     1       4.771   6.193  17.273  0.00  0.00    +0.000 C 
ATOM     33  C   UNL     1       4.509   7.380  16.323  0.00  0.00    +0.000 C 
ATOM     34  C   UNL     1       6.140   6.415  17.957  0.00  0.00    +0.000 C 
ATOM     35  C   UNL     1       4.874   4.886  16.448  0.00  0.00    +0.000 C 
ENDBRANCH  24  32
ENDBRANCH  19  26
ENDBRANCH   1  19
TORSDOF 10
ENDMDL
