MODEL 1
REMARK VINA RESULT:      -7.5      0.000      0.000
REMARK  Name = 
REMARK  4 active torsions:
REMARK  status: ('A' for Active; 'I' for Inactive)
REMARK    1  A    between atoms: C_1  and  O_2
REMARK    2  A    between atoms: O_2  and  C_3
REMARK    3  A    between atoms: C_6  and  C_7
REMARK    4  A    between atoms: C_7  and  C_8
REMARK                            x       y       z     vdW  Elec       q    Type
REMARK                         _______ _______ _______ _____ _____    ______ ____
ROOT
ATOM      1  C   UNL     1       3.013   7.113  18.016  0.00  0.00    +0.000 C 
ATOM      2  C   UNL     1       2.223   5.801  18.049  0.00  0.00    +0.000 C 
ATOM      3  C   UNL     1       3.188   4.636  18.206  0.00  0.00    +0.000 C 
ATOM      4  O   UNL     1       4.138   4.610  17.148  0.00  0.00    +0.000 OA
ATOM      5  C   UNL     1       4.936   5.798  16.985  0.00  0.00    +0.000 C 
ATOM      6  C   UNL     1       5.941   5.984  18.142  0.00  0.00    +0.000 C 
ATOM      7  C   UNL     1       6.921   4.819  18.231  0.00  0.00    +0.000 C 
ATOM      8  N   UNL     1       7.659   4.653  16.980  0.00  0.00    +0.000 NA
ATOM      9  C   UNL     1       6.745   4.426  15.858  0.00  0.00    +0.000 C 
ATOM     10  C   UNL     1       5.748   5.578  15.695  0.00  0.00    +0.000 C 
ATOM     11  C   UNL     1       4.011   7.031  16.843  0.00  0.00    +0.000 C 
ATOM     12  H   UNL     1       8.275   3.844  17.070  0.00  0.00    +0.000 HD
ENDROOT
BRANCH   1  13
ATOM     13  C   UNL     1       2.109   8.357  17.932  0.00  0.00    +0.000 C 
BRANCH  13  17
ATOM     14  C   UNL     1       0.687   9.635  21.823  0.00  0.00    +0.000 A 
ATOM     15  C   UNL     1       0.482  10.437  20.702  0.00  0.00    +0.000 A 
ATOM     16  C   UNL     1       0.901  10.017  19.437  0.00  0.00    +0.000 A 
ATOM     17  C   UNL     1       1.566   8.789  19.275  0.00  0.00    +0.000 A 
ATOM     18  C   UNL     1       1.755   7.984  20.404  0.00  0.00    +0.000 A 
ATOM     19  C   UNL     1       1.320   8.401  21.670  0.00  0.00    +0.000 A 
BRANCH  14  21
ATOM     20  C   UNL     1      -1.004  10.791  23.010  0.00  0.00    +0.000 C 
ATOM     21  O   UNL     1       0.279  10.177  23.010  0.00  0.00    +0.000 OA
ENDBRANCH  14  21
ENDBRANCH  13  17
ENDBRANCH   1  13
TORSDOF 3
ENDMDL
MODEL 2
REMARK VINA RESULT:      -7.5      0.126      1.082
REMARK  Name = 
REMARK  4 active torsions:
REMARK  status: ('A' for Active; 'I' for Inactive)
REMARK    1  A    between atoms: C_1  and  O_2
REMARK    2  A    between atoms: O_2  and  C_3
REMARK    3  A    between atoms: C_6  and  C_7
REMARK    4  A    between atoms: C_7  and  C_8
REMARK                            x       y       z     vdW  Elec       q    Type
REMARK                         _______ _______ _______ _____ _____    ______ ____
ROOT
ATOM      1  C   UNL     1       2.939   7.013  18.027  0.00  0.00    +0.000 C 
ATOM      2  C   UNL     1       2.186   5.679  17.989  0.00  0.00    +0.000 C 
ATOM      3  C   UNL     1       3.175   4.537  18.165  0.00  0.00    +0.000 C 
ATOM      4  O   UNL     1       4.175   4.564  17.154  0.00  0.00    +0.000 OA
ATOM      5  C   UNL     1       4.946   5.778  17.060  0.00  0.00    +0.000 C 
ATOM      6  C   UNL     1       5.889   5.961  18.269  0.00  0.00    +0.000 C 
ATOM      7  C   UNL     1       6.896   4.821  18.377  0.00  0.00    +0.000 C 
ATOM      8  N   UNL     1       7.698   4.707  17.160  0.00  0.00    +0.000 NA
ATOM      9  C   UNL     1       6.846   4.484  15.990  0.00  0.00    +0.000 C 
ATOM     10  C   UNL     1       5.826   5.613  15.806  0.00  0.00    +0.000 C 
ATOM     11  C   UNL     1       3.995   6.989  16.903  0.00  0.00    +0.000 C 
ATOM     12  H   UNL     1       8.332   3.914  17.260  0.00  0.00    +0.000 HD
ENDROOT
BRANCH   1  13
ATOM     13  C   UNL     1       2.005   8.234  17.929  0.00  0.00    +0.000 C 
BRANCH  13  17
ATOM     14  C   UNL     1       0.701   9.776  21.765  0.00  0.00    +0.000 A 
ATOM     15  C   UNL     1       1.288   8.515  21.678  0.00  0.00    +0.000 A 
ATOM     16  C   UNL     1       1.747   8.025  20.453  0.00  0.00    +0.000 A 
ATOM     17  C   UNL     1       1.599   8.781  19.278  0.00  0.00    +0.000 A 
ATOM     18  C   UNL     1       1.022  10.053  19.378  0.00  0.00    +0.000 A 
ATOM     19  C   UNL     1       0.576  10.549  20.611  0.00  0.00    +0.000 A 
BRANCH  14  21
ATOM     20  C   UNL     1      -0.988  10.828  23.047  0.00  0.00    +0.000 C 
ATOM     21  O   UNL     1       0.246  10.123  23.007  0.00  0.00    +0.000 OA
ENDBRANCH  14  21
ENDBRANCH  13  17
ENDBRANCH   1  13
TORSDOF 3
ENDMDL
MODEL 3
REMARK VINA RESULT:      -7.2      4.244      5.182
REMARK  Name = 
REMARK  4 active torsions:
REMARK  status: ('A' for Active; 'I' for Inactive)
REMARK    1  A    between atoms: C_1  and  O_2
REMARK    2  A    between atoms: O_2  and  C_3
REMARK    3  A    between atoms: C_6  and  C_7
REMARK    4  A    between atoms: C_7  and  C_8
REMARK                            x       y       z     vdW  Elec       q    Type
REMARK                         _______ _______ _______ _____ _____    ______ ____
ROOT
ATOM      1  C   UNL     1       4.933   4.245  16.338  0.00  0.00    +0.000 C 
ATOM      2  C   UNL     1       5.872   4.073  15.139  0.00  0.00    +0.000 C 
ATOM      3  C   UNL     1       7.277   4.502  15.534  0.00  0.00    +0.000 C 
ATOM      4  O   UNL     1       7.294   5.853  15.980  0.00  0.00    +0.000 OA
ATOM      5  C   UNL     1       6.431   6.164  17.091  0.00  0.00    +0.000 C 
ATOM      6  C   UNL     1       6.924   5.521  18.405  0.00  0.00    +0.000 C 
ATOM      7  C   UNL     1       8.314   6.018  18.790  0.00  0.00    +0.000 C 
ATOM      8  N   UNL     1       8.333   7.473  18.933  0.00  0.00    +0.000 NA
ATOM      9  C   UNL     1       7.917   8.128  17.692  0.00  0.00    +0.000 C 
ATOM     10  C   UNL     1       6.511   7.693  17.262  0.00  0.00    +0.000 C 
ATOM     11  C   UNL     1       4.982   5.727  16.763  0.00  0.00    +0.000 C 
ATOM     12  H   UNL     1       9.286   7.766  19.155  0.00  0.00    +0.000 HD
ENDROOT
BRANCH   1  13
ATOM     13  C   UNL     1       3.498   3.765  16.052  0.00  0.00    +0.000 C 
BRANCH  13  17
ATOM     14  C   UNL     1       1.370   2.894  19.727  0.00  0.00    +0.000 A 
ATOM     15  C   UNL     1       1.236   4.139  19.115  0.00  0.00    +0.000 A 
ATOM     16  C   UNL     1       1.886   4.416  17.910  0.00  0.00    +0.000 A 
ATOM     17  C   UNL     1       2.713   3.455  17.305  0.00  0.00    +0.000 A 
ATOM     18  C   UNL     1       2.830   2.201  17.919  0.00  0.00    +0.000 A 
ATOM     19  C   UNL     1       2.164   1.921  19.120  0.00  0.00    +0.000 A 
BRANCH  14  21
ATOM     20  C   UNL     1       1.558   2.561  22.063  0.00  0.00    +0.000 C 
ATOM     21  O   UNL     1       0.727   2.760  20.926  0.00  0.00    +0.000 OA
ENDBRANCH  14  21
ENDBRANCH  13  17
ENDBRANCH   1  13
TORSDOF 3
ENDMDL
MODEL 4
REMARK VINA RESULT:      -7.1      4.060      8.350
REMARK  Name = 
REMARK  4 active torsions:
REMARK  status: ('A' for Active; 'I' for Inactive)
REMARK    1  A    between atoms: C_1  and  O_2
REMARK    2  A    between atoms: O_2  and  C_3
REMARK    3  A    between atoms: C_6  and  C_7
REMARK    4  A    between atoms: C_7  and  C_8
REMARK                            x       y       z     vdW  Elec       q    Type
REMARK                         _______ _______ _______ _____ _____    ______ ____
ROOT
ATOM      1  C   UNL     1       4.698   4.836  17.129  0.00  0.00    +0.000 C 
ATOM      2  C   UNL     1       5.674   4.460  18.248  0.00  0.00    +0.000 C 
ATOM      3  C   UNL     1       5.007   3.465  19.186  0.00  0.00    +0.000 C 
ATOM      4  O   UNL     1       3.812   4.004  19.739  0.00  0.00    +0.000 OA
ATOM      5  C   UNL     1       2.812   4.426  18.792  0.00  0.00    +0.000 C 
ATOM      6  C   UNL     1       2.164   3.230  18.061  0.00  0.00    +0.000 C 
ATOM      7  C   UNL     1       1.463   2.287  19.033  0.00  0.00    +0.000 C 
ATOM      8  N   UNL     1       0.436   2.988  19.802  0.00  0.00    +0.000 NA
ATOM      9  C   UNL     1       1.015   4.106  20.552  0.00  0.00    +0.000 C 
ATOM     10  C   UNL     1       1.713   5.110  19.628  0.00  0.00    +0.000 C 
ATOM     11  C   UNL     1       3.434   5.426  17.788  0.00  0.00    +0.000 C 
ATOM     12  H   UNL     1       0.018   2.332  20.462  0.00  0.00    +0.000 HD
ENDROOT
BRANCH   1  13
ATOM     13  C   UNL     1       5.315   5.787  16.087  0.00  0.00    +0.000 C 
BRANCH  13  17
ATOM     14  C   UNL     1       6.640   3.665  12.546  0.00  0.00    +0.000 A 
ATOM     15  C   UNL     1       5.329   3.528  12.998  0.00  0.00    +0.000 A 
ATOM     16  C   UNL     1       4.881   4.238  14.115  0.00  0.00    +0.000 A 
ATOM     17  C   UNL     1       5.752   5.082  14.824  0.00  0.00    +0.000 A 
ATOM     18  C   UNL     1       7.064   5.225  14.354  0.00  0.00    +0.000 A 
ATOM     19  C   UNL     1       7.506   4.523  13.225  0.00  0.00    +0.000 A 
BRANCH  14  21
ATOM     20  C   UNL     1       6.272   1.650  11.360  0.00  0.00    +0.000 C 
ATOM     21  O   UNL     1       6.974   2.882  11.477  0.00  0.00    +0.000 OA
ENDBRANCH  14  21
ENDBRANCH  13  17
ENDBRANCH   1  13
TORSDOF 3
ENDMDL
MODEL 5
REMARK VINA RESULT:      -7.1      4.023      8.437
REMARK  Name = 
REMARK  4 active torsions:
REMARK  status: ('A' for Active; 'I' for Inactive)
REMARK    1  A    between atoms: C_1  and  O_2
REMARK    2  A    between atoms: O_2  and  C_3
REMARK    3  A    between atoms: C_6  and  C_7
REMARK    4  A    between atoms: C_7  and  C_8
REMARK                            x       y       z     vdW  Elec       q    Type
REMARK                         _______ _______ _______ _____ _____    ______ ____
ROOT
ATOM      1  C   UNL     1       4.648   4.836  17.036  0.00  0.00    +0.000 C 
ATOM      2  C   UNL     1       5.662   4.421  18.108  0.00  0.00    +0.000 C 
ATOM      3  C   UNL     1       5.004   3.447  19.073  0.00  0.00    +0.000 C 
ATOM      4  O   UNL     1       3.856   4.025  19.682  0.00  0.00    +0.000 OA
ATOM      5  C   UNL     1       2.828   4.487  18.784  0.00  0.00    +0.000 C 
ATOM      6  C   UNL     1       2.104   3.319  18.081  0.00  0.00    +0.000 C 
ATOM      7  C   UNL     1       1.416   2.397  19.083  0.00  0.00    +0.000 C 
ATOM      8  N   UNL     1       0.452   3.131  19.901  0.00  0.00    +0.000 NA
ATOM      9  C   UNL     1       1.105   4.224  20.625  0.00  0.00    +0.000 C 
ATOM     10  C   UNL     1       1.795   5.207  19.672  0.00  0.00    +0.000 C 
ATOM     11  C   UNL     1       3.439   5.468  17.754  0.00  0.00    +0.000 C 
ATOM     12  H   UNL     1       0.042   2.488  20.578  0.00  0.00    +0.000 HD
ENDROOT
BRANCH   1  13
ATOM     13  C   UNL     1       5.250   5.769  15.969  0.00  0.00    +0.000 C 
BRANCH  13  17
ATOM     14  C   UNL     1       6.791   3.722  12.471  0.00  0.00    +0.000 A 
ATOM     15  C   UNL     1       7.582   4.649  13.148  0.00  0.00    +0.000 A 
ATOM     16  C   UNL     1       7.109   5.285  14.299  0.00  0.00    +0.000 A 
ATOM     17  C   UNL     1       5.815   5.025  14.780  0.00  0.00    +0.000 A 
ATOM     18  C   UNL     1       5.033   4.082  14.102  0.00  0.00    +0.000 A 
ATOM     19  C   UNL     1       5.515   3.434  12.956  0.00  0.00    +0.000 A 
BRANCH  14  21
ATOM     20  C   UNL     1       7.134   1.817  11.109  0.00  0.00    +0.000 C 
ATOM     21  O   UNL     1       7.343   3.206  11.332  0.00  0.00    +0.000 OA
ENDBRANCH  14  21
ENDBRANCH  13  17
ENDBRANCH   1  13
TORSDOF 3
ENDMDL
MODEL 6
REMARK VINA RESULT:      -7.0      3.616      7.488
REMARK  Name = 
REMARK  4 active torsions:
REMARK  status: ('A' for Active; 'I' for Inactive)
REMARK    1  A    between atoms: C_1  and  O_2
REMARK    2  A    between atoms: O_2  and  C_3
REMARK    3  A    between atoms: C_6  and  C_7
REMARK    4  A    between atoms: C_7  and  C_8
REMARK                            x       y       z     vdW  Elec       q    Type
REMARK                         _______ _______ _______ _____ _____    ______ ____
ROOT
ATOM      1  C   UNL     1       1.697   8.466  18.601  0.00  0.00    +0.000 C 
ATOM      2  C   UNL     1       1.623   8.459  20.132  0.00  0.00    +0.000 C 
ATOM      3  C   UNL     1       0.393   9.233  20.581  0.00  0.00    +0.000 C 
ATOM      4  O   UNL     1       0.424  10.571  20.098  0.00  0.00    +0.000 OA
ATOM      5  C   UNL     1       0.520  10.725  18.669  0.00  0.00    +0.000 C 
ATOM      6  C   UNL     1      -0.776  10.291  17.950  0.00  0.00    +0.000 C 
ATOM      7  C   UNL     1      -1.973  11.127  18.392  0.00  0.00    +0.000 C 
ATOM      8  N   UNL     1      -1.744  12.549  18.146  0.00  0.00    +0.000 NA
ATOM      9  C   UNL     1      -0.548  13.018  18.848  0.00  0.00    +0.000 C 
ATOM     10  C   UNL     1       0.702  12.236  18.427  0.00  0.00    +0.000 C 
ATOM     11  C   UNL     1       1.744   9.938  18.141  0.00  0.00    +0.000 C 
ATOM     12  H   UNL     1      -2.551  13.074  18.487  0.00  0.00    +0.000 HD
ENDROOT
BRANCH   1  13
ATOM     13  C   UNL     1       2.875   7.641  18.052  0.00  0.00    +0.000 C 
BRANCH  13  17
ATOM     14  C   UNL     1       2.712   3.409  18.975  0.00  0.00    +0.000 A 
ATOM     15  C   UNL     1       3.706   4.212  19.532  0.00  0.00    +0.000 A 
ATOM     16  C   UNL     1       3.743   5.584  19.273  0.00  0.00    +0.000 A 
ATOM     17  C   UNL     1       2.798   6.178  18.419  0.00  0.00    +0.000 A 
ATOM     18  C   UNL     1       1.795   5.366  17.875  0.00  0.00    +0.000 A 
ATOM     19  C   UNL     1       1.750   3.992  18.150  0.00  0.00    +0.000 A 
BRANCH  14  21
ATOM     20  C   UNL     1       3.725   1.330  18.468  0.00  0.00    +0.000 C 
ATOM     21  O   UNL     1       2.810   2.076  19.261  0.00  0.00    +0.000 OA
ENDBRANCH  14  21
ENDBRANCH  13  17
ENDBRANCH   1  13
TORSDOF 3
ENDMDL
MODEL 7
REMARK VINA RESULT:      -6.9      3.500      7.444
REMARK  Name = 
REMARK  4 active torsions:
REMARK  status: ('A' for Active; 'I' for Inactive)
REMARK    1  A    between atoms: C_1  and  O_2
REMARK    2  A    between atoms: O_2  and  C_3
REMARK    3  A    between atoms: C_6  and  C_7
REMARK    4  A    between atoms: C_7  and  C_8
REMARK                            x       y       z     vdW  Elec       q    Type
REMARK                         _______ _______ _______ _____ _____    ______ ____
ROOT
ATOM      1  C   UNL     1       1.768   8.565  18.476  0.00  0.00    +0.000 C 
ATOM      2  C   UNL     1       1.777   8.398  20.000  0.00  0.00    +0.000 C 
ATOM      3  C   UNL     1       0.549   9.077  20.588  0.00  0.00    +0.000 C 
ATOM      4  O   UNL     1       0.513  10.457  20.246  0.00  0.00    +0.000 OA
ATOM      5  C   UNL     1       0.527  10.761  18.838  0.00  0.00    +0.000 C 
ATOM      6  C   UNL     1      -0.791  10.356  18.144  0.00  0.00    +0.000 C 
ATOM      7  C   UNL     1      -1.988  11.098  18.730  0.00  0.00    +0.000 C 
ATOM      8  N   UNL     1      -1.817  12.545  18.622  0.00  0.00    +0.000 NA
ATOM      9  C   UNL     1      -0.600  12.983  19.308  0.00  0.00    +0.000 C 
ATOM     10  C   UNL     1       0.649  12.294  18.746  0.00  0.00    +0.000 C 
ATOM     11  C   UNL     1       1.744  10.076  18.170  0.00  0.00    +0.000 C 
ATOM     12  H   UNL     1      -2.620  13.002  19.056  0.00  0.00    +0.000 HD
ENDROOT
BRANCH   1  13
ATOM     13  C   UNL     1       2.940   7.844  17.786  0.00  0.00    +0.000 C 
BRANCH  13  17
ATOM     14  C   UNL     1       3.240   3.707  19.048  0.00  0.00    +0.000 A 
ATOM     15  C   UNL     1       2.124   4.146  18.337  0.00  0.00    +0.000 A 
ATOM     16  C   UNL     1       2.036   5.467  17.891  0.00  0.00    +0.000 A 
ATOM     17  C   UNL     1       3.057   6.389  18.178  0.00  0.00    +0.000 A 
ATOM     18  C   UNL     1       4.180   5.936  18.881  0.00  0.00    +0.000 A 
ATOM     19  C   UNL     1       4.273   4.606  19.313  0.00  0.00    +0.000 A 
BRANCH  14  21
ATOM     20  C   UNL     1       3.529   1.420  18.509  0.00  0.00    +0.000 C 
ATOM     21  O   UNL     1       3.187   2.409  19.473  0.00  0.00    +0.000 OA
ENDBRANCH  14  21
ENDBRANCH  13  17
ENDBRANCH   1  13
TORSDOF 3
ENDMDL
MODEL 8
REMARK VINA RESULT:      -6.9      3.878      7.940
REMARK  Name = 
REMARK  4 active torsions:
REMARK  status: ('A' for Active; 'I' for Inactive)
REMARK    1  A    between atoms: C_1  and  O_2
REMARK    2  A    between atoms: O_2  and  C_3
REMARK    3  A    between atoms: C_6  and  C_7
REMARK    4  A    between atoms: C_7  and  C_8
REMARK                            x       y       z     vdW  Elec       q    Type
REMARK                         _______ _______ _______ _____ _____    ______ ____
ROOT
ATOM      1  C   UNL     1       4.965   5.151  18.235  0.00  0.00    +0.000 C 
ATOM      2  C   UNL     1       4.138   6.244  17.550  0.00  0.00    +0.000 C 
ATOM      3  C   UNL     1       2.775   6.338  18.220  0.00  0.00    +0.000 C 
ATOM      4  O   UNL     1       2.087   5.095  18.162  0.00  0.00    +0.000 OA
ATOM      5  C   UNL     1       2.768   3.968  18.748  0.00  0.00    +0.000 C 
ATOM      6  C   UNL     1       2.844   4.073  20.286  0.00  0.00    +0.000 C 
ATOM      7  C   UNL     1       1.457   4.113  20.919  0.00  0.00    +0.000 C 
ATOM      8  N   UNL     1       0.679   2.929  20.561  0.00  0.00    +0.000 NA
ATOM      9  C   UNL     1       0.539   2.813  19.107  0.00  0.00    +0.000 C 
ATOM     10  C   UNL     1       1.902   2.739  18.409  0.00  0.00    +0.000 C 
ATOM     11  C   UNL     1       4.178   3.829  18.125  0.00  0.00    +0.000 C 
ATOM     12  H   UNL     1      -0.251   3.012  20.974  0.00  0.00    +0.000 HD
ENDROOT
BRANCH   1  13
ATOM     13  C   UNL     1       6.392   5.033  17.668  0.00  0.00    +0.000 C 
BRANCH  13  17
ATOM     14  C   UNL     1       6.601   4.116  13.436  0.00  0.00    +0.000 A 
ATOM     15  C   UNL     1       5.741   3.402  14.268  0.00  0.00    +0.000 A 
ATOM     16  C   UNL     1       5.637   3.715  15.625  0.00  0.00    +0.000 A 
ATOM     17  C   UNL     1       6.420   4.738  16.186  0.00  0.00    +0.000 A 
ATOM     18  C   UNL     1       7.270   5.461  15.340  0.00  0.00    +0.000 A 
ATOM     19  C   UNL     1       7.361   5.154  13.975  0.00  0.00    +0.000 A 
BRANCH  14  21
ATOM     20  C   UNL     1       5.664   2.735  11.758  0.00  0.00    +0.000 C 
ATOM     21  O   UNL     1       6.652   3.684  12.140  0.00  0.00    +0.000 OA
ENDBRANCH  14  21
ENDBRANCH  13  17
ENDBRANCH   1  13
TORSDOF 3
ENDMDL
MODEL 9
REMARK VINA RESULT:      -6.9      3.663      7.581
REMARK  Name = 
REMARK  4 active torsions:
REMARK  status: ('A' for Active; 'I' for Inactive)
REMARK    1  A    between atoms: C_1  and  O_2
REMARK    2  A    between atoms: O_2  and  C_3
REMARK    3  A    between atoms: C_6  and  C_7
REMARK    4  A    between atoms: C_7  and  C_8
REMARK                            x       y       z     vdW  Elec       q    Type
REMARK                         _______ _______ _______ _____ _____    ______ ____
ROOT
ATOM      1  C   UNL     1       0.904   8.699  20.662  0.00  0.00    +0.000 C 
ATOM      2  C   UNL     1       0.408   9.349  21.958  0.00  0.00    +0.000 C 
ATOM      3  C   UNL     1      -0.731  10.306  21.637  0.00  0.00    +0.000 C 
ATOM      4  O   UNL     1      -0.316  11.306  20.715  0.00  0.00    +0.000 OA
ATOM      5  C   UNL     1       0.201  10.831  19.457  0.00  0.00    +0.000 C 
ATOM      6  C   UNL     1      -0.900  10.202  18.577  0.00  0.00    +0.000 C 
ATOM      7  C   UNL     1      -1.994  11.210  18.237  0.00  0.00    +0.000 C 
ATOM      8  N   UNL     1      -1.443  12.376  17.550  0.00  0.00    +0.000 NA
ATOM      9  C   UNL     1      -0.424  13.035  18.370  0.00  0.00    +0.000 C 
ATOM     10  C   UNL     1       0.724  12.082  18.725  0.00  0.00    +0.000 C 
ATOM     11  C   UNL     1       1.353   9.829  19.713  0.00  0.00    +0.000 C 
ATOM     12  H   UNL     1      -2.200  13.038  17.374  0.00  0.00    +0.000 HD
ENDROOT
BRANCH   1  13
ATOM     13  C   UNL     1       2.013   7.657  20.900  0.00  0.00    +0.000 C 
BRANCH  13  17
ATOM     14  C   UNL     1       1.710   4.078  18.472  0.00  0.00    +0.000 A 
ATOM     15  C   UNL     1       1.244   4.077  19.786  0.00  0.00    +0.000 A 
ATOM     16  C   UNL     1       1.301   5.236  20.564  0.00  0.00    +0.000 A 
ATOM     17  C   UNL     1       1.857   6.419  20.047  0.00  0.00    +0.000 A 
ATOM     18  C   UNL     1       2.309   6.415  18.721  0.00  0.00    +0.000 A 
ATOM     19  C   UNL     1       2.236   5.255  17.938  0.00  0.00    +0.000 A 
BRANCH  14  21
ATOM     20  C   UNL     1       2.819   2.069  17.892  0.00  0.00    +0.000 C 
ATOM     21  O   UNL     1       1.647   2.873  17.830  0.00  0.00    +0.000 OA
ENDBRANCH  14  21
ENDBRANCH  13  17
ENDBRANCH   1  13
TORSDOF 3
ENDMDL
