MODEL 1
REMARK VINA RESULT:      -9.0      0.000      0.000
REMARK  Name = 
REMARK  8 active torsions:
REMARK  status: ('A' for Active; 'I' for Inactive)
REMARK    1  A    between atoms: C_1  and  C_2
REMARK    2  A    between atoms: C_5  and  N_6
REMARK    3  A    between atoms: C_7  and  C_9
REMARK    4  A    between atoms: C_9  and  O_10
REMARK    5  A    between atoms: O_10  and  C_11
REMARK    6  A    between atoms: C_11  and  C_13
REMARK    7  A    between atoms: C_24  and  S_25
REMARK    8  A    between atoms: S_25  and  N_28
REMARK                            x       y       z     vdW  Elec       q    Type
REMARK                         _______ _______ _______ _____ _____    ______ ____
ROOT
ATOM      1  N   UNL     1       2.294   5.543  20.758  0.00  0.00    +0.000 N 
ATOM      2  C   UNL     1       1.514   4.391  20.737  0.00  0.00    +0.000 C 
ATOM      3  O   UNL     1       0.424   4.249  20.186  0.00  0.00    +0.000 OA
ATOM      4  H   UNL     1       3.039   5.564  21.457  0.00  0.00    +0.000 HD
ENDROOT
BRANCH   1   9
ATOM      5  C   UNL     1       1.964  10.500  17.975  0.00  0.00    +0.000 C 
ATOM      6  C   UNL     1       1.810   9.204  18.717  0.00  0.00    +0.000 A 
ATOM      7  C   UNL     1       2.182   8.044  18.028  0.00  0.00    +0.000 A 
ATOM      8  C   UNL     1       2.294   6.830  18.688  0.00  0.00    +0.000 A 
ATOM      9  C   UNL     1       2.050   6.739  20.056  0.00  0.00    +0.000 A 
ATOM     10  C   UNL     1       1.595   7.879  20.754  0.00  0.00    +0.000 A 
ATOM     11  C   UNL     1       1.457   9.108  20.081  0.00  0.00    +0.000 A 
BRANCH  11  12
ATOM     12  S   UNL     1       0.843  10.574  20.927  0.00  0.00    +0.000 S 
ATOM     13  O   UNL     1       1.030  10.327  22.353  0.00  0.00    +0.000 OA
ATOM     14  O   UNL     1       1.444  11.719  20.276  0.00  0.00    +0.000 OA
BRANCH  12  15
ATOM     15  N   UNL     1      -0.823  10.637  20.629  0.00  0.00    +0.000 NA
ATOM     16  C   UNL     1      -1.285  10.605  19.209  0.00  0.00    +0.000 C 
ATOM     17  C   UNL     1      -1.393  12.028  18.646  0.00  0.00    +0.000 C 
ATOM     18  O   UNL     1      -2.317  12.806  19.423  0.00  0.00    +0.000 OA
ATOM     19  C   UNL     1      -1.891  12.912  20.790  0.00  0.00    +0.000 C 
ATOM     20  C   UNL     1      -1.674  11.544  21.456  0.00  0.00    +0.000 C 
ENDBRANCH  12  15
ENDBRANCH  11  12
ENDBRANCH   1   9
BRANCH   2  21
ATOM     21  C   UNL     1       2.099   3.236  21.545  0.00  0.00    +0.000 C 
BRANCH  21  22
ATOM     22  O   UNL     1       3.230   2.670  20.889  0.00  0.00    +0.000 OA
BRANCH  22  23
ATOM     23  C   UNL     1       3.013   2.438  19.578  0.00  0.00    +0.000 C 
ATOM     24  O   UNL     1       2.302   1.557  19.112  0.00  0.00    +0.000 OA
BRANCH  23  25
ATOM     25  C   UNL     1       3.901   3.267  18.754  0.00  0.00    +0.000 A 
ATOM     26  C   UNL     1       3.631   3.673  17.440  0.00  0.00    +0.000 A 
ATOM     27  C   UNL     1       4.496   4.581  16.813  0.00  0.00    +0.000 A 
ATOM     28  C   UNL     1       5.573   5.122  17.523  0.00  0.00    +0.000 A 
ATOM     29  C   UNL     1       5.773   4.754  18.844  0.00  0.00    +0.000 A 
ATOM     30  C   UNL     1       5.004   3.765  19.430  0.00  0.00    +0.000 A 
ATOM     31  O   UNL     1       6.621   5.393  19.685  0.00  0.00    +0.000 OA
ATOM     32  C   UNL     1       7.764   5.862  18.992  0.00  0.00    +0.000 C 
ATOM     33  C   UNL     1       7.484   6.499  17.635  0.00  0.00    +0.000 C 
ATOM     34  O   UNL     1       6.363   6.025  16.881  0.00  0.00    +0.000 OA
ENDBRANCH  23  25
ENDBRANCH  22  23
ENDBRANCH  21  22
ENDBRANCH   2  21
TORSDOF 7
ENDMDL
MODEL 2
REMARK VINA RESULT:      -8.9      2.669      9.739
REMARK  Name = 
REMARK  8 active torsions:
REMARK  status: ('A' for Active; 'I' for Inactive)
REMARK    1  A    between atoms: C_1  and  C_2
REMARK    2  A    between atoms: C_5  and  N_6
REMARK    3  A    between atoms: C_7  and  C_9
REMARK    4  A    between atoms: C_9  and  O_10
REMARK    5  A    between atoms: O_10  and  C_11
REMARK    6  A    between atoms: C_11  and  C_13
REMARK    7  A    between atoms: C_24  and  S_25
REMARK    8  A    between atoms: S_25  and  N_28
REMARK                            x       y       z     vdW  Elec       q    Type
REMARK                         _______ _______ _______ _____ _____    ______ ____
ROOT
ATOM      1  N   UNL     1       1.809   6.977  21.230  0.00  0.00    +0.000 N 
ATOM      2  C   UNL     1       1.485   8.246  20.761  0.00  0.00    +0.000 C 
ATOM      3  O   UNL     1       1.350   8.585  19.586  0.00  0.00    +0.000 OA
ATOM      4  H   UNL     1       2.120   6.928  22.203  0.00  0.00    +0.000 HD
ENDROOT
BRANCH   1   9
ATOM      5  C   UNL     1       2.503   1.921  18.704  0.00  0.00    +0.000 C 
ATOM      6  C   UNL     1       2.304   3.342  19.147  0.00  0.00    +0.000 A 
ATOM      7  C   UNL     1       1.113   3.622  19.825  0.00  0.00    +0.000 A 
ATOM      8  C   UNL     1       0.929   4.835  20.470  0.00  0.00    +0.000 A 
ATOM      9  C   UNL     1       1.932   5.801  20.466  0.00  0.00    +0.000 A 
ATOM     10  C   UNL     1       3.109   5.572  19.719  0.00  0.00    +0.000 A 
ATOM     11  C   UNL     1       3.288   4.350  19.044  0.00  0.00    +0.000 A 
BRANCH  11  12
ATOM     12  S   UNL     1       4.756   4.037  18.050  0.00  0.00    +0.000 S 
ATOM     13  O   UNL     1       5.853   3.852  18.994  0.00  0.00    +0.000 OA
ATOM     14  O   UNL     1       4.405   3.008  17.093  0.00  0.00    +0.000 OA
BRANCH  12  15
ATOM     15  N   UNL     1       5.058   5.458  17.180  0.00  0.00    +0.000 NA
ATOM     16  C   UNL     1       5.309   5.344  15.712  0.00  0.00    +0.000 C 
ATOM     17  C   UNL     1       6.807   5.162  15.434  0.00  0.00    +0.000 C 
ATOM     18  O   UNL     1       7.551   6.276  15.953  0.00  0.00    +0.000 OA
ATOM     19  C   UNL     1       7.386   6.399  17.373  0.00  0.00    +0.000 C 
ATOM     20  C   UNL     1       5.913   6.517  17.795  0.00  0.00    +0.000 C 
ENDBRANCH  12  15
ENDBRANCH  11  12
ENDBRANCH   1   9
BRANCH   2  21
ATOM     21  C   UNL     1       1.350   9.295  21.862  0.00  0.00    +0.000 C 
BRANCH  21  22
ATOM     22  O   UNL     1       0.376  10.277  21.521  0.00  0.00    +0.000 OA
BRANCH  22  23
ATOM     23  C   UNL     1      -0.404  10.625  22.565  0.00  0.00    +0.000 C 
ATOM     24  O   UNL     1      -0.386  10.113  23.677  0.00  0.00    +0.000 OA
BRANCH  23  25
ATOM     25  C   UNL     1      -1.432  11.583  22.144  0.00  0.00    +0.000 A 
ATOM     26  C   UNL     1      -1.560  12.108  20.850  0.00  0.00    +0.000 A 
ATOM     27  C   UNL     1      -2.672  12.905  20.541  0.00  0.00    +0.000 A 
ATOM     28  C   UNL     1      -3.669  13.111  21.500  0.00  0.00    +0.000 A 
ATOM     29  C   UNL     1      -3.549  12.520  22.748  0.00  0.00    +0.000 A 
ATOM     30  C   UNL     1      -2.399  11.840  23.103  0.00  0.00    +0.000 A 
ATOM     31  O   UNL     1      -4.557  12.451  23.649  0.00  0.00    +0.000 OA
ATOM     32  C   UNL     1      -5.374  13.606  23.586  0.00  0.00    +0.000 C 
ATOM     33  C   UNL     1      -5.703  14.091  22.178  0.00  0.00    +0.000 C 
ATOM     34  O   UNL     1      -4.745  13.864  21.140  0.00  0.00    +0.000 OA
ENDBRANCH  23  25
ENDBRANCH  22  23
ENDBRANCH  21  22
ENDBRANCH   2  21
TORSDOF 7
ENDMDL
MODEL 3
REMARK VINA RESULT:      -8.7      2.480      9.197
REMARK  Name = 
REMARK  8 active torsions:
REMARK  status: ('A' for Active; 'I' for Inactive)
REMARK    1  A    between atoms: C_1  and  C_2
REMARK    2  A    between atoms: C_5  and  N_6
REMARK    3  A    between atoms: C_7  and  C_9
REMARK    4  A    between atoms: C_9  and  O_10
REMARK    5  A    between atoms: O_10  and  C_11
REMARK    6  A    between atoms: C_11  and  C_13
REMARK    7  A    between atoms: C_24  and  S_25
REMARK    8  A    between atoms: S_25  and  N_28
REMARK                            x       y       z     vdW  Elec       q    Type
REMARK                         _______ _______ _______ _____ _____    ______ ____
ROOT
ATOM      1  N   UNL     1       1.539   7.169  20.999  0.00  0.00    +0.000 N 
ATOM      2  C   UNL     1       1.379   8.396  20.363  0.00  0.00    +0.000 C 
ATOM      3  O   UNL     1       1.507   8.625  19.161  0.00  0.00    +0.000 OA
ATOM      4  H   UNL     1       1.638   7.204  22.015  0.00  0.00    +0.000 HD
ENDROOT
BRANCH   1   9
ATOM      5  C   UNL     1       2.676   1.921  19.101  0.00  0.00    +0.000 C 
ATOM      6  C   UNL     1       2.350   3.362  19.369  0.00  0.00    +0.000 A 
ATOM      7  C   UNL     1       1.144   3.616  20.031  0.00  0.00    +0.000 A 
ATOM      8  C   UNL     1       0.854   4.878  20.525  0.00  0.00    +0.000 A 
ATOM      9  C   UNL     1       1.764   5.923  20.382  0.00  0.00    +0.000 A 
ATOM     10  C   UNL     1       2.950   5.710  19.647  0.00  0.00    +0.000 A 
ATOM     11  C   UNL     1       3.236   4.435  19.124  0.00  0.00    +0.000 A 
BRANCH  11  12
ATOM     12  S   UNL     1       4.719   4.134  18.148  0.00  0.00    +0.000 S 
ATOM     13  O   UNL     1       5.784   3.855  19.105  0.00  0.00    +0.000 OA
ATOM     14  O   UNL     1       4.360   3.179  17.121  0.00  0.00    +0.000 OA
BRANCH  12  15
ATOM     15  N   UNL     1       5.089   5.596  17.376  0.00  0.00    +0.000 NA
ATOM     16  C   UNL     1       5.194   5.597  15.886  0.00  0.00    +0.000 C 
ATOM     17  C   UNL     1       6.634   5.299  15.448  0.00  0.00    +0.000 C 
ATOM     18  O   UNL     1       7.533   6.283  15.983  0.00  0.00    +0.000 OA
ATOM     19  C   UNL     1       7.510   6.287  17.418  0.00  0.00    +0.000 C 
ATOM     20  C   UNL     1       6.101   6.505  17.991  0.00  0.00    +0.000 C 
ENDBRANCH  12  15
ENDBRANCH  11  12
ENDBRANCH   1   9
BRANCH   2  21
ATOM     21  C   UNL     1       1.067   9.547  21.315  0.00  0.00    +0.000 C 
BRANCH  21  22
ATOM     22  O   UNL     1       1.117  10.801  20.640  0.00  0.00    +0.000 OA
BRANCH  22  23
ATOM     23  C   UNL     1       0.090  11.614  20.969  0.00  0.00    +0.000 C 
ATOM     24  O   UNL     1      -0.098  12.126  22.064  0.00  0.00    +0.000 OA
BRANCH  23  25
ATOM     25  C   UNL     1      -0.900  11.657  19.886  0.00  0.00    +0.000 A 
ATOM     26  C   UNL     1      -0.717  11.112  18.608  0.00  0.00    +0.000 A 
ATOM     27  C   UNL     1      -1.794  11.094  17.711  0.00  0.00    +0.000 A 
ATOM     28  C   UNL     1      -3.050  11.554  18.120  0.00  0.00    +0.000 A 
ATOM     29  C   UNL     1      -3.216  12.022  19.414  0.00  0.00    +0.000 A 
ATOM     30  C   UNL     1      -2.134  12.162  20.263  0.00  0.00    +0.000 A 
ATOM     31  O   UNL     1      -4.423  12.255  19.982  0.00  0.00    +0.000 OA
ATOM     32  C   UNL     1      -5.350  12.736  19.025  0.00  0.00    +0.000 C 
ATOM     33  C   UNL     1      -5.317  12.025  17.676  0.00  0.00    +0.000 C 
ATOM     34  O   UNL     1      -4.072  11.485  17.224  0.00  0.00    +0.000 OA
ENDBRANCH  23  25
ENDBRANCH  22  23
ENDBRANCH  21  22
ENDBRANCH   2  21
TORSDOF 7
ENDMDL
MODEL 4
REMARK VINA RESULT:      -8.7      2.558      9.143
REMARK  Name = 
REMARK  8 active torsions:
REMARK  status: ('A' for Active; 'I' for Inactive)
REMARK    1  A    between atoms: C_1  and  C_2
REMARK    2  A    between atoms: C_5  and  N_6
REMARK    3  A    between atoms: C_7  and  C_9
REMARK    4  A    between atoms: C_9  and  O_10
REMARK    5  A    between atoms: O_10  and  C_11
REMARK    6  A    between atoms: C_11  and  C_13
REMARK    7  A    between atoms: C_24  and  S_25
REMARK    8  A    between atoms: S_25  and  N_28
REMARK                            x       y       z     vdW  Elec       q    Type
REMARK                         _______ _______ _______ _____ _____    ______ ____
ROOT
ATOM      1  N   UNL     1       1.466   7.934  19.920  0.00  0.00    +0.000 N 
ATOM      2  C   UNL     1       1.397   8.812  20.997  0.00  0.00    +0.000 C 
ATOM      3  O   UNL     1       1.586   8.541  22.182  0.00  0.00    +0.000 OA
ATOM      4  H   UNL     1       1.046   8.263  19.049  0.00  0.00    +0.000 HD
ENDROOT
BRANCH   1   9
ATOM      5  C   UNL     1       3.510   2.662  20.595  0.00  0.00    +0.000 C 
ATOM      6  C   UNL     1       2.894   3.973  20.203  0.00  0.00    +0.000 A 
ATOM      7  C   UNL     1       1.788   4.390  20.951  0.00  0.00    +0.000 A 
ATOM      8  C   UNL     1       1.287   5.677  20.823  0.00  0.00    +0.000 A 
ATOM      9  C   UNL     1       1.881   6.588  19.954  0.00  0.00    +0.000 A 
ATOM     10  C   UNL     1       2.947   6.164  19.131  0.00  0.00    +0.000 A 
ATOM     11  C   UNL     1       3.443   4.851  19.241  0.00  0.00    +0.000 A 
BRANCH  11  12
ATOM     12  S   UNL     1       4.774   4.261  18.182  0.00  0.00    +0.000 S 
ATOM     13  O   UNL     1       5.950   4.143  19.037  0.00  0.00    +0.000 OA
ATOM     14  O   UNL     1       4.257   3.124  17.451  0.00  0.00    +0.000 OA
BRANCH  12  15
ATOM     15  N   UNL     1       5.074   5.493  17.059  0.00  0.00    +0.000 NA
ATOM     16  C   UNL     1       5.390   5.101  15.653  0.00  0.00    +0.000 C 
ATOM     17  C   UNL     1       6.902   4.920  15.471  0.00  0.00    +0.000 C 
ATOM     18  O   UNL     1       7.593   6.139  15.785  0.00  0.00    +0.000 OA
ATOM     19  C   UNL     1       7.366   6.534  17.145  0.00  0.00    +0.000 C 
ATOM     20  C   UNL     1       5.873   6.681  17.482  0.00  0.00    +0.000 C 
ENDBRANCH  12  15
ENDBRANCH  11  12
ENDBRANCH   1   9
BRANCH   2  21
ATOM     21  C   UNL     1       0.985  10.230  20.610  0.00  0.00    +0.000 C 
BRANCH  21  22
ATOM     22  O   UNL     1       1.159  10.453  19.214  0.00  0.00    +0.000 OA
BRANCH  22  23
ATOM     23  C   UNL     1       0.528  11.564  18.779  0.00  0.00    +0.000 C 
ATOM     24  O   UNL     1       0.944  12.711  18.879  0.00  0.00    +0.000 OA
BRANCH  23  25
ATOM     25  C   UNL     1      -0.832  11.244  18.333  0.00  0.00    +0.000 A 
ATOM     26  C   UNL     1      -1.180  10.137  17.547  0.00  0.00    +0.000 A 
ATOM     27  C   UNL     1      -2.535   9.865  17.308  0.00  0.00    +0.000 A 
ATOM     28  C   UNL     1      -3.521  10.655  17.910  0.00  0.00    +0.000 A 
ATOM     29  C   UNL     1      -3.145  11.700  18.740  0.00  0.00    +0.000 A 
ATOM     30  C   UNL     1      -1.816  12.054  18.878  0.00  0.00    +0.000 A 
ATOM     31  O   UNL     1      -4.001  12.360  19.555  0.00  0.00    +0.000 OA
ATOM     32  C   UNL     1      -5.284  12.468  18.963  0.00  0.00    +0.000 C 
ATOM     33  C   UNL     1      -5.785  11.208  18.266  0.00  0.00    +0.000 C 
ATOM     34  O   UNL     1      -4.821  10.330  17.675  0.00  0.00    +0.000 OA
ENDBRANCH  23  25
ENDBRANCH  22  23
ENDBRANCH  21  22
ENDBRANCH   2  21
TORSDOF 7
ENDMDL
MODEL 5
REMARK VINA RESULT:      -8.6      2.744      9.916
REMARK  Name = 
REMARK  8 active torsions:
REMARK  status: ('A' for Active; 'I' for Inactive)
REMARK    1  A    between atoms: C_1  and  C_2
REMARK    2  A    between atoms: C_5  and  N_6
REMARK    3  A    between atoms: C_7  and  C_9
REMARK    4  A    between atoms: C_9  and  O_10
REMARK    5  A    between atoms: O_10  and  C_11
REMARK    6  A    between atoms: C_11  and  C_13
REMARK    7  A    between atoms: C_24  and  S_25
REMARK    8  A    between atoms: S_25  and  N_28
REMARK                            x       y       z     vdW  Elec       q    Type
REMARK                         _______ _______ _______ _____ _____    ______ ____
ROOT
ATOM      1  N   UNL     1       1.739   8.092  19.992  0.00  0.00    +0.000 N 
ATOM      2  C   UNL     1       0.999   8.776  20.952  0.00  0.00    +0.000 C 
ATOM      3  O   UNL     1       0.393   8.285  21.903  0.00  0.00    +0.000 OA
ATOM      4  H   UNL     1       1.966   8.619  19.147  0.00  0.00    +0.000 HD
ENDROOT
BRANCH   1   9
ATOM      5  C   UNL     1       3.332   2.648  20.496  0.00  0.00    +0.000 C 
ATOM      6  C   UNL     1       2.831   4.020  20.145  0.00  0.00    +0.000 A 
ATOM      7  C   UNL     1       1.756   4.501  20.900  0.00  0.00    +0.000 A 
ATOM      8  C   UNL     1       1.364   5.828  20.815  0.00  0.00    +0.000 A 
ATOM      9  C   UNL     1       2.041   6.717  19.982  0.00  0.00    +0.000 A 
ATOM     10  C   UNL     1       3.075   6.234  19.151  0.00  0.00    +0.000 A 
ATOM     11  C   UNL     1       3.459   4.881  19.219  0.00  0.00    +0.000 A 
BRANCH  11  12
ATOM     12  S   UNL     1       4.746   4.220  18.148  0.00  0.00    +0.000 S 
ATOM     13  O   UNL     1       5.937   4.086  18.981  0.00  0.00    +0.000 OA
ATOM     14  O   UNL     1       4.177   3.080  17.460  0.00  0.00    +0.000 OA
BRANCH  12  15
ATOM     15  N   UNL     1       5.061   5.410  16.985  0.00  0.00    +0.000 NA
ATOM     16  C   UNL     1       5.406   4.967  15.601  0.00  0.00    +0.000 C 
ATOM     17  C   UNL     1       6.923   4.789  15.455  0.00  0.00    +0.000 C 
ATOM     18  O   UNL     1       7.601   6.024  15.736  0.00  0.00    +0.000 OA
ATOM     19  C   UNL     1       7.345   6.468  17.076  0.00  0.00    +0.000 C 
ATOM     20  C   UNL     1       5.845   6.619  17.378  0.00  0.00    +0.000 C 
ENDBRANCH  12  15
ENDBRANCH  11  12
ENDBRANCH   1   9
BRANCH   2  21
ATOM     21  C   UNL     1       0.924  10.282  20.715  0.00  0.00    +0.000 C 
BRANCH  21  22
ATOM     22  O   UNL     1       0.306  10.946  21.814  0.00  0.00    +0.000 OA
BRANCH  22  23
ATOM     23  C   UNL     1       0.122  12.264  21.592  0.00  0.00    +0.000 C 
ATOM     24  O   UNL     1       1.004  13.110  21.517  0.00  0.00    +0.000 OA
BRANCH  23  25
ATOM     25  C   UNL     1      -1.305  12.601  21.644  0.00  0.00    +0.000 A 
ATOM     26  C   UNL     1      -2.088  12.955  20.537  0.00  0.00    +0.000 A 
ATOM     27  C   UNL     1      -3.472  13.115  20.700  0.00  0.00    +0.000 A 
ATOM     28  C   UNL     1      -4.062  12.855  21.941  0.00  0.00    +0.000 A 
ATOM     29  C   UNL     1      -3.270  12.439  22.999  0.00  0.00    +0.000 A 
ATOM     30  C   UNL     1      -1.893  12.402  22.883  0.00  0.00    +0.000 A 
ATOM     31  O   UNL     1      -3.761  11.930  24.154  0.00  0.00    +0.000 OA
ATOM     32  C   UNL     1      -4.985  12.553  24.502  0.00  0.00    +0.000 C 
ATOM     33  C   UNL     1      -5.954  12.772  23.345  0.00  0.00    +0.000 C 
ATOM     34  O   UNL     1      -5.413  12.991  22.039  0.00  0.00    +0.000 OA
ENDBRANCH  23  25
ENDBRANCH  22  23
ENDBRANCH  21  22
ENDBRANCH   2  21
TORSDOF 7
ENDMDL
MODEL 6
REMARK VINA RESULT:      -8.6      2.511      8.984
REMARK  Name = 
REMARK  8 active torsions:
REMARK  status: ('A' for Active; 'I' for Inactive)
REMARK    1  A    between atoms: C_1  and  C_2
REMARK    2  A    between atoms: C_5  and  N_6
REMARK    3  A    between atoms: C_7  and  C_9
REMARK    4  A    between atoms: C_9  and  O_10
REMARK    5  A    between atoms: O_10  and  C_11
REMARK    6  A    between atoms: C_11  and  C_13
REMARK    7  A    between atoms: C_24  and  S_25
REMARK    8  A    between atoms: S_25  and  N_28
REMARK                            x       y       z     vdW  Elec       q    Type
REMARK                         _______ _______ _______ _____ _____    ______ ____
ROOT
ATOM      1  N   UNL     1       1.837   7.645  20.879  0.00  0.00    +0.000 N 
ATOM      2  C   UNL     1       0.741   8.294  21.438  0.00  0.00    +0.000 C 
ATOM      3  O   UNL     1      -0.411   7.868  21.508  0.00  0.00    +0.000 OA
ATOM      4  H   UNL     1       2.651   8.232  20.684  0.00  0.00    +0.000 HD
ENDROOT
BRANCH   1   9
ATOM      5  C   UNL     1       2.165   2.125  19.518  0.00  0.00    +0.000 C 
ATOM      6  C   UNL     1       2.070   3.619  19.639  0.00  0.00    +0.000 A 
ATOM      7  C   UNL     1       0.900   4.123  20.217  0.00  0.00    +0.000 A 
ATOM      8  C   UNL     1       0.804   5.458  20.581  0.00  0.00    +0.000 A 
ATOM      9  C   UNL     1       1.876   6.325  20.388  0.00  0.00    +0.000 A 
ATOM     10  C   UNL     1       3.035   5.857  19.733  0.00  0.00    +0.000 A 
ATOM     11  C   UNL     1       3.127   4.508  19.341  0.00  0.00    +0.000 A 
BRANCH  11  12
ATOM     12  S   UNL     1       4.571   3.882  18.468  0.00  0.00    +0.000 S 
ATOM     13  O   UNL     1       5.353   3.144  19.455  0.00  0.00    +0.000 OA
ATOM     14  O   UNL     1       4.090   3.246  17.260  0.00  0.00    +0.000 OA
BRANCH  12  15
ATOM     15  N   UNL     1       5.475   5.237  18.004  0.00  0.00    +0.000 NA
ATOM     16  C   UNL     1       5.027   6.003  16.802  0.00  0.00    +0.000 C 
ATOM     17  C   UNL     1       5.687   5.449  15.533  0.00  0.00    +0.000 C 
ATOM     18  O   UNL     1       7.118   5.533  15.637  0.00  0.00    +0.000 OA
ATOM     19  C   UNL     1       7.607   4.768  16.748  0.00  0.00    +0.000 C 
ATOM     20  C   UNL     1       6.965   5.178  18.083  0.00  0.00    +0.000 C 
ENDBRANCH  12  15
ENDBRANCH  11  12
ENDBRANCH   1   9
BRANCH   2  21
ATOM     21  C   UNL     1       1.051   9.698  21.949  0.00  0.00    +0.000 C 
BRANCH  21  22
ATOM     22  O   UNL     1       0.055  10.629  21.534  0.00  0.00    +0.000 OA
BRANCH  22  23
ATOM     23  C   UNL     1       0.408  11.314  20.426  0.00  0.00    +0.000 C 
ATOM     24  O   UNL     1       1.338  12.104  20.336  0.00  0.00    +0.000 OA
BRANCH  23  25
ATOM     25  C   UNL     1      -0.597  11.139  19.371  0.00  0.00    +0.000 A 
ATOM     26  C   UNL     1      -0.497  10.230  18.309  0.00  0.00    +0.000 A 
ATOM     27  C   UNL     1      -1.591  10.060  17.448  0.00  0.00    +0.000 A 
ATOM     28  C   UNL     1      -2.786  10.743  17.696  0.00  0.00    +0.000 A 
ATOM     29  C   UNL     1      -2.876  11.582  18.796  0.00  0.00    +0.000 A 
ATOM     30  C   UNL     1      -1.767  11.853  19.575  0.00  0.00    +0.000 A 
ATOM     31  O   UNL     1      -4.042  12.089  19.262  0.00  0.00    +0.000 OA
ATOM     32  C   UNL     1      -4.938  12.361  18.199  0.00  0.00    +0.000 C 
ATOM     33  C   UNL     1      -5.005  11.288  17.117  0.00  0.00    +0.000 C 
ATOM     34  O   UNL     1      -3.829  10.518  16.851  0.00  0.00    +0.000 OA
ENDBRANCH  23  25
ENDBRANCH  22  23
ENDBRANCH  21  22
ENDBRANCH   2  21
TORSDOF 7
ENDMDL
MODEL 7
REMARK VINA RESULT:      -8.6      2.650      9.529
REMARK  Name = 
REMARK  8 active torsions:
REMARK  status: ('A' for Active; 'I' for Inactive)
REMARK    1  A    between atoms: C_1  and  C_2
REMARK    2  A    between atoms: C_5  and  N_6
REMARK    3  A    between atoms: C_7  and  C_9
REMARK    4  A    between atoms: C_9  and  O_10
REMARK    5  A    between atoms: O_10  and  C_11
REMARK    6  A    between atoms: C_11  and  C_13
REMARK    7  A    between atoms: C_24  and  S_25
REMARK    8  A    between atoms: S_25  and  N_28
REMARK                            x       y       z     vdW  Elec       q    Type
REMARK                         _______ _______ _______ _____ _____    ______ ____
ROOT
ATOM      1  N   UNL     1       1.782   7.094  21.062  0.00  0.00    +0.000 N 
ATOM      2  C   UNL     1       1.540   8.334  20.478  0.00  0.00    +0.000 C 
ATOM      3  O   UNL     1       1.521   8.591  19.276  0.00  0.00    +0.000 OA
ATOM      4  H   UNL     1       2.003   7.107  22.059  0.00  0.00    +0.000 HD
ENDROOT
BRANCH   1   9
ATOM      5  C   UNL     1       2.628   1.876  18.946  0.00  0.00    +0.000 C 
ATOM      6  C   UNL     1       2.379   3.319  19.274  0.00  0.00    +0.000 A 
ATOM      7  C   UNL     1       1.195   3.606  19.963  0.00  0.00    +0.000 A 
ATOM      8  C   UNL     1       0.976   4.861  20.509  0.00  0.00    +0.000 A 
ATOM      9  C   UNL     1       1.936   5.864  20.394  0.00  0.00    +0.000 A 
ATOM     10  C   UNL     1       3.100   5.622  19.634  0.00  0.00    +0.000 A 
ATOM     11  C   UNL     1       3.315   4.355  19.058  0.00  0.00    +0.000 A 
BRANCH  11  12
ATOM     12  S   UNL     1       4.768   4.020  18.050  0.00  0.00    +0.000 S 
ATOM     13  O   UNL     1       5.874   3.830  18.983  0.00  0.00    +0.000 OA
ATOM     14  O   UNL     1       4.396   2.989  17.105  0.00  0.00    +0.000 OA
BRANCH  12  15
ATOM     15  N   UNL     1       5.075   5.432  17.166  0.00  0.00    +0.000 NA
ATOM     16  C   UNL     1       5.304   5.306  15.696  0.00  0.00    +0.000 C 
ATOM     17  C   UNL     1       6.795   5.105  15.398  0.00  0.00    +0.000 C 
ATOM     18  O   UNL     1       7.559   6.213  15.899  0.00  0.00    +0.000 OA
ATOM     19  C   UNL     1       7.416   6.347  17.321  0.00  0.00    +0.000 C 
ATOM     20  C   UNL     1       5.950   6.485  17.763  0.00  0.00    +0.000 C 
ENDBRANCH  12  15
ENDBRANCH  11  12
ENDBRANCH   1   9
BRANCH   2  21
ATOM     21  C   UNL     1       1.340   9.461  21.488  0.00  0.00    +0.000 C 
BRANCH  21  22
ATOM     22  O   UNL     1      -0.032   9.832  21.580  0.00  0.00    +0.000 OA
BRANCH  22  23
ATOM     23  C   UNL     1      -0.350  10.370  22.777  0.00  0.00    +0.000 C 
ATOM     24  O   UNL     1      -0.076   9.896  23.872  0.00  0.00    +0.000 OA
BRANCH  23  25
ATOM     25  C   UNL     1      -1.249  11.516  22.604  0.00  0.00    +0.000 A 
ATOM     26  C   UNL     1      -2.429  11.729  23.331  0.00  0.00    +0.000 A 
ATOM     27  C   UNL     1      -3.124  12.936  23.170  0.00  0.00    +0.000 A 
ATOM     28  C   UNL     1      -2.600  13.937  22.345  0.00  0.00    +0.000 A 
ATOM     29  C   UNL     1      -1.395  13.724  21.695  0.00  0.00    +0.000 A 
ATOM     30  C   UNL     1      -0.769  12.492  21.746  0.00  0.00    +0.000 A 
ATOM     31  O   UNL     1      -0.687  14.701  21.081  0.00  0.00    +0.000 OA
ATOM     32  C   UNL     1      -1.549  15.659  20.491  0.00  0.00    +0.000 C 
ATOM     33  C   UNL     1      -2.744  16.068  21.345  0.00  0.00    +0.000 C 
ATOM     34  O   UNL     1      -3.294  15.104  22.249  0.00  0.00    +0.000 OA
ENDBRANCH  23  25
ENDBRANCH  22  23
ENDBRANCH  21  22
ENDBRANCH   2  21
TORSDOF 7
ENDMDL
MODEL 8
REMARK VINA RESULT:      -8.5      2.590      9.894
REMARK  Name = 
REMARK  8 active torsions:
REMARK  status: ('A' for Active; 'I' for Inactive)
REMARK    1  A    between atoms: C_1  and  C_2
REMARK    2  A    between atoms: C_5  and  N_6
REMARK    3  A    between atoms: C_7  and  C_9
REMARK    4  A    between atoms: C_9  and  O_10
REMARK    5  A    between atoms: O_10  and  C_11
REMARK    6  A    between atoms: C_11  and  C_13
REMARK    7  A    between atoms: C_24  and  S_25
REMARK    8  A    between atoms: S_25  and  N_28
REMARK                            x       y       z     vdW  Elec       q    Type
REMARK                         _______ _______ _______ _____ _____    ______ ____
ROOT
ATOM      1  N   UNL     1       1.836   8.236  19.866  0.00  0.00    +0.000 N 
ATOM      2  C   UNL     1       0.869   8.928  20.589  0.00  0.00    +0.000 C 
ATOM      3  O   UNL     1       0.002   8.443  21.313  0.00  0.00    +0.000 OA
ATOM      4  H   UNL     1       2.311   8.768  19.135  0.00  0.00    +0.000 HD
ENDROOT
BRANCH   1   9
ATOM      5  C   UNL     1       3.253   2.766  20.575  0.00  0.00    +0.000 C 
ATOM      6  C   UNL     1       2.792   4.138  20.175  0.00  0.00    +0.000 A 
ATOM      7  C   UNL     1       1.750   4.689  20.929  0.00  0.00    +0.000 A 
ATOM      8  C   UNL     1       1.402   6.024  20.793  0.00  0.00    +0.000 A 
ATOM      9  C   UNL     1       2.090   6.851  19.910  0.00  0.00    +0.000 A 
ATOM     10  C   UNL     1       3.090   6.298  19.081  0.00  0.00    +0.000 A 
ATOM     11  C   UNL     1       3.429   4.936  19.200  0.00  0.00    +0.000 A 
BRANCH  11  12
ATOM     12  S   UNL     1       4.671   4.185  18.134  0.00  0.00    +0.000 S 
ATOM     13  O   UNL     1       5.864   4.018  18.957  0.00  0.00    +0.000 OA
ATOM     14  O   UNL     1       4.039   3.055  17.485  0.00  0.00    +0.000 OA
BRANCH  12  15
ATOM     15  N   UNL     1       5.027   5.326  16.934  0.00  0.00    +0.000 NA
ATOM     16  C   UNL     1       5.408   4.827  15.580  0.00  0.00    +0.000 C 
ATOM     17  C   UNL     1       6.927   4.635  15.484  0.00  0.00    +0.000 C 
ATOM     18  O   UNL     1       7.605   5.876  15.735  0.00  0.00    +0.000 OA
ATOM     19  C   UNL     1       7.314   6.374  17.049  0.00  0.00    +0.000 C 
ATOM     20  C   UNL     1       5.807   6.545  17.302  0.00  0.00    +0.000 C 
ENDBRANCH  12  15
ENDBRANCH  11  12
ENDBRANCH   1   9
BRANCH   2  21
ATOM     21  C   UNL     1       0.906  10.439  20.376  0.00  0.00    +0.000 C 
BRANCH  21  22
ATOM     22  O   UNL     1       0.829  11.136  21.616  0.00  0.00    +0.000 OA
BRANCH  22  23
ATOM     23  C   UNL     1       0.236  12.343  21.503  0.00  0.00    +0.000 C 
ATOM     24  O   UNL     1       0.802  13.401  21.262  0.00  0.00    +0.000 OA
BRANCH  23  25
ATOM     25  C   UNL     1      -1.175  12.263  21.900  0.00  0.00    +0.000 A 
ATOM     26  C   UNL     1      -1.631  12.118  23.217  0.00  0.00    +0.000 A 
ATOM     27  C   UNL     1      -3.007  12.198  23.478  0.00  0.00    +0.000 A 
ATOM     28  C   UNL     1      -3.897  12.489  22.439  0.00  0.00    +0.000 A 
ATOM     29  C   UNL     1      -3.407  12.697  21.159  0.00  0.00    +0.000 A 
ATOM     30  C   UNL     1      -2.071  12.495  20.869  0.00  0.00    +0.000 A 
ATOM     31  O   UNL     1      -4.140  13.220  20.148  0.00  0.00    +0.000 OA
ATOM     32  C   UNL     1      -5.493  12.806  20.235  0.00  0.00    +0.000 C 
ATOM     33  C   UNL     1      -6.088  12.829  21.638  0.00  0.00    +0.000 C 
ATOM     34  O   UNL     1      -5.218  12.590  22.749  0.00  0.00    +0.000 OA
ENDBRANCH  23  25
ENDBRANCH  22  23
ENDBRANCH  21  22
ENDBRANCH   2  21
TORSDOF 7
ENDMDL
MODEL 9
REMARK VINA RESULT:      -8.4      2.627      9.780
REMARK  Name = 
REMARK  8 active torsions:
REMARK  status: ('A' for Active; 'I' for Inactive)
REMARK    1  A    between atoms: C_1  and  C_2
REMARK    2  A    between atoms: C_5  and  N_6
REMARK    3  A    between atoms: C_7  and  C_9
REMARK    4  A    between atoms: C_9  and  O_10
REMARK    5  A    between atoms: O_10  and  C_11
REMARK    6  A    between atoms: C_11  and  C_13
REMARK    7  A    between atoms: C_24  and  S_25
REMARK    8  A    between atoms: S_25  and  N_28
REMARK                            x       y       z     vdW  Elec       q    Type
REMARK                         _______ _______ _______ _____ _____    ______ ____
ROOT
ATOM      1  N   UNL     1       2.016   8.427  19.725  0.00  0.00    +0.000 N 
ATOM      2  C   UNL     1       1.562   9.144  18.622  0.00  0.00    +0.000 C 
ATOM      3  O   UNL     1       1.236   8.685  17.529  0.00  0.00    +0.000 OA
ATOM      4  H   UNL     1       2.471   8.977  20.457  0.00  0.00    +0.000 HD
ENDROOT
BRANCH   1   9
ATOM      5  C   UNL     1       2.645   2.869  20.789  0.00  0.00    +0.000 C 
ATOM      6  C   UNL     1       2.397   4.264  20.294  0.00  0.00    +0.000 A 
ATOM      7  C   UNL     1       1.389   4.986  20.942  0.00  0.00    +0.000 A 
ATOM      8  C   UNL     1       1.232   6.345  20.720  0.00  0.00    +0.000 A 
ATOM      9  C   UNL     1       2.081   7.026  19.852  0.00  0.00    +0.000 A 
ATOM     10  C   UNL     1       3.052   6.303  19.125  0.00  0.00    +0.000 A 
ATOM     11  C   UNL     1       3.199   4.918  19.332  0.00  0.00    +0.000 A 
BRANCH  11  12
ATOM     12  S   UNL     1       4.398   3.955  18.396  0.00  0.00    +0.000 S 
ATOM     13  O   UNL     1       5.355   3.442  19.370  0.00  0.00    +0.000 OA
ATOM     14  O   UNL     1       3.644   3.063  17.540  0.00  0.00    +0.000 OA
BRANCH  12  15
ATOM     15  N   UNL     1       5.215   5.049  17.395  0.00  0.00    +0.000 NA
ATOM     16  C   UNL     1       5.159   4.829  15.919  0.00  0.00    +0.000 C 
ATOM     17  C   UNL     1       6.324   3.940  15.462  0.00  0.00    +0.000 C 
ATOM     18  O   UNL     1       7.580   4.549  15.799  0.00  0.00    +0.000 OA
ATOM     19  C   UNL     1       7.708   4.735  17.216  0.00  0.00    +0.000 C 
ATOM     20  C   UNL     1       6.555   5.556  17.816  0.00  0.00    +0.000 C 
ENDBRANCH  12  15
ENDBRANCH  11  12
ENDBRANCH   1   9
BRANCH   2  21
ATOM     21  C   UNL     1       1.542  10.655  18.835  0.00  0.00    +0.000 C 
BRANCH  21  22
ATOM     22  O   UNL     1       0.207  11.146  18.917  0.00  0.00    +0.000 OA
BRANCH  22  23
ATOM     23  C   UNL     1       0.103  12.255  19.678  0.00  0.00    +0.000 C 
ATOM     24  O   UNL     1       0.788  13.265  19.574  0.00  0.00    +0.000 OA
BRANCH  23  25
ATOM     25  C   UNL     1      -0.823  12.029  20.794  0.00  0.00    +0.000 A 
ATOM     26  C   UNL     1      -0.514  11.318  21.962  0.00  0.00    +0.000 A 
ATOM     27  C   UNL     1      -1.441  11.295  23.014  0.00  0.00    +0.000 A 
ATOM     28  C   UNL     1      -2.624  12.034  22.917  0.00  0.00    +0.000 A 
ATOM     29  C   UNL     1      -2.868  12.785  21.778  0.00  0.00    +0.000 A 
ATOM     30  C   UNL     1      -2.024  12.712  20.685  0.00  0.00    +0.000 A 
ATOM     31  O   UNL     1      -3.846  13.716  21.684  0.00  0.00    +0.000 OA
ATOM     32  C   UNL     1      -4.988  13.329  22.428  0.00  0.00    +0.000 C 
ATOM     33  C   UNL     1      -4.696  12.732  23.800  0.00  0.00    +0.000 C 
ATOM     34  O   UNL     1      -3.475  12.008  23.979  0.00  0.00    +0.000 OA
ENDBRANCH  23  25
ENDBRANCH  22  23
ENDBRANCH  21  22
ENDBRANCH   2  21
TORSDOF 7
ENDMDL
