MODEL 1
REMARK VINA RESULT:      -8.5      0.000      0.000
REMARK  Name = 
REMARK  6 active torsions:
REMARK  status: ('A' for Active; 'I' for Inactive)
REMARK    1  A    between atoms: C_5  and  C_6
REMARK    2  A    between atoms: C_9  and  C_10
REMARK    3  A    between atoms: C_14  and  O_15
REMARK    4  A    between atoms: O_15  and  C_16
REMARK    5  A    between atoms: C_16  and  C_17
REMARK    6  A    between atoms: C_17  and  N_18
REMARK                            x       y       z     vdW  Elec       q    Type
REMARK                         _______ _______ _______ _____ _____    ______ ____
ROOT
ATOM      1  C   UNL     1       1.872   7.361  20.092  0.00  0.00    +0.000 A 
ATOM      2  C   UNL     1       1.712   6.145  20.750  0.00  0.00    +0.000 A 
ATOM      3  C   UNL     1       2.283   4.973  20.252  0.00  0.00    +0.000 A 
ATOM      4  C   UNL     1       3.036   4.943  19.054  0.00  0.00    +0.000 A 
ATOM      5  C   UNL     1       3.204   6.182  18.387  0.00  0.00    +0.000 A 
ATOM      6  C   UNL     1       2.649   7.357  18.926  0.00  0.00    +0.000 A 
ATOM      7  F   UNL     1       2.892   8.541  18.346  0.00  0.00    +0.000 F 
ENDROOT
BRANCH   1  12
ATOM      8  N   UNL     1      -0.566  11.982  22.023  0.00  0.00    +0.000 N 
ATOM      9  C   UNL     1       0.097  10.862  21.532  0.00  0.00    +0.000 A 
ATOM     10  C   UNL     1       0.083  10.515  20.184  0.00  0.00    +0.000 A 
ATOM     11  N   UNL     1       0.680   9.404  19.690  0.00  0.00    +0.000 NA
ATOM     12  C   UNL     1       1.277   8.599  20.604  0.00  0.00    +0.000 A 
ATOM     13  C   UNL     1       1.293   8.965  21.951  0.00  0.00    +0.000 A 
ATOM     14  N   UNL     1       0.711  10.090  22.439  0.00  0.00    +0.000 NA
ATOM     15  H   UNL     1      -0.305  12.828  21.530  0.00  0.00    +0.000 HD
ATOM     16  H   UNL     1      -0.356  12.037  23.017  0.00  0.00    +0.000 HD
ENDBRANCH   1  12
BRANCH   4  17
ATOM     17  C   UNL     1       3.676   3.583  18.504  0.00  0.00    +0.000 C 
ATOM     18  C   UNL     1       3.917   2.389  19.475  0.00  0.00    +0.000 C 
ATOM     19  C   UNL     1       3.471   1.439  18.356  0.00  0.00    +0.000 C 
ATOM     20  C   UNL     1       2.756   2.628  17.694  0.00  0.00    +0.000 C 
ENDBRANCH   4  17
BRANCH   5  21
ATOM     21  O   UNL     1       3.931   6.117  17.218  0.00  0.00    +0.000 OA
BRANCH  21  22
ATOM     22  C   UNL     1       5.229   6.720  17.165  0.00  0.00    +0.000 C 
BRANCH  22  23
ATOM     23  C   UNL     1       6.323   5.650  17.049  0.00  0.00    +0.000 C 
BRANCH  23  24
ATOM     24  N   UNL     1       7.148   5.841  15.877  0.00  0.00    +0.000 N 
ATOM     25  C   UNL     1       6.990   5.166  14.695  0.00  0.00    +0.000 A 
ATOM     26  C   UNL     1       6.003   4.210  14.443  0.00  0.00    +0.000 A 
ATOM     27  N   UNL     1       5.850   3.566  13.255  0.00  0.00    +0.000 NA
ATOM     28  C   UNL     1       6.732   3.924  12.302  0.00  0.00    +0.000 A 
ATOM     29  C   UNL     1       7.714   4.872  12.531  0.00  0.00    +0.000 A 
ATOM     30  N   UNL     1       7.863   5.499  13.723  0.00  0.00    +0.000 NA
ATOM     31  H   UNL     1       7.975   6.425  15.901  0.00  0.00    +0.000 HD
ENDBRANCH  23  24
ENDBRANCH  22  23
ENDBRANCH  21  22
ENDBRANCH   5  21
TORSDOF 6
ENDMDL
MODEL 2
REMARK VINA RESULT:      -8.3      1.621      8.657
REMARK  Name = 
REMARK  6 active torsions:
REMARK  status: ('A' for Active; 'I' for Inactive)
REMARK    1  A    between atoms: C_5  and  C_6
REMARK    2  A    between atoms: C_9  and  C_10
REMARK    3  A    between atoms: C_14  and  O_15
REMARK    4  A    between atoms: O_15  and  C_16
REMARK    5  A    between atoms: C_16  and  C_17
REMARK    6  A    between atoms: C_17  and  N_18
REMARK                            x       y       z     vdW  Elec       q    Type
REMARK                         _______ _______ _______ _____ _____    ______ ____
ROOT
ATOM      1  C   UNL     1       4.754   4.508  16.972  0.00  0.00    +0.000 A 
ATOM      2  C   UNL     1       4.216   3.264  17.287  0.00  0.00    +0.000 A 
ATOM      3  C   UNL     1       3.359   3.103  18.377  0.00  0.00    +0.000 A 
ATOM      4  C   UNL     1       3.002   4.175  19.229  0.00  0.00    +0.000 A 
ATOM      5  C   UNL     1       3.546   5.443  18.905  0.00  0.00    +0.000 A 
ATOM      6  C   UNL     1       4.379   5.589  17.781  0.00  0.00    +0.000 A 
ATOM      7  F   UNL     1       4.812   6.805  17.420  0.00  0.00    +0.000 F 
ENDROOT
BRANCH   1  12
ATOM      8  N   UNL     1       8.066   5.348  12.573  0.00  0.00    +0.000 N 
ATOM      9  C   UNL     1       7.270   5.083  13.682  0.00  0.00    +0.000 A 
ATOM     10  C   UNL     1       6.060   4.402  13.589  0.00  0.00    +0.000 A 
ATOM     11  N   UNL     1       5.245   4.174  14.647  0.00  0.00    +0.000 NA
ATOM     12  C   UNL     1       5.657   4.691  15.831  0.00  0.00    +0.000 A 
ATOM     13  C   UNL     1       6.879   5.362  15.912  0.00  0.00    +0.000 A 
ATOM     14  N   UNL     1       7.702   5.570  14.854  0.00  0.00    +0.000 NA
ATOM     15  H   UNL     1       8.274   4.510  12.042  0.00  0.00    +0.000 HD
ATOM     16  H   UNL     1       8.909   5.803  12.916  0.00  0.00    +0.000 HD
ENDBRANCH   1  12
BRANCH   4  17
ATOM     17  C   UNL     1       2.020   3.961  20.474  0.00  0.00    +0.000 C 
ATOM     18  C   UNL     1       0.838   2.951  20.367  0.00  0.00    +0.000 C 
ATOM     19  C   UNL     1       1.115   2.531  21.816  0.00  0.00    +0.000 C 
ATOM     20  C   UNL     1       2.536   3.100  21.661  0.00  0.00    +0.000 C 
ENDBRANCH   4  17
BRANCH   5  21
ATOM     21  O   UNL     1       3.189   6.463  19.760  0.00  0.00    +0.000 OA
BRANCH  21  22
ATOM     22  C   UNL     1       2.193   7.406  19.349  0.00  0.00    +0.000 C 
BRANCH  22  23
ATOM     23  C   UNL     1       1.503   8.035  20.568  0.00  0.00    +0.000 C 
BRANCH  23  24
ATOM     24  N   UNL     1       0.830   9.271  20.234  0.00  0.00    +0.000 N 
ATOM     25  C   UNL     1       0.169  10.064  21.134  0.00  0.00    +0.000 A 
ATOM     26  C   UNL     1       0.060   9.807  22.503  0.00  0.00    +0.000 A 
ATOM     27  N   UNL     1      -0.584  10.619  23.383  0.00  0.00    +0.000 NA
ATOM     28  C   UNL     1      -1.121  11.728  22.838  0.00  0.00    +0.000 A 
ATOM     29  C   UNL     1      -1.020  12.003  21.486  0.00  0.00    +0.000 A 
ATOM     30  N   UNL     1      -0.385  11.180  20.616  0.00  0.00    +0.000 NA
ATOM     31  H   UNL     1       0.721   9.572  19.273  0.00  0.00    +0.000 HD
ENDBRANCH  23  24
ENDBRANCH  22  23
ENDBRANCH  21  22
ENDBRANCH   5  21
TORSDOF 6
ENDMDL
MODEL 3
REMARK VINA RESULT:      -7.9      2.665      3.872
REMARK  Name = 
REMARK  6 active torsions:
REMARK  status: ('A' for Active; 'I' for Inactive)
REMARK    1  A    between atoms: C_5  and  C_6
REMARK    2  A    between atoms: C_9  and  C_10
REMARK    3  A    between atoms: C_14  and  O_15
REMARK    4  A    between atoms: O_15  and  C_16
REMARK    5  A    between atoms: C_16  and  C_17
REMARK    6  A    between atoms: C_17  and  N_18
REMARK                            x       y       z     vdW  Elec       q    Type
REMARK                         _______ _______ _______ _____ _____    ______ ____
ROOT
ATOM      1  C   UNL     1       1.013   9.576  19.559  0.00  0.00    +0.000 A 
ATOM      2  C   UNL     1       0.690   8.899  20.731  0.00  0.00    +0.000 A 
ATOM      3  C   UNL     1       1.065   7.568  20.924  0.00  0.00    +0.000 A 
ATOM      4  C   UNL     1       1.771   6.827  19.945  0.00  0.00    +0.000 A 
ATOM      5  C   UNL     1       2.103   7.519  18.753  0.00  0.00    +0.000 A 
ATOM      6  C   UNL     1       1.746   8.870  18.596  0.00  0.00    +0.000 A 
ATOM      7  F   UNL     1       2.148   9.548  17.511  0.00  0.00    +0.000 F 
ENDROOT
BRANCH   1  12
ATOM      8  N   UNL     1      -0.614  14.857  18.863  0.00  0.00    +0.000 N 
ATOM      9  C   UNL     1      -0.169  13.545  18.986  0.00  0.00    +0.000 A 
ATOM     10  C   UNL     1      -0.806  12.477  18.361  0.00  0.00    +0.000 A 
ATOM     11  N   UNL     1      -0.420  11.187  18.505  0.00  0.00    +0.000 NA
ATOM     12  C   UNL     1       0.624  10.973  19.343  0.00  0.00    +0.000 A 
ATOM     13  C   UNL     1       1.262  12.055  19.954  0.00  0.00    +0.000 A 
ATOM     14  N   UNL     1       0.885  13.348  19.791  0.00  0.00    +0.000 NA
ATOM     15  H   UNL     1      -0.713  15.139  17.895  0.00  0.00    +0.000 HD
ATOM     16  H   UNL     1       0.050  15.443  19.365  0.00  0.00    +0.000 HD
ENDBRANCH   1  12
BRANCH   4  17
ATOM     17  C   UNL     1       2.184   5.301  20.191  0.00  0.00    +0.000 C 
ATOM     18  C   UNL     1       2.328   4.759  21.644  0.00  0.00    +0.000 C 
ATOM     19  C   UNL     1       1.684   3.447  21.178  0.00  0.00    +0.000 C 
ATOM     20  C   UNL     1       1.092   4.215  19.985  0.00  0.00    +0.000 C 
ENDBRANCH   4  17
BRANCH   5  21
ATOM     21  O   UNL     1       2.779   6.767  17.817  0.00  0.00    +0.000 OA
BRANCH  21  22
ATOM     22  C   UNL     1       4.055   7.215  17.346  0.00  0.00    +0.000 C 
BRANCH  22  23
ATOM     23  C   UNL     1       4.946   6.022  16.971  0.00  0.00    +0.000 C 
BRANCH  23  24
ATOM     24  N   UNL     1       5.210   5.163  18.104  0.00  0.00    +0.000 N 
ATOM     25  C   UNL     1       4.629   3.939  18.305  0.00  0.00    +0.000 A 
ATOM     26  C   UNL     1       3.712   3.334  17.441  0.00  0.00    +0.000 A 
ATOM     27  N   UNL     1       3.162   2.109  17.648  0.00  0.00    +0.000 NA
ATOM     28  C   UNL     1       3.575   1.489  18.771  0.00  0.00    +0.000 A 
ATOM     29  C   UNL     1       4.485   2.068  19.636  0.00  0.00    +0.000 A 
ATOM     30  N   UNL     1       5.018   3.295  19.424  0.00  0.00    +0.000 NA
ATOM     31  H   UNL     1       5.775   5.475  18.885  0.00  0.00    +0.000 HD
ENDBRANCH  23  24
ENDBRANCH  22  23
ENDBRANCH  21  22
ENDBRANCH   5  21
TORSDOF 6
ENDMDL
MODEL 4
REMARK VINA RESULT:      -7.9      1.678      8.326
REMARK  Name = 
REMARK  6 active torsions:
REMARK  status: ('A' for Active; 'I' for Inactive)
REMARK    1  A    between atoms: C_5  and  C_6
REMARK    2  A    between atoms: C_9  and  C_10
REMARK    3  A    between atoms: C_14  and  O_15
REMARK    4  A    between atoms: O_15  and  C_16
REMARK    5  A    between atoms: C_16  and  C_17
REMARK    6  A    between atoms: C_17  and  N_18
REMARK                            x       y       z     vdW  Elec       q    Type
REMARK                         _______ _______ _______ _____ _____    ______ ____
ROOT
ATOM      1  C   UNL     1       4.744   4.515  17.040  0.00  0.00    +0.000 A 
ATOM      2  C   UNL     1       4.162   3.281  17.313  0.00  0.00    +0.000 A 
ATOM      3  C   UNL     1       3.296   3.114  18.394  0.00  0.00    +0.000 A 
ATOM      4  C   UNL     1       2.975   4.169  19.282  0.00  0.00    +0.000 A 
ATOM      5  C   UNL     1       3.565   5.427  19.001  0.00  0.00    +0.000 A 
ATOM      6  C   UNL     1       4.406   5.580  17.884  0.00  0.00    +0.000 A 
ATOM      7  F   UNL     1       4.882   6.793  17.565  0.00  0.00    +0.000 F 
ENDROOT
BRANCH   1  12
ATOM      8  N   UNL     1       8.088   5.375  12.669  0.00  0.00    +0.000 N 
ATOM      9  C   UNL     1       7.285   5.105  13.771  0.00  0.00    +0.000 A 
ATOM     10  C   UNL     1       6.087   4.404  13.672  0.00  0.00    +0.000 A 
ATOM     11  N   UNL     1       5.265   4.170  14.722  0.00  0.00    +0.000 NA
ATOM     12  C   UNL     1       5.656   4.704  15.907  0.00  0.00    +0.000 A 
ATOM     13  C   UNL     1       6.866   5.395  15.995  0.00  0.00    +0.000 A 
ATOM     14  N   UNL     1       7.696   5.609  14.944  0.00  0.00    +0.000 NA
ATOM     15  H   UNL     1       8.316   4.537  12.147  0.00  0.00    +0.000 HD
ATOM     16  H   UNL     1       8.920   5.847  13.017  0.00  0.00    +0.000 HD
ENDBRANCH   1  12
BRANCH   4  17
ATOM     17  C   UNL     1       1.983   3.948  20.518  0.00  0.00    +0.000 C 
ATOM     18  C   UNL     1       0.829   2.907  20.412  0.00  0.00    +0.000 C 
ATOM     19  C   UNL     1       1.099   2.516  21.871  0.00  0.00    +0.000 C 
ATOM     20  C   UNL     1       2.505   3.119  21.724  0.00  0.00    +0.000 C 
ENDBRANCH   4  17
BRANCH   5  21
ATOM     21  O   UNL     1       3.241   6.430  19.889  0.00  0.00    +0.000 OA
BRANCH  21  22
ATOM     22  C   UNL     1       2.217   7.369  19.544  0.00  0.00    +0.000 C 
BRANCH  22  23
ATOM     23  C   UNL     1       1.289   7.625  20.740  0.00  0.00    +0.000 C 
BRANCH  23  24
ATOM     24  N   UNL     1       1.443   8.963  21.270  0.00  0.00    +0.000 N 
ATOM     25  C   UNL     1       0.662  10.032  20.919  0.00  0.00    +0.000 A 
ATOM     26  C   UNL     1      -0.403   9.988  20.016  0.00  0.00    +0.000 A 
ATOM     27  N   UNL     1      -1.179  11.058  19.697  0.00  0.00    +0.000 NA
ATOM     28  C   UNL     1      -0.853  12.200  20.333  0.00  0.00    +0.000 A 
ATOM     29  C   UNL     1       0.195  12.264  21.234  0.00  0.00    +0.000 A 
ATOM     30  N   UNL     1       0.968  11.193  21.536  0.00  0.00    +0.000 NA
ATOM     31  H   UNL     1       2.223   9.210  21.866  0.00  0.00    +0.000 HD
ENDBRANCH  23  24
ENDBRANCH  22  23
ENDBRANCH  21  22
ENDBRANCH   5  21
TORSDOF 6
ENDMDL
MODEL 5
REMARK VINA RESULT:      -7.9      1.630      8.264
REMARK  Name = 
REMARK  6 active torsions:
REMARK  status: ('A' for Active; 'I' for Inactive)
REMARK    1  A    between atoms: C_5  and  C_6
REMARK    2  A    between atoms: C_9  and  C_10
REMARK    3  A    between atoms: C_14  and  O_15
REMARK    4  A    between atoms: O_15  and  C_16
REMARK    5  A    between atoms: C_16  and  C_17
REMARK    6  A    between atoms: C_17  and  N_18
REMARK                            x       y       z     vdW  Elec       q    Type
REMARK                         _______ _______ _______ _____ _____    ______ ____
ROOT
ATOM      1  C   UNL     1       4.925   4.461  16.788  0.00  0.00    +0.000 A 
ATOM      2  C   UNL     1       4.675   3.233  17.394  0.00  0.00    +0.000 A 
ATOM      3  C   UNL     1       3.891   3.142  18.545  0.00  0.00    +0.000 A 
ATOM      4  C   UNL     1       3.324   4.278  19.171  0.00  0.00    +0.000 A 
ATOM      5  C   UNL     1       3.575   5.528  18.551  0.00  0.00    +0.000 A 
ATOM      6  C   UNL     1       4.338   5.591  17.372  0.00  0.00    +0.000 A 
ATOM      7  F   UNL     1       4.491   6.761  16.734  0.00  0.00    +0.000 F 
ENDROOT
BRANCH   1  12
ATOM      8  N   UNL     1       7.926   5.015  12.128  0.00  0.00    +0.000 N 
ATOM      9  C   UNL     1       7.209   4.823  13.305  0.00  0.00    +0.000 A 
ATOM     10  C   UNL     1       6.017   4.107  13.347  0.00  0.00    +0.000 A 
ATOM     11  N   UNL     1       5.277   3.948  14.471  0.00  0.00    +0.000 NA
ATOM     12  C   UNL     1       5.748   4.571  15.580  0.00  0.00    +0.000 A 
ATOM     13  C   UNL     1       6.952   5.276  15.526  0.00  0.00    +0.000 A 
ATOM     14  N   UNL     1       7.700   5.416  14.402  0.00  0.00    +0.000 NA
ATOM     15  H   UNL     1       8.125   4.142  11.654  0.00  0.00    +0.000 HD
ATOM     16  H   UNL     1       8.775   5.518  12.377  0.00  0.00    +0.000 HD
ENDBRANCH   1  12
BRANCH   4  17
ATOM     17  C   UNL     1       2.432   4.144  20.493  0.00  0.00    +0.000 C 
ATOM     18  C   UNL     1       0.953   3.665  20.388  0.00  0.00    +0.000 C 
ATOM     19  C   UNL     1       1.163   2.856  21.675  0.00  0.00    +0.000 C 
ATOM     20  C   UNL     1       2.677   2.912  21.408  0.00  0.00    +0.000 C 
ENDBRANCH   4  17
BRANCH   5  21
ATOM     21  O   UNL     1       3.018   6.614  19.191  0.00  0.00    +0.000 OA
BRANCH  21  22
ATOM     22  C   UNL     1       1.900   7.282  18.596  0.00  0.00    +0.000 C 
BRANCH  22  23
ATOM     23  C   UNL     1       2.271   8.719  18.205  0.00  0.00    +0.000 C 
BRANCH  23  24
ATOM     24  N   UNL     1       1.105   9.512  17.881  0.00  0.00    +0.000 N 
ATOM     25  C   UNL     1       0.352  10.198  18.797  0.00  0.00    +0.000 A 
ATOM     26  C   UNL     1       0.605  10.246  20.171  0.00  0.00    +0.000 A 
ATOM     27  N   UNL     1      -0.144  10.950  21.060  0.00  0.00    +0.000 NA
ATOM     28  C   UNL     1      -1.175  11.627  20.518  0.00  0.00    +0.000 A 
ATOM     29  C   UNL     1      -1.440  11.595  19.161  0.00  0.00    +0.000 A 
ATOM     30  N   UNL     1      -0.692  10.882  18.285  0.00  0.00    +0.000 NA
ATOM     31  H   UNL     1       0.711   9.518  16.948  0.00  0.00    +0.000 HD
ENDBRANCH  23  24
ENDBRANCH  22  23
ENDBRANCH  21  22
ENDBRANCH   5  21
TORSDOF 6
ENDMDL
MODEL 6
REMARK VINA RESULT:      -7.7      1.812      8.163
REMARK  Name = 
REMARK  6 active torsions:
REMARK  status: ('A' for Active; 'I' for Inactive)
REMARK    1  A    between atoms: C_5  and  C_6
REMARK    2  A    between atoms: C_9  and  C_10
REMARK    3  A    between atoms: C_14  and  O_15
REMARK    4  A    between atoms: O_15  and  C_16
REMARK    5  A    between atoms: C_16  and  C_17
REMARK    6  A    between atoms: C_17  and  N_18
REMARK                            x       y       z     vdW  Elec       q    Type
REMARK                         _______ _______ _______ _____ _____    ______ ____
ROOT
ATOM      1  C   UNL     1       4.721   4.580  16.977  0.00  0.00    +0.000 A 
ATOM      2  C   UNL     1       4.236   3.329  17.348  0.00  0.00    +0.000 A 
ATOM      3  C   UNL     1       3.361   3.184  18.425  0.00  0.00    +0.000 A 
ATOM      4  C   UNL     1       2.932   4.281  19.210  0.00  0.00    +0.000 A 
ATOM      5  C   UNL     1       3.422   5.556  18.829  0.00  0.00    +0.000 A 
ATOM      6  C   UNL     1       4.275   5.682  17.718  0.00  0.00    +0.000 A 
ATOM      7  F   UNL     1       4.657   6.898  17.301  0.00  0.00    +0.000 F 
ENDROOT
BRANCH   1  12
ATOM      8  N   UNL     1       8.102   5.357  12.619  0.00  0.00    +0.000 N 
ATOM      9  C   UNL     1       7.288   5.107  13.719  0.00  0.00    +0.000 A 
ATOM     10  C   UNL     1       6.074   4.435  13.615  0.00  0.00    +0.000 A 
ATOM     11  N   UNL     1       5.242   4.223  14.662  0.00  0.00    +0.000 NA
ATOM     12  C   UNL     1       5.641   4.746  15.848  0.00  0.00    +0.000 A 
ATOM     13  C   UNL     1       6.867   5.408  15.941  0.00  0.00    +0.000 A 
ATOM     14  N   UNL     1       7.707   5.601  14.893  0.00  0.00    +0.000 NA
ATOM     15  H   UNL     1       8.311   4.514  12.098  0.00  0.00    +0.000 HD
ATOM     16  H   UNL     1       8.944   5.808  12.971  0.00  0.00    +0.000 HD
ENDBRANCH   1  12
BRANCH   4  17
ATOM     17  C   UNL     1       1.931   4.085  20.443  0.00  0.00    +0.000 C 
ATOM     18  C   UNL     1       0.815   3.000  20.374  0.00  0.00    +0.000 C 
ATOM     19  C   UNL     1       1.078   2.689  21.853  0.00  0.00    +0.000 C 
ATOM     20  C   UNL     1       2.465   3.333  21.694  0.00  0.00    +0.000 C 
ENDBRANCH   4  17
BRANCH   5  21
ATOM     21  O   UNL     1       2.995   6.601  19.620  0.00  0.00    +0.000 OA
BRANCH  21  22
ATOM     22  C   UNL     1       2.146   7.606  19.055  0.00  0.00    +0.000 C 
BRANCH  22  23
ATOM     23  C   UNL     1       1.661   8.579  20.138  0.00  0.00    +0.000 C 
BRANCH  23  24
ATOM     24  N   UNL     1       0.378   9.162  19.809  0.00  0.00    +0.000 N 
ATOM     25  C   UNL     1       0.197  10.441  19.356  0.00  0.00    +0.000 A 
ATOM     26  C   UNL     1       1.221  11.365  19.129  0.00  0.00    +0.000 A 
ATOM     27  N   UNL     1       1.022  12.625  18.658  0.00  0.00    +0.000 NA
ATOM     28  C   UNL     1      -0.264  12.936  18.408  0.00  0.00    +0.000 A 
ATOM     29  C   UNL     1      -1.292  12.035  18.622  0.00  0.00    +0.000 A 
ATOM     30  N   UNL     1      -1.082  10.785  19.101  0.00  0.00    +0.000 NA
ATOM     31  H   UNL     1      -0.489   8.675  20.001  0.00  0.00    +0.000 HD
ENDBRANCH  23  24
ENDBRANCH  22  23
ENDBRANCH  21  22
ENDBRANCH   5  21
TORSDOF 6
ENDMDL
MODEL 7
REMARK VINA RESULT:      -7.6      1.525      8.748
REMARK  Name = 
REMARK  6 active torsions:
REMARK  status: ('A' for Active; 'I' for Inactive)
REMARK    1  A    between atoms: C_5  and  C_6
REMARK    2  A    between atoms: C_9  and  C_10
REMARK    3  A    between atoms: C_14  and  O_15
REMARK    4  A    between atoms: O_15  and  C_16
REMARK    5  A    between atoms: C_16  and  C_17
REMARK    6  A    between atoms: C_17  and  N_18
REMARK                            x       y       z     vdW  Elec       q    Type
REMARK                         _______ _______ _______ _____ _____    ______ ____
ROOT
ATOM      1  C   UNL     1       4.787   4.333  16.580  0.00  0.00    +0.000 A 
ATOM      2  C   UNL     1       4.402   3.105  17.108  0.00  0.00    +0.000 A 
ATOM      3  C   UNL     1       3.722   3.024  18.324  0.00  0.00    +0.000 A 
ATOM      4  C   UNL     1       3.403   4.166  19.096  0.00  0.00    +0.000 A 
ATOM      5  C   UNL     1       3.791   5.418  18.555  0.00  0.00    +0.000 A 
ATOM      6  C   UNL     1       4.443   5.478  17.310  0.00  0.00    +0.000 A 
ATOM      7  F   UNL     1       4.721   6.667  16.755  0.00  0.00    +0.000 F 
ENDROOT
BRANCH   1  12
ATOM      8  N   UNL     1       7.630   4.578  11.795  0.00  0.00    +0.000 N 
ATOM      9  C   UNL     1       6.890   4.571  12.973  0.00  0.00    +0.000 A 
ATOM     10  C   UNL     1       7.337   5.179  14.142  0.00  0.00    +0.000 A 
ATOM     11  N   UNL     1       6.657   5.145  15.313  0.00  0.00    +0.000 NA
ATOM     12  C   UNL     1       5.502   4.434  15.303  0.00  0.00    +0.000 A 
ATOM     13  C   UNL     1       5.059   3.839  14.121  0.00  0.00    +0.000 A 
ATOM     14  N   UNL     1       5.734   3.893  12.944  0.00  0.00    +0.000 NA
ATOM     15  H   UNL     1       7.901   5.514  11.519  0.00  0.00    +0.000 HD
ATOM     16  H   UNL     1       7.062   4.118  11.087  0.00  0.00    +0.000 HD
ENDBRANCH   1  12
BRANCH   4  17
ATOM     17  C   UNL     1       2.627   4.043  20.490  0.00  0.00    +0.000 C 
ATOM     18  C   UNL     1       1.085   3.818  20.503  0.00  0.00    +0.000 C 
ATOM     19  C   UNL     1       1.274   2.860  21.688  0.00  0.00    +0.000 C 
ATOM     20  C   UNL     1       2.744   2.701  21.265  0.00  0.00    +0.000 C 
ENDBRANCH   4  17
BRANCH   5  21
ATOM     21  O   UNL     1       3.476   6.509  19.335  0.00  0.00    +0.000 OA
BRANCH  21  22
ATOM     22  C   UNL     1       2.245   7.203  19.105  0.00  0.00    +0.000 C 
BRANCH  22  23
ATOM     23  C   UNL     1       1.762   7.895  20.388  0.00  0.00    +0.000 C 
BRANCH  23  24
ATOM     24  N   UNL     1       0.948   9.057  20.106  0.00  0.00    +0.000 N 
ATOM     25  C   UNL     1       0.293   9.796  21.054  0.00  0.00    +0.000 A 
ATOM     26  C   UNL     1       0.326   9.550  22.429  0.00  0.00    +0.000 A 
ATOM     27  N   UNL     1      -0.316  10.309  23.356  0.00  0.00    +0.000 NA
ATOM     28  C   UNL     1      -1.002  11.353  22.853  0.00  0.00    +0.000 A 
ATOM     29  C   UNL     1      -1.043  11.617  21.495  0.00  0.00    +0.000 A 
ATOM     30  N   UNL     1      -0.408  10.847  20.579  0.00  0.00    +0.000 NA
ATOM     31  H   UNL     1       0.728   9.331  19.156  0.00  0.00    +0.000 HD
ENDBRANCH  23  24
ENDBRANCH  22  23
ENDBRANCH  21  22
ENDBRANCH   5  21
TORSDOF 6
ENDMDL
MODEL 8
REMARK VINA RESULT:      -7.6      1.809      2.590
REMARK  Name = 
REMARK  6 active torsions:
REMARK  status: ('A' for Active; 'I' for Inactive)
REMARK    1  A    between atoms: C_5  and  C_6
REMARK    2  A    between atoms: C_9  and  C_10
REMARK    3  A    between atoms: C_14  and  O_15
REMARK    4  A    between atoms: O_15  and  C_16
REMARK    5  A    between atoms: C_16  and  C_17
REMARK    6  A    between atoms: C_17  and  N_18
REMARK                            x       y       z     vdW  Elec       q    Type
REMARK                         _______ _______ _______ _____ _____    ______ ____
ROOT
ATOM      1  C   UNL     1       1.116   9.374  19.503  0.00  0.00    +0.000 A 
ATOM      2  C   UNL     1       0.867   8.703  20.697  0.00  0.00    +0.000 A 
ATOM      3  C   UNL     1       1.298   7.390  20.891  0.00  0.00    +0.000 A 
ATOM      4  C   UNL     1       1.988   6.660  19.894  0.00  0.00    +0.000 A 
ATOM      5  C   UNL     1       2.246   7.345  18.680  0.00  0.00    +0.000 A 
ATOM      6  C   UNL     1       1.835   8.680  18.520  0.00  0.00    +0.000 A 
ATOM      7  F   UNL     1       2.166   9.356  17.410  0.00  0.00    +0.000 F 
ENDROOT
BRANCH   1  12
ATOM      8  N   UNL     1      -0.679  14.605  18.847  0.00  0.00    +0.000 N 
ATOM      9  C   UNL     1      -0.213  13.299  18.949  0.00  0.00    +0.000 A 
ATOM     10  C   UNL     1      -1.025  12.194  18.715  0.00  0.00    +0.000 A 
ATOM     11  N   UNL     1      -0.607  10.913  18.855  0.00  0.00    +0.000 NA
ATOM     12  C   UNL     1       0.669  10.753  19.285  0.00  0.00    +0.000 A 
ATOM     13  C   UNL     1       1.477  11.871  19.505  0.00  0.00    +0.000 A 
ATOM     14  N   UNL     1       1.060  13.152  19.344  0.00  0.00    +0.000 NA
ATOM     15  H   UNL     1      -1.120  14.786  17.953  0.00  0.00    +0.000 HD
ATOM     16  H   UNL     1       0.117  15.217  19.012  0.00  0.00    +0.000 HD
ENDBRANCH   1  12
BRANCH   4  17
ATOM     17  C   UNL     1       2.466   5.153  20.142  0.00  0.00    +0.000 C 
ATOM     18  C   UNL     1       2.308   4.510  21.552  0.00  0.00    +0.000 C 
ATOM     19  C   UNL     1       1.913   3.195  20.866  0.00  0.00    +0.000 C 
ATOM     20  C   UNL     1       1.556   4.011  19.612  0.00  0.00    +0.000 C 
ENDBRANCH   4  17
BRANCH   5  21
ATOM     21  O   UNL     1       2.910   6.604  17.726  0.00  0.00    +0.000 OA
BRANCH  21  22
ATOM     22  C   UNL     1       4.321   6.781  17.557  0.00  0.00    +0.000 C 
BRANCH  22  23
ATOM     23  C   UNL     1       5.048   5.430  17.607  0.00  0.00    +0.000 C 
BRANCH  23  24
ATOM     24  N   UNL     1       4.860   4.666  16.393  0.00  0.00    +0.000 N 
ATOM     25  C   UNL     1       5.718   4.681  15.324  0.00  0.00    +0.000 A 
ATOM     26  C   UNL     1       6.902   5.419  15.255  0.00  0.00    +0.000 A 
ATOM     27  N   UNL     1       7.750   5.403  14.192  0.00  0.00    +0.000 NA
ATOM     28  C   UNL     1       7.370   4.600  13.180  0.00  0.00    +0.000 A 
ATOM     29  C   UNL     1       6.203   3.858  13.231  0.00  0.00    +0.000 A 
ATOM     30  N   UNL     1       5.361   3.890  14.292  0.00  0.00    +0.000 NA
ATOM     31  H   UNL     1       4.009   4.146  16.221  0.00  0.00    +0.000 HD
ENDBRANCH  23  24
ENDBRANCH  22  23
ENDBRANCH  21  22
ENDBRANCH   5  21
TORSDOF 6
ENDMDL
MODEL 9
REMARK VINA RESULT:      -7.6      3.359      9.880
REMARK  Name = 
REMARK  6 active torsions:
REMARK  status: ('A' for Active; 'I' for Inactive)
REMARK    1  A    between atoms: C_5  and  C_6
REMARK    2  A    between atoms: C_9  and  C_10
REMARK    3  A    between atoms: C_14  and  O_15
REMARK    4  A    between atoms: O_15  and  C_16
REMARK    5  A    between atoms: C_16  and  C_17
REMARK    6  A    between atoms: C_17  and  N_18
REMARK                            x       y       z     vdW  Elec       q    Type
REMARK                         _______ _______ _______ _____ _____    ______ ____
ROOT
ATOM      1  C   UNL     1       2.354   6.708  18.762  0.00  0.00    +0.000 A 
ATOM      2  C   UNL     1       2.351   7.674  17.760  0.00  0.00    +0.000 A 
ATOM      3  C   UNL     1       1.941   8.982  18.019  0.00  0.00    +0.000 A 
ATOM      4  C   UNL     1       1.490   9.401  19.294  0.00  0.00    +0.000 A 
ATOM      5  C   UNL     1       1.497   8.417  20.316  0.00  0.00    +0.000 A 
ATOM      6  C   UNL     1       1.949   7.115  20.041  0.00  0.00    +0.000 A 
ATOM      7  F   UNL     1       2.048   6.216  21.031  0.00  0.00    +0.000 F 
ENDROOT
BRANCH   1  12
ATOM      8  N   UNL     1       4.004   1.447  17.974  0.00  0.00    +0.000 N 
ATOM      9  C   UNL     1       3.599   2.771  18.108  0.00  0.00    +0.000 A 
ATOM     10  C   UNL     1       4.492   3.803  18.380  0.00  0.00    +0.000 A 
ATOM     11  N   UNL     1       4.116   5.091  18.562  0.00  0.00    +0.000 NA
ATOM     12  C   UNL     1       2.782   5.330  18.504  0.00  0.00    +0.000 A 
ATOM     13  C   UNL     1       1.898   4.287  18.218  0.00  0.00    +0.000 A 
ATOM     14  N   UNL     1       2.281   3.001  18.017  0.00  0.00    +0.000 NA
ATOM     15  H   UNL     1       4.746   1.341  17.292  0.00  0.00    +0.000 HD
ATOM     16  H   UNL     1       3.177   0.908  17.726  0.00  0.00    +0.000 HD
ENDBRANCH   1  12
BRANCH   4  17
ATOM     17  C   UNL     1       1.021  10.907  19.562  0.00  0.00    +0.000 C 
ATOM     18  C   UNL     1       1.634  12.071  18.729  0.00  0.00    +0.000 C 
ATOM     19  C   UNL     1       0.246  12.723  18.688  0.00  0.00    +0.000 C 
ATOM     20  C   UNL     1      -0.360  11.344  18.997  0.00  0.00    +0.000 C 
ENDBRANCH   4  17
BRANCH   5  21
ATOM     21  O   UNL     1       1.042   8.853  21.542  0.00  0.00    +0.000 OA
BRANCH  21  22
ATOM     22  C   UNL     1      -0.328   8.637  21.898  0.00  0.00    +0.000 C 
BRANCH  22  23
ATOM     23  C   UNL     1      -0.754   9.591  23.023  0.00  0.00    +0.000 C 
BRANCH  23  24
ATOM     24  N   UNL     1      -0.398  10.964  22.735  0.00  0.00    +0.000 N 
ATOM     25  C   UNL     1      -1.246  12.031  22.865  0.00  0.00    +0.000 A 
ATOM     26  C   UNL     1      -2.570  11.956  23.307  0.00  0.00    +0.000 A 
ATOM     27  N   UNL     1      -3.389  13.032  23.448  0.00  0.00    +0.000 NA
ATOM     28  C   UNL     1      -2.826  14.214  23.133  0.00  0.00    +0.000 A 
ATOM     29  C   UNL     1      -1.517  14.310  22.698  0.00  0.00    +0.000 A 
ATOM     30  N   UNL     1      -0.713  13.230  22.551  0.00  0.00    +0.000 NA
ATOM     31  H   UNL     1       0.491  11.202  22.312  0.00  0.00    +0.000 HD
ENDBRANCH  23  24
ENDBRANCH  22  23
ENDBRANCH  21  22
ENDBRANCH   5  21
TORSDOF 6
ENDMDL
