MODEL 1
REMARK VINA RESULT:      -8.1      0.000      0.000
REMARK  Name = 
REMARK  6 active torsions:
REMARK  status: ('A' for Active; 'I' for Inactive)
REMARK    1  A    between atoms: C_1  and  N_2
REMARK    2  A    between atoms: C_5  and  O_6
REMARK    3  A    between atoms: C_7  and  C_8
REMARK    4  A    between atoms: C_8  and  C_10
REMARK    5  A    between atoms: C_16  and  C_17
REMARK    6  A    between atoms: C_20  and  N_21
REMARK                            x       y       z     vdW  Elec       q    Type
REMARK                         _______ _______ _______ _____ _____    ______ ____
ROOT
ATOM      1  C   UNL     1       7.261   6.448  18.504  0.00  0.00    +0.000 C 
ATOM      2  N   UNL     1       6.340   5.543  17.852  0.00  0.00    +0.000 N 
ATOM      3  C   UNL     1       6.586   4.904  16.663  0.00  0.00    +0.000 C 
ATOM      4  O   UNL     1       7.461   5.114  15.842  0.00  0.00    +0.000 OA
ATOM      5  C   UNL     1       5.625   3.786  16.572  0.00  0.00    +0.000 C 
ATOM      6  C   UNL     1       4.873   3.786  17.689  0.00  0.00    +0.000 C 
ATOM      7  C   UNL     1       5.160   5.026  18.503  0.00  0.00    +0.000 C 
ENDROOT
BRANCH   7   8
ATOM      8  C   UNL     1       4.047   6.080  18.448  0.00  0.00    +0.000 A 
ATOM      9  C   UNL     1       4.010   6.999  17.380  0.00  0.00    +0.000 A 
ATOM     10  C   UNL     1       3.166   8.115  17.433  0.00  0.00    +0.000 A 
ATOM     11  C   UNL     1       2.328   8.302  18.540  0.00  0.00    +0.000 A 
ATOM     12  C   UNL     1       2.283   7.351  19.564  0.00  0.00    +0.000 A 
ATOM     13  C   UNL     1       3.124   6.237  19.504  0.00  0.00    +0.000 A 
BRANCH  11  14
ATOM     14  N   UNL     1       1.526   9.527  18.655  0.00  0.00    +0.000 N 
ATOM     15  O   UNL     1       0.495   9.475  19.341  0.00  0.00    +0.000 OA
ATOM     16  O   UNL     1       1.915  10.530  18.043  0.00  0.00    +0.000 OA
ENDBRANCH  11  14
ENDBRANCH   7   8
BRANCH   5  17
ATOM     17  O   UNL     1       5.647   2.907  15.526  0.00  0.00    +0.000 OA
ATOM     18  H   UNL     1       5.075   2.160  15.797  0.00  0.00    +0.000 HD
ENDBRANCH   5  17
BRANCH   6  19
ATOM     19  C   UNL     1       3.959   2.660  18.052  0.00  0.00    +0.000 C 
ATOM     20  O   UNL     1       4.021   1.580  17.467  0.00  0.00    +0.000 OA
BRANCH  19  21
ATOM     21  C   UNL     1       3.008   2.737  19.202  0.00  0.00    +0.000 A 
ATOM     22  C   UNL     1       3.398   2.626  20.534  0.00  0.00    +0.000 A 
ATOM     23  C   UNL     1       2.479   2.654  21.583  0.00  0.00    +0.000 A 
ATOM     24  C   UNL     1       1.143   2.913  21.317  0.00  0.00    +0.000 A 
ATOM     25  C   UNL     1       0.742   3.140  20.003  0.00  0.00    +0.000 A 
ATOM     26  C   UNL     1       1.663   3.039  18.950  0.00  0.00    +0.000 A 
ENDBRANCH  19  21
ENDBRANCH   6  19
TORSDOF 5
ENDMDL
MODEL 2
REMARK VINA RESULT:      -8.0      0.341      1.015
REMARK  Name = 
REMARK  6 active torsions:
REMARK  status: ('A' for Active; 'I' for Inactive)
REMARK    1  A    between atoms: C_1  and  N_2
REMARK    2  A    between atoms: C_5  and  O_6
REMARK    3  A    between atoms: C_7  and  C_8
REMARK    4  A    between atoms: C_8  and  C_10
REMARK    5  A    between atoms: C_16  and  C_17
REMARK    6  A    between atoms: C_20  and  N_21
REMARK                            x       y       z     vdW  Elec       q    Type
REMARK                         _______ _______ _______ _____ _____    ______ ____
ROOT
ATOM      1  C   UNL     1       7.209   6.644  18.363  0.00  0.00    +0.000 C 
ATOM      2  N   UNL     1       6.303   5.701  17.746  0.00  0.00    +0.000 N 
ATOM      3  C   UNL     1       6.520   5.090  16.536  0.00  0.00    +0.000 C 
ATOM      4  O   UNL     1       7.340   5.355  15.676  0.00  0.00    +0.000 OA
ATOM      5  C   UNL     1       5.615   3.923  16.478  0.00  0.00    +0.000 C 
ATOM      6  C   UNL     1       4.923   3.870  17.633  0.00  0.00    +0.000 C 
ATOM      7  C   UNL     1       5.186   5.115  18.449  0.00  0.00    +0.000 C 
ENDROOT
BRANCH   7   8
ATOM      8  C   UNL     1       4.019   6.108  18.465  0.00  0.00    +0.000 A 
ATOM      9  C   UNL     1       3.909   7.072  17.443  0.00  0.00    +0.000 A 
ATOM     10  C   UNL     1       3.009   8.138  17.565  0.00  0.00    +0.000 A 
ATOM     11  C   UNL     1       2.188   8.229  18.697  0.00  0.00    +0.000 A 
ATOM     12  C   UNL     1       2.217   7.231  19.676  0.00  0.00    +0.000 A 
ATOM     13  C   UNL     1       3.114   6.168  19.547  0.00  0.00    +0.000 A 
BRANCH  11  14
ATOM     14  N   UNL     1       1.327   9.403  18.886  0.00  0.00    +0.000 N 
ATOM     15  O   UNL     1       1.025   9.713  20.047  0.00  0.00    +0.000 OA
ATOM     16  O   UNL     1       0.935  10.000  17.874  0.00  0.00    +0.000 OA
ENDBRANCH  11  14
ENDBRANCH   7   8
BRANCH   5  17
ATOM     17  O   UNL     1       5.628   3.059  15.420  0.00  0.00    +0.000 OA
ATOM     18  H   UNL     1       4.939   3.384  14.805  0.00  0.00    +0.000 HD
ENDBRANCH   5  17
BRANCH   6  19
ATOM     19  C   UNL     1       4.089   2.694  18.024  0.00  0.00    +0.000 C 
ATOM     20  O   UNL     1       4.280   1.587  17.525  0.00  0.00    +0.000 OA
BRANCH  19  21
ATOM     21  C   UNL     1       3.064   2.762  19.111  0.00  0.00    +0.000 A 
ATOM     22  C   UNL     1       1.697   2.882  18.875  0.00  0.00    +0.000 A 
ATOM     23  C   UNL     1       0.770   2.991  19.912  0.00  0.00    +0.000 A 
ATOM     24  C   UNL     1       1.194   2.868  21.226  0.00  0.00    +0.000 A 
ATOM     25  C   UNL     1       2.542   2.635  21.488  0.00  0.00    +0.000 A 
ATOM     26  C   UNL     1       3.474   2.598  20.441  0.00  0.00    +0.000 A 
ENDBRANCH  19  21
ENDBRANCH   6  19
TORSDOF 5
ENDMDL
MODEL 3
REMARK VINA RESULT:      -7.9      2.094      5.028
REMARK  Name = 
REMARK  6 active torsions:
REMARK  status: ('A' for Active; 'I' for Inactive)
REMARK    1  A    between atoms: C_1  and  N_2
REMARK    2  A    between atoms: C_5  and  O_6
REMARK    3  A    between atoms: C_7  and  C_8
REMARK    4  A    between atoms: C_8  and  C_10
REMARK    5  A    between atoms: C_16  and  C_17
REMARK    6  A    between atoms: C_20  and  N_21
REMARK                            x       y       z     vdW  Elec       q    Type
REMARK                         _______ _______ _______ _____ _____    ______ ____
ROOT
ATOM      1  C   UNL     1       2.125   3.427  18.731  0.00  0.00    +0.000 C 
ATOM      2  N   UNL     1       3.388   4.098  18.519  0.00  0.00    +0.000 N 
ATOM      3  C   UNL     1       4.595   3.657  19.001  0.00  0.00    +0.000 C 
ATOM      4  O   UNL     1       4.825   2.801  19.836  0.00  0.00    +0.000 OA
ATOM      5  C   UNL     1       5.644   4.354  18.228  0.00  0.00    +0.000 C 
ATOM      6  C   UNL     1       5.041   5.150  17.324  0.00  0.00    +0.000 C 
ATOM      7  C   UNL     1       3.551   5.178  17.574  0.00  0.00    +0.000 C 
ENDROOT
BRANCH   7   8
ATOM      8  C   UNL     1       3.048   6.483  18.202  0.00  0.00    +0.000 A 
ATOM      9  C   UNL     1       2.648   6.497  19.553  0.00  0.00    +0.000 A 
ATOM     10  C   UNL     1       1.958   7.597  20.078  0.00  0.00    +0.000 A 
ATOM     11  C   UNL     1       1.693   8.705  19.263  0.00  0.00    +0.000 A 
ATOM     12  C   UNL     1       2.165   8.747  17.948  0.00  0.00    +0.000 A 
ATOM     13  C   UNL     1       2.856   7.649  17.430  0.00  0.00    +0.000 A 
BRANCH  11  14
ATOM     14  N   UNL     1       0.871   9.811  19.773  0.00  0.00    +0.000 N 
ATOM     15  O   UNL     1       1.021  10.925  19.251  0.00  0.00    +0.000 OA
ATOM     16  O   UNL     1       0.095   9.569  20.707  0.00  0.00    +0.000 OA
ENDBRANCH  11  14
ENDBRANCH   7   8
BRANCH   5  17
ATOM     17  O   UNL     1       6.970   4.089  18.420  0.00  0.00    +0.000 OA
ATOM     18  H   UNL     1       7.416   4.961  18.423  0.00  0.00    +0.000 HD
ENDBRANCH   5  17
BRANCH   6  19
ATOM     19  C   UNL     1       5.783   5.824  16.215  0.00  0.00    +0.000 C 
ATOM     20  O   UNL     1       6.239   6.957  16.355  0.00  0.00    +0.000 OA
BRANCH  19  21
ATOM     21  C   UNL     1       6.108   5.132  14.931  0.00  0.00    +0.000 A 
ATOM     22  C   UNL     1       5.249   4.238  14.298  0.00  0.00    +0.000 A 
ATOM     23  C   UNL     1       5.603   3.572  13.124  0.00  0.00    +0.000 A 
ATOM     24  C   UNL     1       6.797   3.882  12.493  0.00  0.00    +0.000 A 
ATOM     25  C   UNL     1       7.626   4.856  13.044  0.00  0.00    +0.000 A 
ATOM     26  C   UNL     1       7.294   5.467  14.262  0.00  0.00    +0.000 A 
ENDBRANCH  19  21
ENDBRANCH   6  19
TORSDOF 5
ENDMDL
MODEL 4
REMARK VINA RESULT:      -7.8      1.743      4.718
REMARK  Name = 
REMARK  6 active torsions:
REMARK  status: ('A' for Active; 'I' for Inactive)
REMARK    1  A    between atoms: C_1  and  N_2
REMARK    2  A    between atoms: C_5  and  O_6
REMARK    3  A    between atoms: C_7  and  C_8
REMARK    4  A    between atoms: C_8  and  C_10
REMARK    5  A    between atoms: C_16  and  C_17
REMARK    6  A    between atoms: C_20  and  N_21
REMARK                            x       y       z     vdW  Elec       q    Type
REMARK                         _______ _______ _______ _____ _____    ______ ____
ROOT
ATOM      1  C   UNL     1       0.560   3.456  18.702  0.00  0.00    +0.000 C 
ATOM      2  N   UNL     1       1.982   3.674  18.849  0.00  0.00    +0.000 N 
ATOM      3  C   UNL     1       2.811   2.906  19.627  0.00  0.00    +0.000 C 
ATOM      4  O   UNL     1       2.525   2.083  20.478  0.00  0.00    +0.000 OA
ATOM      5  C   UNL     1       4.193   3.176  19.176  0.00  0.00    +0.000 C 
ATOM      6  C   UNL     1       4.137   4.057  18.158  0.00  0.00    +0.000 C 
ATOM      7  C   UNL     1       2.726   4.575  18.001  0.00  0.00    +0.000 C 
ENDROOT
BRANCH   7   8
ATOM      8  C   UNL     1       2.532   6.014  18.496  0.00  0.00    +0.000 A 
ATOM      9  C   UNL     1       2.227   6.249  19.851  0.00  0.00    +0.000 A 
ATOM     10  C   UNL     1       1.803   7.515  20.274  0.00  0.00    +0.000 A 
ATOM     11  C   UNL     1       1.712   8.563  19.349  0.00  0.00    +0.000 A 
ATOM     12  C   UNL     1       2.101   8.372  18.020  0.00  0.00    +0.000 A 
ATOM     13  C   UNL     1       2.527   7.108  17.604  0.00  0.00    +0.000 A 
BRANCH  11  14
ATOM     14  N   UNL     1       1.159   9.860  19.761  0.00  0.00    +0.000 N 
ATOM     15  O   UNL     1       1.335  10.825  19.004  0.00  0.00    +0.000 OA
ATOM     16  O   UNL     1       0.571   9.916  20.849  0.00  0.00    +0.000 OA
ENDBRANCH  11  14
ENDBRANCH   7   8
BRANCH   5  17
ATOM     17  O   UNL     1       5.262   2.516  19.711  0.00  0.00    +0.000 OA
ATOM     18  H   UNL     1       5.963   2.553  19.029  0.00  0.00    +0.000 HD
ENDBRANCH   5  17
BRANCH   6  19
ATOM     19  C   UNL     1       5.318   4.379  17.300  0.00  0.00    +0.000 C 
ATOM     20  O   UNL     1       5.495   3.810  16.225  0.00  0.00    +0.000 OA
BRANCH  19  21
ATOM     21  C   UNL     1       6.278   5.474  17.637  0.00  0.00    +0.000 A 
ATOM     22  C   UNL     1       6.273   6.722  17.018  0.00  0.00    +0.000 A 
ATOM     23  C   UNL     1       7.213   7.707  17.322  0.00  0.00    +0.000 A 
ATOM     24  C   UNL     1       8.120   7.495  18.348  0.00  0.00    +0.000 A 
ATOM     25  C   UNL     1       8.076   6.299  19.060  0.00  0.00    +0.000 A 
ATOM     26  C   UNL     1       7.173   5.289  18.700  0.00  0.00    +0.000 A 
ENDBRANCH  19  21
ENDBRANCH   6  19
TORSDOF 5
ENDMDL
MODEL 5
REMARK VINA RESULT:      -7.8      0.541      1.111
REMARK  Name = 
REMARK  6 active torsions:
REMARK  status: ('A' for Active; 'I' for Inactive)
REMARK    1  A    between atoms: C_1  and  N_2
REMARK    2  A    between atoms: C_5  and  O_6
REMARK    3  A    between atoms: C_7  and  C_8
REMARK    4  A    between atoms: C_8  and  C_10
REMARK    5  A    between atoms: C_16  and  C_17
REMARK    6  A    between atoms: C_20  and  N_21
REMARK                            x       y       z     vdW  Elec       q    Type
REMARK                         _______ _______ _______ _____ _____    ______ ____
ROOT
ATOM      1  C   UNL     1       7.609   5.948  18.875  0.00  0.00    +0.000 C 
ATOM      2  N   UNL     1       6.590   5.252  18.121  0.00  0.00    +0.000 N 
ATOM      3  C   UNL     1       6.783   4.694  16.882  0.00  0.00    +0.000 C 
ATOM      4  O   UNL     1       7.708   4.845  16.104  0.00  0.00    +0.000 OA
ATOM      5  C   UNL     1       5.673   3.742  16.665  0.00  0.00    +0.000 C 
ATOM      6  C   UNL     1       4.891   3.752  17.761  0.00  0.00    +0.000 C 
ATOM      7  C   UNL     1       5.325   4.858  18.694  0.00  0.00    +0.000 C 
ENDROOT
BRANCH   7   8
ATOM      8  C   UNL     1       4.379   6.065  18.714  0.00  0.00    +0.000 A 
ATOM      9  C   UNL     1       3.440   6.197  19.757  0.00  0.00    +0.000 A 
ATOM     10  C   UNL     1       2.409   7.141  19.669  0.00  0.00    +0.000 A 
ATOM     11  C   UNL     1       2.330   7.982  18.551  0.00  0.00    +0.000 A 
ATOM     12  C   UNL     1       3.307   7.928  17.552  0.00  0.00    +0.000 A 
ATOM     13  C   UNL     1       4.335   6.988  17.647  0.00  0.00    +0.000 A 
BRANCH  11  14
ATOM     14  N   UNL     1       1.188   8.893  18.398  0.00  0.00    +0.000 N 
ATOM     15  O   UNL     1       0.773   9.467  19.415  0.00  0.00    +0.000 OA
ATOM     16  O   UNL     1       0.695   9.015  17.269  0.00  0.00    +0.000 OA
ENDBRANCH  11  14
ENDBRANCH   7   8
BRANCH   5  17
ATOM     17  O   UNL     1       5.605   2.967  15.541  0.00  0.00    +0.000 OA
ATOM     18  H   UNL     1       5.393   2.064  15.856  0.00  0.00    +0.000 HD
ENDBRANCH   5  17
BRANCH   6  19
ATOM     19  C   UNL     1       3.811   2.745  17.995  0.00  0.00    +0.000 C 
ATOM     20  O   UNL     1       3.681   1.772  17.256  0.00  0.00    +0.000 OA
BRANCH  19  21
ATOM     21  C   UNL     1       2.910   2.797  19.187  0.00  0.00    +0.000 A 
ATOM     22  C   UNL     1       3.343   2.571  20.491  0.00  0.00    +0.000 A 
ATOM     23  C   UNL     1       2.468   2.580  21.578  0.00  0.00    +0.000 A 
ATOM     24  C   UNL     1       1.142   2.934  21.386  0.00  0.00    +0.000 A 
ATOM     25  C   UNL     1       0.705   3.274  20.108  0.00  0.00    +0.000 A 
ATOM     26  C   UNL     1       1.577   3.193  19.012  0.00  0.00    +0.000 A 
ENDBRANCH  19  21
ENDBRANCH   6  19
TORSDOF 5
ENDMDL
MODEL 6
REMARK VINA RESULT:      -7.8      1.910      4.701
REMARK  Name = 
REMARK  6 active torsions:
REMARK  status: ('A' for Active; 'I' for Inactive)
REMARK    1  A    between atoms: C_1  and  N_2
REMARK    2  A    between atoms: C_5  and  O_6
REMARK    3  A    between atoms: C_7  and  C_8
REMARK    4  A    between atoms: C_8  and  C_10
REMARK    5  A    between atoms: C_16  and  C_17
REMARK    6  A    between atoms: C_20  and  N_21
REMARK                            x       y       z     vdW  Elec       q    Type
REMARK                         _______ _______ _______ _____ _____    ______ ____
ROOT
ATOM      1  C   UNL     1       0.445   3.328  19.700  0.00  0.00    +0.000 C 
ATOM      2  N   UNL     1       1.867   3.583  19.625  0.00  0.00    +0.000 N 
ATOM      3  C   UNL     1       2.824   2.863  20.295  0.00  0.00    +0.000 C 
ATOM      4  O   UNL     1       2.691   2.065  21.205  0.00  0.00    +0.000 OA
ATOM      5  C   UNL     1       4.114   3.149  19.634  0.00  0.00    +0.000 C 
ATOM      6  C   UNL     1       3.883   3.990  18.608  0.00  0.00    +0.000 C 
ATOM      7  C   UNL     1       2.451   4.470  18.647  0.00  0.00    +0.000 C 
ENDROOT
BRANCH   7   8
ATOM      8  C   UNL     1       2.292   5.921  19.118  0.00  0.00    +0.000 A 
ATOM      9  C   UNL     1       1.860   6.183  20.433  0.00  0.00    +0.000 A 
ATOM     10  C   UNL     1       1.470   7.474  20.809  0.00  0.00    +0.000 A 
ATOM     11  C   UNL     1       1.540   8.520  19.879  0.00  0.00    +0.000 A 
ATOM     12  C   UNL     1       2.055   8.297  18.598  0.00  0.00    +0.000 A 
ATOM     13  C   UNL     1       2.446   7.007  18.230  0.00  0.00    +0.000 A 
BRANCH  11  14
ATOM     14  N   UNL     1       1.025   9.850  20.230  0.00  0.00    +0.000 N 
ATOM     15  O   UNL     1       0.610  10.566  19.308  0.00  0.00    +0.000 OA
ATOM     16  O   UNL     1       1.056  10.184  21.422  0.00  0.00    +0.000 OA
ENDBRANCH  11  14
ENDBRANCH   7   8
BRANCH   5  17
ATOM     17  O   UNL     1       5.270   2.534  20.024  0.00  0.00    +0.000 OA
ATOM     18  H   UNL     1       5.351   2.710  20.984  0.00  0.00    +0.000 HD
ENDBRANCH   5  17
BRANCH   6  19
ATOM     19  C   UNL     1       4.914   4.309  17.573  0.00  0.00    +0.000 C 
ATOM     20  O   UNL     1       4.881   3.784  16.463  0.00  0.00    +0.000 OA
BRANCH  19  21
ATOM     21  C   UNL     1       5.964   5.352  17.782  0.00  0.00    +0.000 A 
ATOM     22  C   UNL     1       7.049   5.194  18.641  0.00  0.00    +0.000 A 
ATOM     23  C   UNL     1       7.986   6.206  18.850  0.00  0.00    +0.000 A 
ATOM     24  C   UNL     1       7.915   7.371  18.102  0.00  0.00    +0.000 A 
ATOM     25  C   UNL     1       6.905   7.511  17.154  0.00  0.00    +0.000 A 
ATOM     26  C   UNL     1       5.927   6.517  17.003  0.00  0.00    +0.000 A 
ENDBRANCH  19  21
ENDBRANCH   6  19
TORSDOF 5
ENDMDL
MODEL 7
REMARK VINA RESULT:      -7.7      2.085      4.944
REMARK  Name = 
REMARK  6 active torsions:
REMARK  status: ('A' for Active; 'I' for Inactive)
REMARK    1  A    between atoms: C_1  and  N_2
REMARK    2  A    between atoms: C_5  and  O_6
REMARK    3  A    between atoms: C_7  and  C_8
REMARK    4  A    between atoms: C_8  and  C_10
REMARK    5  A    between atoms: C_16  and  C_17
REMARK    6  A    between atoms: C_20  and  N_21
REMARK                            x       y       z     vdW  Elec       q    Type
REMARK                         _______ _______ _______ _____ _____    ______ ____
ROOT
ATOM      1  C   UNL     1       1.819   3.554  18.537  0.00  0.00    +0.000 C 
ATOM      2  N   UNL     1       3.125   4.165  18.429  0.00  0.00    +0.000 N 
ATOM      3  C   UNL     1       4.278   3.636  18.953  0.00  0.00    +0.000 C 
ATOM      4  O   UNL     1       4.416   2.732  19.756  0.00  0.00    +0.000 OA
ATOM      5  C   UNL     1       5.405   4.310  18.273  0.00  0.00    +0.000 C 
ATOM      6  C   UNL     1       4.896   5.178  17.378  0.00  0.00    +0.000 C 
ATOM      7  C   UNL     1       3.398   5.276  17.548  0.00  0.00    +0.000 C 
ENDROOT
BRANCH   7   8
ATOM      8  C   UNL     1       2.928   6.576  18.211  0.00  0.00    +0.000 A 
ATOM      9  C   UNL     1       2.563   6.572  19.572  0.00  0.00    +0.000 A 
ATOM     10  C   UNL     1       1.901   7.671  20.133  0.00  0.00    +0.000 A 
ATOM     11  C   UNL     1       1.629   8.797  19.343  0.00  0.00    +0.000 A 
ATOM     12  C   UNL     1       2.068   8.855  18.017  0.00  0.00    +0.000 A 
ATOM     13  C   UNL     1       2.731   7.757  17.464  0.00  0.00    +0.000 A 
BRANCH  11  14
ATOM     14  N   UNL     1       0.836   9.903  19.893  0.00  0.00    +0.000 N 
ATOM     15  O   UNL     1       0.912  10.114  21.112  0.00  0.00    +0.000 OA
ATOM     16  O   UNL     1       0.121  10.545  19.111  0.00  0.00    +0.000 OA
ENDBRANCH  11  14
ENDBRANCH   7   8
BRANCH   5  17
ATOM     17  O   UNL     1       6.702   3.964  18.525  0.00  0.00    +0.000 OA
ATOM     18  H   UNL     1       6.740   2.991  18.423  0.00  0.00    +0.000 HD
ENDBRANCH   5  17
BRANCH   6  19
ATOM     19  C   UNL     1       5.734   5.862  16.345  0.00  0.00    +0.000 C 
ATOM     20  O   UNL     1       6.249   6.955  16.570  0.00  0.00    +0.000 OA
BRANCH  19  21
ATOM     21  C   UNL     1       6.084   5.218  15.042  0.00  0.00    +0.000 A 
ATOM     22  C   UNL     1       7.280   5.445  14.367  0.00  0.00    +0.000 A 
ATOM     23  C   UNL     1       7.556   4.866  13.128  0.00  0.00    +0.000 A 
ATOM     24  C   UNL     1       6.671   3.945  12.590  0.00  0.00    +0.000 A 
ATOM     25  C   UNL     1       5.518   3.614  13.297  0.00  0.00    +0.000 A 
ATOM     26  C   UNL     1       5.217   4.255  14.508  0.00  0.00    +0.000 A 
ENDBRANCH  19  21
ENDBRANCH   6  19
TORSDOF 5
ENDMDL
MODEL 8
REMARK VINA RESULT:      -7.7      0.501      1.521
REMARK  Name = 
REMARK  6 active torsions:
REMARK  status: ('A' for Active; 'I' for Inactive)
REMARK    1  A    between atoms: C_1  and  N_2
REMARK    2  A    between atoms: C_5  and  O_6
REMARK    3  A    between atoms: C_7  and  C_8
REMARK    4  A    between atoms: C_8  and  C_10
REMARK    5  A    between atoms: C_16  and  C_17
REMARK    6  A    between atoms: C_20  and  N_21
REMARK                            x       y       z     vdW  Elec       q    Type
REMARK                         _______ _______ _______ _____ _____    ______ ____
ROOT
ATOM      1  C   UNL     1       7.572   6.183  18.606  0.00  0.00    +0.000 C 
ATOM      2  N   UNL     1       6.532   5.482  17.886  0.00  0.00    +0.000 N 
ATOM      3  C   UNL     1       6.670   4.971  16.620  0.00  0.00    +0.000 C 
ATOM      4  O   UNL     1       7.544   5.175  15.798  0.00  0.00    +0.000 OA
ATOM      5  C   UNL     1       5.577   3.993  16.433  0.00  0.00    +0.000 C 
ATOM      6  C   UNL     1       4.858   3.944  17.571  0.00  0.00    +0.000 C 
ATOM      7  C   UNL     1       5.313   5.032  18.516  0.00  0.00    +0.000 C 
ENDROOT
BRANCH   7   8
ATOM      8  C   UNL     1       4.336   6.208  18.630  0.00  0.00    +0.000 A 
ATOM      9  C   UNL     1       3.443   6.269  19.718  0.00  0.00    +0.000 A 
ATOM     10  C   UNL     1       2.383   7.185  19.717  0.00  0.00    +0.000 A 
ATOM     11  C   UNL     1       2.230   8.069  18.641  0.00  0.00    +0.000 A 
ATOM     12  C   UNL     1       3.161   8.086  17.598  0.00  0.00    +0.000 A 
ATOM     13  C   UNL     1       4.218   7.173  17.606  0.00  0.00    +0.000 A 
BRANCH  11  14
ATOM     14  N   UNL     1       1.057   8.951  18.579  0.00  0.00    +0.000 N 
ATOM     15  O   UNL     1       0.610   9.232  17.458  0.00  0.00    +0.000 OA
ATOM     16  O   UNL     1       0.600   9.379  19.647  0.00  0.00    +0.000 OA
ENDBRANCH  11  14
ENDBRANCH   7   8
BRANCH   5  17
ATOM     17  O   UNL     1       5.467   3.254  15.289  0.00  0.00    +0.000 OA
ATOM     18  H   UNL     1       5.487   2.318  15.577  0.00  0.00    +0.000 HD
ENDBRANCH   5  17
BRANCH   6  19
ATOM     19  C   UNL     1       3.822   2.898  17.830  0.00  0.00    +0.000 C 
ATOM     20  O   UNL     1       3.744   1.895  17.124  0.00  0.00    +0.000 OA
BRANCH  19  21
ATOM     21  C   UNL     1       2.908   2.950  19.012  0.00  0.00    +0.000 A 
ATOM     22  C   UNL     1       1.544   3.214  18.921  0.00  0.00    +0.000 A 
ATOM     23  C   UNL     1       0.727   3.302  20.048  0.00  0.00    +0.000 A 
ATOM     24  C   UNL     1       1.250   3.010  21.298  0.00  0.00    +0.000 A 
ATOM     25  C   UNL     1       2.586   2.633  21.407  0.00  0.00    +0.000 A 
ATOM     26  C   UNL     1       3.415   2.616  20.276  0.00  0.00    +0.000 A 
ENDBRANCH  19  21
ENDBRANCH   6  19
TORSDOF 5
ENDMDL
MODEL 9
REMARK VINA RESULT:      -7.5      1.994      4.790
REMARK  Name = 
REMARK  6 active torsions:
REMARK  status: ('A' for Active; 'I' for Inactive)
REMARK    1  A    between atoms: C_1  and  N_2
REMARK    2  A    between atoms: C_5  and  O_6
REMARK    3  A    between atoms: C_7  and  C_8
REMARK    4  A    between atoms: C_8  and  C_10
REMARK    5  A    between atoms: C_16  and  C_17
REMARK    6  A    between atoms: C_20  and  N_21
REMARK                            x       y       z     vdW  Elec       q    Type
REMARK                         _______ _______ _______ _____ _____    ______ ____
ROOT
ATOM      1  C   UNL     1       0.803   3.408  18.242  0.00  0.00    +0.000 C 
ATOM      2  N   UNL     1       2.147   3.599  18.742  0.00  0.00    +0.000 N 
ATOM      3  C   UNL     1       2.784   2.747  19.609  0.00  0.00    +0.000 C 
ATOM      4  O   UNL     1       2.321   1.840  20.277  0.00  0.00    +0.000 OA
ATOM      5  C   UNL     1       4.227   3.055  19.527  0.00  0.00    +0.000 C 
ATOM      6  C   UNL     1       4.396   4.039  18.623  0.00  0.00    +0.000 C 
ATOM      7  C   UNL     1       3.052   4.581  18.194  0.00  0.00    +0.000 C 
ENDROOT
BRANCH   7   8
ATOM      8  C   UNL     1       2.721   5.960  18.777  0.00  0.00    +0.000 A 
ATOM      9  C   UNL     1       2.273   6.064  20.109  0.00  0.00    +0.000 A 
ATOM     10  C   UNL     1       1.730   7.264  20.585  0.00  0.00    +0.000 A 
ATOM     11  C   UNL     1       1.662   8.379  19.739  0.00  0.00    +0.000 A 
ATOM     12  C   UNL     1       2.187   8.322  18.445  0.00  0.00    +0.000 A 
ATOM     13  C   UNL     1       2.731   7.123  17.977  0.00  0.00    +0.000 A 
BRANCH  11  14
ATOM     14  N   UNL     1       0.991   9.604  20.194  0.00  0.00    +0.000 N 
ATOM     15  O   UNL     1       0.434  10.304  19.337  0.00  0.00    +0.000 OA
ATOM     16  O   UNL     1       1.040   9.874  21.401  0.00  0.00    +0.000 OA
ENDBRANCH  11  14
ENDBRANCH   7   8
BRANCH   5  17
ATOM     17  O   UNL     1       5.153   2.334  20.227  0.00  0.00    +0.000 OA
ATOM     18  H   UNL     1       5.341   1.544  19.679  0.00  0.00    +0.000 HD
ENDBRANCH   5  17
BRANCH   6  19
ATOM     19  C   UNL     1       5.739   4.444  18.107  0.00  0.00    +0.000 C 
ATOM     20  O   UNL     1       6.676   4.653  18.874  0.00  0.00    +0.000 OA
BRANCH  19  21
ATOM     21  C   UNL     1       6.052   4.506  16.646  0.00  0.00    +0.000 A 
ATOM     22  C   UNL     1       7.220   5.062  16.131  0.00  0.00    +0.000 A 
ATOM     23  C   UNL     1       7.461   5.148  14.760  0.00  0.00    +0.000 A 
ATOM     24  C   UNL     1       6.571   4.567  13.870  0.00  0.00    +0.000 A 
ATOM     25  C   UNL     1       5.448   3.906  14.363  0.00  0.00    +0.000 A 
ATOM     26  C   UNL     1       5.181   3.887  15.740  0.00  0.00    +0.000 A 
ENDBRANCH  19  21
ENDBRANCH   6  19
TORSDOF 5
ENDMDL
