MODEL 1
REMARK VINA RESULT:      -7.3      0.000      0.000
REMARK  Name = 
REMARK  6 active torsions:
REMARK  status: ('A' for Active; 'I' for Inactive)
REMARK    1  A    between atoms: C_1  and  O_2
REMARK    2  A    between atoms: O_2  and  C_3
REMARK    3  A    between atoms: C_6  and  C_7
REMARK    4  A    between atoms: C_7  and  N_8
REMARK    5  A    between atoms: N_11  and  C_12
REMARK    6  A    between atoms: C_12  and  C_13
REMARK                            x       y       z     vdW  Elec       q    Type
REMARK                         _______ _______ _______ _____ _____    ______ ____
ROOT
ATOM      1  N   UNL     1       3.745   4.792  19.366  0.00  0.00    +0.000 NA
ATOM      2  C   UNL     1       3.886   3.514  18.660  0.00  0.00    +0.000 C 
ATOM      3  C   UNL     1       3.659   3.659  17.136  0.00  0.00    +0.000 C 
ATOM      4  N   UNL     1       4.571   4.581  16.432  0.00  0.00    +0.000 NA
ATOM      5  C   UNL     1       4.929   5.757  17.251  0.00  0.00    +0.000 C 
ATOM      6  C   UNL     1       4.837   5.650  18.813  0.00  0.00    +0.000 C 
ENDROOT
BRANCH   1   7
ATOM      7  C   UNL     1       2.399   5.391  19.173  0.00  0.00    +0.000 C 
BRANCH   7  11
ATOM      8  C   UNL     1       1.095   9.525  19.513  0.00  0.00    +0.000 A 
ATOM      9  C   UNL     1       1.703   9.105  18.325  0.00  0.00    +0.000 A 
ATOM     10  C   UNL     1       2.235   7.801  18.211  0.00  0.00    +0.000 A 
ATOM     11  C   UNL     1       2.225   6.920  19.302  0.00  0.00    +0.000 A 
ATOM     12  C   UNL     1       1.792   7.438  20.538  0.00  0.00    +0.000 A 
ATOM     13  C   UNL     1       1.189   8.704  20.627  0.00  0.00    +0.000 A 
BRANCH   8  15
ATOM     14  C   UNL     1       0.994  11.875  19.162  0.00  0.00    +0.000 C 
ATOM     15  O   UNL     1       0.397  10.690  19.680  0.00  0.00    +0.000 OA
ENDBRANCH   8  15
ENDBRANCH   7  11
ENDBRANCH   1   7
BRANCH   4  16
ATOM     16  C   UNL     1       5.660   3.776  15.854  0.00  0.00    +0.000 C 
BRANCH  16  17
ATOM     17  C   UNL     1       6.103   4.051  14.452  0.00  0.00    +0.000 A 
ATOM     18  C   UNL     1       5.653   3.303  13.352  0.00  0.00    +0.000 A 
ATOM     19  C   UNL     1       6.239   3.459  12.093  0.00  0.00    +0.000 A 
ATOM     20  C   UNL     1       7.281   4.364  11.906  0.00  0.00    +0.000 A 
ATOM     21  C   UNL     1       7.745   5.118  12.995  0.00  0.00    +0.000 A 
ATOM     22  C   UNL     1       7.159   4.958  14.229  0.00  0.00    +0.000 A 
ATOM     23  F   UNL     1       7.666   5.641  15.278  0.00  0.00    +0.000 F 
ENDBRANCH  16  17
ENDBRANCH   4  16
TORSDOF 5
ENDMDL
MODEL 2
REMARK VINA RESULT:      -7.2      4.045      8.055
REMARK  Name = 
REMARK  6 active torsions:
REMARK  status: ('A' for Active; 'I' for Inactive)
REMARK    1  A    between atoms: C_1  and  O_2
REMARK    2  A    between atoms: O_2  and  C_3
REMARK    3  A    between atoms: C_6  and  C_7
REMARK    4  A    between atoms: C_7  and  N_8
REMARK    5  A    between atoms: N_11  and  C_12
REMARK    6  A    between atoms: C_12  and  C_13
REMARK                            x       y       z     vdW  Elec       q    Type
REMARK                         _______ _______ _______ _____ _____    ______ ____
ROOT
ATOM      1  N   UNL     1       6.579   6.470  16.273  0.00  0.00    +0.000 NA
ATOM      2  C   UNL     1       5.140   6.264  16.467  0.00  0.00    +0.000 C 
ATOM      3  C   UNL     1       4.839   5.018  17.336  0.00  0.00    +0.000 C 
ATOM      4  N   UNL     1       5.406   5.029  18.699  0.00  0.00    +0.000 NA
ATOM      5  C   UNL     1       6.731   5.679  18.755  0.00  0.00    +0.000 C 
ATOM      6  C   UNL     1       7.112   6.722  17.647  0.00  0.00    +0.000 C 
ENDROOT
BRANCH   1   7
ATOM      7  C   UNL     1       7.227   5.305  15.618  0.00  0.00    +0.000 C 
BRANCH   7  11
ATOM      8  C   UNL     1       5.909   3.167  12.069  0.00  0.00    +0.000 A 
ATOM      9  C   UNL     1       7.089   3.916  12.005  0.00  0.00    +0.000 A 
ATOM     10  C   UNL     1       7.497   4.708  13.102  0.00  0.00    +0.000 A 
ATOM     11  C   UNL     1       6.701   4.815  14.251  0.00  0.00    +0.000 A 
ATOM     12  C   UNL     1       5.429   4.214  14.205  0.00  0.00    +0.000 A 
ATOM     13  C   UNL     1       5.062   3.361  13.150  0.00  0.00    +0.000 A 
BRANCH   8  15
ATOM     14  C   UNL     1       6.298   1.057  11.043  0.00  0.00    +0.000 C 
ATOM     15  O   UNL     1       5.508   2.237  11.149  0.00  0.00    +0.000 OA
ENDBRANCH   8  15
ENDBRANCH   7  11
ENDBRANCH   1   7
BRANCH   4  16
ATOM     16  C   UNL     1       4.357   5.506  19.615  0.00  0.00    +0.000 C 
BRANCH  16  17
ATOM     17  C   UNL     1       3.245   4.579  19.993  0.00  0.00    +0.000 A 
ATOM     18  C   UNL     1       3.354   3.182  19.895  0.00  0.00    +0.000 A 
ATOM     19  C   UNL     1       2.233   2.364  20.065  0.00  0.00    +0.000 A 
ATOM     20  C   UNL     1       0.986   2.922  20.337  0.00  0.00    +0.000 A 
ATOM     21  C   UNL     1       0.859   4.315  20.435  0.00  0.00    +0.000 A 
ATOM     22  C   UNL     1       1.969   5.111  20.269  0.00  0.00    +0.000 A 
ATOM     23  F   UNL     1       1.812   6.452  20.296  0.00  0.00    +0.000 F 
ENDBRANCH  16  17
ENDBRANCH   4  16
TORSDOF 5
ENDMDL
MODEL 3
REMARK VINA RESULT:      -7.1      3.928      8.082
REMARK  Name = 
REMARK  6 active torsions:
REMARK  status: ('A' for Active; 'I' for Inactive)
REMARK    1  A    between atoms: C_1  and  O_2
REMARK    2  A    between atoms: O_2  and  C_3
REMARK    3  A    between atoms: C_6  and  C_7
REMARK    4  A    between atoms: C_7  and  N_8
REMARK    5  A    between atoms: N_11  and  C_12
REMARK    6  A    between atoms: C_12  and  C_13
REMARK                            x       y       z     vdW  Elec       q    Type
REMARK                         _______ _______ _______ _____ _____    ______ ____
ROOT
ATOM      1  N   UNL     1       6.778   6.398  16.360  0.00  0.00    +0.000 NA
ATOM      2  C   UNL     1       5.323   6.280  16.512  0.00  0.00    +0.000 C 
ATOM      3  C   UNL     1       4.919   5.024  17.322  0.00  0.00    +0.000 C 
ATOM      4  N   UNL     1       5.450   4.944  18.696  0.00  0.00    +0.000 NA
ATOM      5  C   UNL     1       6.813   5.502  18.811  0.00  0.00    +0.000 C 
ATOM      6  C   UNL     1       7.289   6.561  17.756  0.00  0.00    +0.000 C 
ENDROOT
BRANCH   1   7
ATOM      7  C   UNL     1       7.366   5.220  15.673  0.00  0.00    +0.000 C 
BRANCH   7  11
ATOM      8  C   UNL     1       6.097   3.276  11.997  0.00  0.00    +0.000 A 
ATOM      9  C   UNL     1       7.180   4.160  11.953  0.00  0.00    +0.000 A 
ATOM     10  C   UNL     1       7.559   4.891  13.102  0.00  0.00    +0.000 A 
ATOM     11  C   UNL     1       6.821   4.799  14.291  0.00  0.00    +0.000 A 
ATOM     12  C   UNL     1       5.623   4.061  14.244  0.00  0.00    +0.000 A 
ATOM     13  C   UNL     1       5.296   3.271  13.129  0.00  0.00    +0.000 A 
BRANCH   8  15
ATOM     14  C   UNL     1       6.233   1.060  11.143  0.00  0.00    +0.000 C 
ATOM     15  O   UNL     1       5.750   2.394  11.010  0.00  0.00    +0.000 OA
ENDBRANCH   8  15
ENDBRANCH   7  11
ENDBRANCH   1   7
BRANCH   4  16
ATOM     16  C   UNL     1       4.410   5.452  19.606  0.00  0.00    +0.000 C 
BRANCH  16  17
ATOM     17  C   UNL     1       3.205   4.609  19.877  0.00  0.00    +0.000 A 
ATOM     18  C   UNL     1       1.911   5.144  19.989  0.00  0.00    +0.000 A 
ATOM     19  C   UNL     1       0.848   4.357  20.439  0.00  0.00    +0.000 A 
ATOM     20  C   UNL     1       1.053   3.024  20.784  0.00  0.00    +0.000 A 
ATOM     21  C   UNL     1       2.339   2.473  20.681  0.00  0.00    +0.000 A 
ATOM     22  C   UNL     1       3.378   3.256  20.234  0.00  0.00    +0.000 A 
ATOM     23  F   UNL     1       4.620   2.727  20.210  0.00  0.00    +0.000 F 
ENDBRANCH  16  17
ENDBRANCH   4  16
TORSDOF 5
ENDMDL
MODEL 4
REMARK VINA RESULT:      -6.8      4.665      6.905
REMARK  Name = 
REMARK  6 active torsions:
REMARK  status: ('A' for Active; 'I' for Inactive)
REMARK    1  A    between atoms: C_1  and  O_2
REMARK    2  A    between atoms: O_2  and  C_3
REMARK    3  A    between atoms: C_6  and  C_7
REMARK    4  A    between atoms: C_7  and  N_8
REMARK    5  A    between atoms: N_11  and  C_12
REMARK    6  A    between atoms: C_12  and  C_13
REMARK                            x       y       z     vdW  Elec       q    Type
REMARK                         _______ _______ _______ _____ _____    ______ ____
ROOT
ATOM      1  N   UNL     1       7.417   6.524  17.708  0.00  0.00    +0.000 NA
ATOM      2  C   UNL     1       6.731   5.872  18.830  0.00  0.00    +0.000 C 
ATOM      3  C   UNL     1       5.192   5.889  18.665  0.00  0.00    +0.000 C 
ATOM      4  N   UNL     1       4.665   5.220  17.461  0.00  0.00    +0.000 NA
ATOM      5  C   UNL     1       5.545   5.389  16.287  0.00  0.00    +0.000 C 
ATOM      6  C   UNL     1       7.067   5.689  16.518  0.00  0.00    +0.000 C 
ENDROOT
BRANCH   1   7
ATOM      7  C   UNL     1       7.003   7.942  17.548  0.00  0.00    +0.000 C 
BRANCH   7  11
ATOM      8  C   UNL     1       9.331  11.276  19.085  0.00  0.00    +0.000 A 
ATOM      9  C   UNL     1       8.649  11.431  17.874  0.00  0.00    +0.000 A 
ATOM     10  C   UNL     1       7.967  10.341  17.288  0.00  0.00    +0.000 A 
ATOM     11  C   UNL     1       8.011   9.066  17.869  0.00  0.00    +0.000 A 
ATOM     12  C   UNL     1       8.868   8.896  18.973  0.00  0.00    +0.000 A 
ATOM     13  C   UNL     1       9.477   9.996  19.600  0.00  0.00    +0.000 A 
BRANCH   8  15
ATOM     14  C   UNL     1      11.122  12.024  20.460  0.00  0.00    +0.000 C 
ATOM     15  O   UNL     1       9.873  12.290  19.829  0.00  0.00    +0.000 OA
ENDBRANCH   8  15
ENDBRANCH   7  11
ENDBRANCH   1   7
BRANCH   4  16
ATOM     16  C   UNL     1       4.272   3.853  17.846  0.00  0.00    +0.000 C 
BRANCH  16  17
ATOM     17  C   UNL     1       3.310   3.664  18.975  0.00  0.00    +0.000 A 
ATOM     18  C   UNL     1       3.656   3.005  20.166  0.00  0.00    +0.000 A 
ATOM     19  C   UNL     1       2.680   2.673  21.110  0.00  0.00    +0.000 A 
ATOM     20  C   UNL     1       1.344   2.992  20.885  0.00  0.00    +0.000 A 
ATOM     21  C   UNL     1       0.979   3.647  19.700  0.00  0.00    +0.000 A 
ATOM     22  C   UNL     1       1.949   3.972  18.779  0.00  0.00    +0.000 A 
ATOM     23  F   UNL     1       1.568   4.538  17.613  0.00  0.00    +0.000 F 
ENDBRANCH  16  17
ENDBRANCH   4  16
TORSDOF 5
ENDMDL
MODEL 5
REMARK VINA RESULT:      -6.6      4.886      6.702
REMARK  Name = 
REMARK  6 active torsions:
REMARK  status: ('A' for Active; 'I' for Inactive)
REMARK    1  A    between atoms: C_1  and  O_2
REMARK    2  A    between atoms: O_2  and  C_3
REMARK    3  A    between atoms: C_6  and  C_7
REMARK    4  A    between atoms: C_7  and  N_8
REMARK    5  A    between atoms: N_11  and  C_12
REMARK    6  A    between atoms: C_12  and  C_13
REMARK                            x       y       z     vdW  Elec       q    Type
REMARK                         _______ _______ _______ _____ _____    ______ ____
ROOT
ATOM      1  N   UNL     1       7.756   7.027  17.271  0.00  0.00    +0.000 NA
ATOM      2  C   UNL     1       7.601   6.084  18.385  0.00  0.00    +0.000 C 
ATOM      3  C   UNL     1       6.124   5.939  18.827  0.00  0.00    +0.000 C 
ATOM      4  N   UNL     1       5.185   5.460  17.795  0.00  0.00    +0.000 NA
ATOM      5  C   UNL     1       5.516   5.969  16.448  0.00  0.00    +0.000 C 
ATOM      6  C   UNL     1       6.991   6.407  16.145  0.00  0.00    +0.000 C 
ENDROOT
BRANCH   1   7
ATOM      7  C   UNL     1       7.259   8.384  17.614  0.00  0.00    +0.000 C 
BRANCH   7  11
ATOM      8  C   UNL     1       9.558  11.673  19.290  0.00  0.00    +0.000 A 
ATOM      9  C   UNL     1       8.965  11.836  18.033  0.00  0.00    +0.000 A 
ATOM     10  C   UNL     1       8.297  10.758  17.408  0.00  0.00    +0.000 A 
ATOM     11  C   UNL     1       8.270   9.486  17.997  0.00  0.00    +0.000 A 
ATOM     12  C   UNL     1       9.046   9.304  19.158  0.00  0.00    +0.000 A 
ATOM     13  C   UNL     1       9.637  10.393  19.820  0.00  0.00    +0.000 A 
BRANCH   8  15
ATOM     14  C   UNL     1       9.762  12.641  21.453  0.00  0.00    +0.000 C 
ATOM     15  O   UNL     1      10.073  12.678  20.063  0.00  0.00    +0.000 OA
ENDBRANCH   8  15
ENDBRANCH   7  11
ENDBRANCH   1   7
BRANCH   4  16
ATOM     16  C   UNL     1       5.031   4.006  17.972  0.00  0.00    +0.000 C 
BRANCH  16  17
ATOM     17  C   UNL     1       3.670   3.447  18.241  0.00  0.00    +0.000 A 
ATOM     18  C   UNL     1       2.510   3.936  17.619  0.00  0.00    +0.000 A 
ATOM     19  C   UNL     1       1.244   3.525  18.044  0.00  0.00    +0.000 A 
ATOM     20  C   UNL     1       1.110   2.620  19.093  0.00  0.00    +0.000 A 
ATOM     21  C   UNL     1       2.258   2.123  19.728  0.00  0.00    +0.000 A 
ATOM     22  C   UNL     1       3.500   2.531  19.300  0.00  0.00    +0.000 A 
ATOM     23  F   UNL     1       4.589   2.097  19.970  0.00  0.00    +0.000 F 
ENDBRANCH  16  17
ENDBRANCH   4  16
TORSDOF 5
ENDMDL
MODEL 6
REMARK VINA RESULT:      -6.6      0.887      1.474
REMARK  Name = 
REMARK  6 active torsions:
REMARK  status: ('A' for Active; 'I' for Inactive)
REMARK    1  A    between atoms: C_1  and  O_2
REMARK    2  A    between atoms: O_2  and  C_3
REMARK    3  A    between atoms: C_6  and  C_7
REMARK    4  A    between atoms: C_7  and  N_8
REMARK    5  A    between atoms: N_11  and  C_12
REMARK    6  A    between atoms: C_12  and  C_13
REMARK                            x       y       z     vdW  Elec       q    Type
REMARK                         _______ _______ _______ _____ _____    ______ ____
ROOT
ATOM      1  N   UNL     1       3.000   5.010  19.015  0.00  0.00    +0.000 NA
ATOM      2  C   UNL     1       2.860   4.918  17.557  0.00  0.00    +0.000 C 
ATOM      3  C   UNL     1       4.136   5.384  16.815  0.00  0.00    +0.000 C 
ATOM      4  N   UNL     1       5.371   4.637  17.123  0.00  0.00    +0.000 NA
ATOM      5  C   UNL     1       5.439   4.213  18.536  0.00  0.00    +0.000 C 
ATOM      6  C   UNL     1       4.104   4.058  19.347  0.00  0.00    +0.000 C 
ENDROOT
BRANCH   1   7
ATOM      7  C   UNL     1       3.292   6.396  19.462  0.00  0.00    +0.000 C 
BRANCH   7  11
ATOM      8  C   UNL     1       0.796   9.951  19.282  0.00  0.00    +0.000 A 
ATOM      9  C   UNL     1       0.779   9.173  20.444  0.00  0.00    +0.000 A 
ATOM     10  C   UNL     1       1.494   7.956  20.505  0.00  0.00    +0.000 A 
ATOM     11  C   UNL     1       2.182   7.466  19.386  0.00  0.00    +0.000 A 
ATOM     12  C   UNL     1       2.013   8.166  18.176  0.00  0.00    +0.000 A 
ATOM     13  C   UNL     1       1.373   9.416  18.139  0.00  0.00    +0.000 A 
BRANCH   8  15
ATOM     14  C   UNL     1      -1.018  11.339  18.618  0.00  0.00    +0.000 C 
ATOM     15  O   UNL     1       0.292  11.218  19.165  0.00  0.00    +0.000 OA
ENDBRANCH   8  15
ENDBRANCH   7  11
ENDBRANCH   1   7
BRANCH   4  16
ATOM     16  C   UNL     1       5.544   3.613  16.079  0.00  0.00    +0.000 C 
BRANCH  16  17
ATOM     17  C   UNL     1       6.022   4.028  14.725  0.00  0.00    +0.000 A 
ATOM     18  C   UNL     1       5.584   3.411  13.541  0.00  0.00    +0.000 A 
ATOM     19  C   UNL     1       6.200   3.690  12.319  0.00  0.00    +0.000 A 
ATOM     20  C   UNL     1       7.261   4.589  12.252  0.00  0.00    +0.000 A 
ATOM     21  C   UNL     1       7.713   5.213  13.424  0.00  0.00    +0.000 A 
ATOM     22  C   UNL     1       7.098   4.933  14.622  0.00  0.00    +0.000 A 
ATOM     23  F   UNL     1       7.594   5.489  15.748  0.00  0.00    +0.000 F 
ENDBRANCH  16  17
ENDBRANCH   4  16
TORSDOF 5
ENDMDL
MODEL 7
REMARK VINA RESULT:      -6.6      1.273      1.633
REMARK  Name = 
REMARK  6 active torsions:
REMARK  status: ('A' for Active; 'I' for Inactive)
REMARK    1  A    between atoms: C_1  and  O_2
REMARK    2  A    between atoms: O_2  and  C_3
REMARK    3  A    between atoms: C_6  and  C_7
REMARK    4  A    between atoms: C_7  and  N_8
REMARK    5  A    between atoms: N_11  and  C_12
REMARK    6  A    between atoms: C_12  and  C_13
REMARK                            x       y       z     vdW  Elec       q    Type
REMARK                         _______ _______ _______ _____ _____    ______ ____
ROOT
ATOM      1  N   UNL     1       4.310   5.556  18.766  0.00  0.00    +0.000 NA
ATOM      2  C   UNL     1       4.550   4.142  18.457  0.00  0.00    +0.000 C 
ATOM      3  C   UNL     1       4.117   3.776  17.016  0.00  0.00    +0.000 C 
ATOM      4  N   UNL     1       4.788   4.518  15.932  0.00  0.00    +0.000 NA
ATOM      5  C   UNL     1       5.067   5.922  16.295  0.00  0.00    +0.000 C 
ATOM      6  C   UNL     1       5.186   6.304  17.812  0.00  0.00    +0.000 C 
ENDROOT
BRANCH   1   7
ATOM      7  C   UNL     1       2.877   5.923  18.627  0.00  0.00    +0.000 C 
BRANCH   7  11
ATOM      8  C   UNL     1       0.893   9.756  19.151  0.00  0.00    +0.000 A 
ATOM      9  C   UNL     1       1.590   9.514  17.962  0.00  0.00    +0.000 A 
ATOM     10  C   UNL     1       2.334   8.324  17.794  0.00  0.00    +0.000 A 
ATOM     11  C   UNL     1       2.447   7.390  18.834  0.00  0.00    +0.000 A 
ATOM     12  C   UNL     1       1.906   7.756  20.082  0.00  0.00    +0.000 A 
ATOM     13  C   UNL     1       1.098   8.897  20.221  0.00  0.00    +0.000 A 
BRANCH   8  15
ATOM     14  C   UNL     1      -1.265  10.661  18.727  0.00  0.00    +0.000 C 
ATOM     15  O   UNL     1       0.007  10.777  19.360  0.00  0.00    +0.000 OA
ENDBRANCH   8  15
ENDBRANCH   7  11
ENDBRANCH   1   7
BRANCH   4  16
ATOM     16  C   UNL     1       5.904   3.689  15.447  0.00  0.00    +0.000 C 
BRANCH  16  17
ATOM     17  C   UNL     1       6.636   4.104  14.212  0.00  0.00    +0.000 A 
ATOM     18  C   UNL     1       7.613   5.114  14.210  0.00  0.00    +0.000 A 
ATOM     19  C   UNL     1       8.127   5.610  13.009  0.00  0.00    +0.000 A 
ATOM     20  C   UNL     1       7.681   5.108  11.789  0.00  0.00    +0.000 A 
ATOM     21  C   UNL     1       6.704   4.101  11.772  0.00  0.00    +0.000 A 
ATOM     22  C   UNL     1       6.206   3.618  12.960  0.00  0.00    +0.000 A 
ATOM     23  F   UNL     1       5.216   2.701  12.920  0.00  0.00    +0.000 F 
ENDBRANCH  16  17
ENDBRANCH   4  16
TORSDOF 5
ENDMDL
MODEL 8
REMARK VINA RESULT:      -6.6      4.693      6.613
REMARK  Name = 
REMARK  6 active torsions:
REMARK  status: ('A' for Active; 'I' for Inactive)
REMARK    1  A    between atoms: C_1  and  O_2
REMARK    2  A    between atoms: O_2  and  C_3
REMARK    3  A    between atoms: C_6  and  C_7
REMARK    4  A    between atoms: C_7  and  N_8
REMARK    5  A    between atoms: N_11  and  C_12
REMARK    6  A    between atoms: C_12  and  C_13
REMARK                            x       y       z     vdW  Elec       q    Type
REMARK                         _______ _______ _______ _____ _____    ______ ____
ROOT
ATOM      1  N   UNL     1       6.929   7.176  16.873  0.00  0.00    +0.000 NA
ATOM      2  C   UNL     1       7.122   5.839  16.298  0.00  0.00    +0.000 C 
ATOM      3  C   UNL     1       7.026   4.723  17.367  0.00  0.00    +0.000 C 
ATOM      4  N   UNL     1       5.748   4.638  18.099  0.00  0.00    +0.000 NA
ATOM      5  C   UNL     1       5.148   5.965  18.347  0.00  0.00    +0.000 C 
ATOM      6  C   UNL     1       5.531   7.159  17.404  0.00  0.00    +0.000 C 
ENDROOT
BRANCH   1   7
ATOM      7  C   UNL     1       7.933   7.481  17.925  0.00  0.00    +0.000 C 
BRANCH   7  11
ATOM      8  C   UNL     1       9.273  11.598  18.322  0.00  0.00    +0.000 A 
ATOM      9  C   UNL     1       9.655  10.667  19.294  0.00  0.00    +0.000 A 
ATOM     10  C   UNL     1       9.157   9.345  19.260  0.00  0.00    +0.000 A 
ATOM     11  C   UNL     1       8.220   8.952  18.293  0.00  0.00    +0.000 A 
ATOM     12  C   UNL     1       7.704   9.961  17.457  0.00  0.00    +0.000 A 
ATOM     13  C   UNL     1       8.261  11.251  17.439  0.00  0.00    +0.000 A 
BRANCH   8  15
ATOM     14  C   UNL     1       9.678  13.756  19.235  0.00  0.00    +0.000 C 
ATOM     15  O   UNL     1       9.820  12.841  18.153  0.00  0.00    +0.000 OA
ENDBRANCH   8  15
ENDBRANCH   7  11
ENDBRANCH   1   7
BRANCH   4  16
ATOM     16  C   UNL     1       4.923   3.613  17.439  0.00  0.00    +0.000 C 
BRANCH  16  17
ATOM     17  C   UNL     1       3.585   3.274  18.014  0.00  0.00    +0.000 A 
ATOM     18  C   UNL     1       2.381   3.764  17.480  0.00  0.00    +0.000 A 
ATOM     19  C   UNL     1       1.173   3.590  18.160  0.00  0.00    +0.000 A 
ATOM     20  C   UNL     1       1.141   2.925  19.383  0.00  0.00    +0.000 A 
ATOM     21  C   UNL     1       2.333   2.431  19.933  0.00  0.00    +0.000 A 
ATOM     22  C   UNL     1       3.517   2.605  19.253  0.00  0.00    +0.000 A 
ATOM     23  F   UNL     1       4.662   2.186  19.833  0.00  0.00    +0.000 F 
ENDBRANCH  16  17
ENDBRANCH   4  16
TORSDOF 5
ENDMDL
MODEL 9
REMARK VINA RESULT:      -6.6      1.586      2.535
REMARK  Name = 
REMARK  6 active torsions:
REMARK  status: ('A' for Active; 'I' for Inactive)
REMARK    1  A    between atoms: C_1  and  O_2
REMARK    2  A    between atoms: O_2  and  C_3
REMARK    3  A    between atoms: C_6  and  C_7
REMARK    4  A    between atoms: C_7  and  N_8
REMARK    5  A    between atoms: N_11  and  C_12
REMARK    6  A    between atoms: C_12  and  C_13
REMARK                            x       y       z     vdW  Elec       q    Type
REMARK                         _______ _______ _______ _____ _____    ______ ____
ROOT
ATOM      1  N   UNL     1       2.527   6.665  18.239  0.00  0.00    +0.000 NA
ATOM      2  C   UNL     1       3.968   6.649  17.961  0.00  0.00    +0.000 C 
ATOM      3  C   UNL     1       4.757   5.828  19.010  0.00  0.00    +0.000 C 
ATOM      4  N   UNL     1       4.381   4.407  19.134  0.00  0.00    +0.000 NA
ATOM      5  C   UNL     1       2.933   4.186  18.946  0.00  0.00    +0.000 C 
ATOM      6  C   UNL     1       2.106   5.234  18.123  0.00  0.00    +0.000 C 
ENDROOT
BRANCH   1   7
ATOM      7  C   UNL     1       2.222   7.240  19.573  0.00  0.00    +0.000 C 
BRANCH   7  11
ATOM      8  C   UNL     1      -0.492  10.634  19.721  0.00  0.00    +0.000 A 
ATOM      9  C   UNL     1       0.344  10.487  18.610  0.00  0.00    +0.000 A 
ATOM     10  C   UNL     1       1.312   9.459  18.569  0.00  0.00    +0.000 A 
ATOM     11  C   UNL     1       1.504   8.604  19.664  0.00  0.00    +0.000 A 
ATOM     12  C   UNL     1       0.791   8.904  20.841  0.00  0.00    +0.000 A 
ATOM     13  C   UNL     1      -0.228   9.872  20.850  0.00  0.00    +0.000 A 
BRANCH   8  15
ATOM     14  C   UNL     1      -2.441  11.504  18.672  0.00  0.00    +0.000 C 
ATOM     15  O   UNL     1      -1.572  11.472  19.800  0.00  0.00    +0.000 OA
ENDBRANCH   8  15
ENDBRANCH   7  11
ENDBRANCH   1   7
BRANCH   4  16
ATOM     16  C   UNL     1       5.318   3.624  18.311  0.00  0.00    +0.000 C 
BRANCH  16  17
ATOM     17  C   UNL     1       5.725   4.152  16.972  0.00  0.00    +0.000 A 
ATOM     18  C   UNL     1       4.910   4.047  15.833  0.00  0.00    +0.000 A 
ATOM     19  C   UNL     1       5.406   4.369  14.567  0.00  0.00    +0.000 A 
ATOM     20  C   UNL     1       6.720   4.802  14.412  0.00  0.00    +0.000 A 
ATOM     21  C   UNL     1       7.549   4.910  15.538  0.00  0.00    +0.000 A 
ATOM     22  C   UNL     1       7.051   4.593  16.781  0.00  0.00    +0.000 A 
ATOM     23  F   UNL     1       7.885   4.635  17.841  0.00  0.00    +0.000 F 
ENDBRANCH  16  17
ENDBRANCH   4  16
TORSDOF 5
ENDMDL
