MODEL 1
REMARK VINA RESULT:      -7.3      0.000      0.000
REMARK  Name = 
REMARK  3 active torsions:
REMARK  status: ('A' for Active; 'I' for Inactive)
REMARK    1  A    between atoms: C_4  and  N_5
REMARK    2  A    between atoms: N_8  and  C_9
REMARK    3  A    between atoms: C_9  and  C_10
REMARK                            x       y       z     vdW  Elec       q    Type
REMARK                         _______ _______ _______ _____ _____    ______ ____
ROOT
ATOM      1  N   UNL     1       4.376   3.698  18.540  0.00  0.00    +0.000 N 
ATOM      2  C   UNL     1       4.190   3.643  17.085  0.00  0.00    +0.000 C 
ATOM      3  C   UNL     1       4.558   4.988  16.409  0.00  0.00    +0.000 C 
ATOM      4  N   UNL     1       5.879   5.552  16.796  0.00  0.00    +0.000 NA
ATOM      5  C   UNL     1       5.902   5.637  18.279  0.00  0.00    +0.000 C 
ATOM      6  C   UNL     1       5.629   4.307  19.020  0.00  0.00    +0.000 C 
ENDROOT
BRANCH   1  10
ATOM      7  C   UNL     1       1.182   3.114  21.229  0.00  0.00    +0.000 A 
ATOM      8  C   UNL     1       1.001   3.857  20.069  0.00  0.00    +0.000 A 
ATOM      9  C   UNL     1       2.066   4.039  19.181  0.00  0.00    +0.000 A 
ATOM     10  C   UNL     1       3.336   3.491  19.428  0.00  0.00    +0.000 A 
ATOM     11  C   UNL     1       3.489   2.746  20.604  0.00  0.00    +0.000 A 
ATOM     12  C   UNL     1       2.427   2.556  21.497  0.00  0.00    +0.000 A 
ENDBRANCH   1  10
BRANCH   4  13
ATOM     13  C   UNL     1       6.964   4.704  16.265  0.00  0.00    +0.000 C 
BRANCH  13  14
ATOM     14  C   UNL     1       6.990   4.623  14.777  0.00  0.00    +0.000 A 
ATOM     15  C   UNL     1       6.329   3.845  13.849  0.00  0.00    +0.000 A 
ATOM     16  C   UNL     1       6.821   4.235  12.580  0.00  0.00    +0.000 A 
ATOM     17  C   UNL     1       7.745   5.225  12.812  0.00  0.00    +0.000 A 
ATOM     18  O   UNL     1       7.851   5.473  14.142  0.00  0.00    +0.000 OA
ENDBRANCH  13  14
ENDBRANCH   4  13
TORSDOF 3
ENDMDL
MODEL 2
REMARK VINA RESULT:      -7.3      0.231      1.140
REMARK  Name = 
REMARK  3 active torsions:
REMARK  status: ('A' for Active; 'I' for Inactive)
REMARK    1  A    between atoms: C_4  and  N_5
REMARK    2  A    between atoms: N_8  and  C_9
REMARK    3  A    between atoms: C_9  and  C_10
REMARK                            x       y       z     vdW  Elec       q    Type
REMARK                         _______ _______ _______ _____ _____    ______ ____
ROOT
ATOM      1  N   UNL     1       4.382   3.801  18.614  0.00  0.00    +0.000 N 
ATOM      2  C   UNL     1       4.171   3.572  17.178  0.00  0.00    +0.000 C 
ATOM      3  C   UNL     1       4.423   4.858  16.351  0.00  0.00    +0.000 C 
ATOM      4  N   UNL     1       5.705   5.555  16.637  0.00  0.00    +0.000 NA
ATOM      5  C   UNL     1       5.751   5.805  18.100  0.00  0.00    +0.000 C 
ATOM      6  C   UNL     1       5.594   4.549  18.988  0.00  0.00    +0.000 C 
ENDROOT
BRANCH   1  10
ATOM      7  C   UNL     1       1.339   3.191  21.467  0.00  0.00    +0.000 A 
ATOM      8  C   UNL     1       2.518   2.458  21.525  0.00  0.00    +0.000 A 
ATOM      9  C   UNL     1       3.523   2.673  20.578  0.00  0.00    +0.000 A 
ATOM     10  C   UNL     1       3.378   3.618  19.547  0.00  0.00    +0.000 A 
ATOM     11  C   UNL     1       2.180   4.341  19.513  0.00  0.00    +0.000 A 
ATOM     12  C   UNL     1       1.169   4.135  20.461  0.00  0.00    +0.000 A 
ENDBRANCH   1  10
BRANCH   4  13
ATOM     13  C   UNL     1       6.840   4.735  16.170  0.00  0.00    +0.000 C 
BRANCH  13  14
ATOM     14  C   UNL     1       6.943   4.641  14.686  0.00  0.00    +0.000 A 
ATOM     15  C   UNL     1       6.326   3.860  13.731  0.00  0.00    +0.000 A 
ATOM     16  C   UNL     1       6.886   4.235  12.487  0.00  0.00    +0.000 A 
ATOM     17  C   UNL     1       7.804   5.220  12.759  0.00  0.00    +0.000 A 
ATOM     18  O   UNL     1       7.843   5.479  14.090  0.00  0.00    +0.000 OA
ENDBRANCH  13  14
ENDBRANCH   4  13
TORSDOF 3
ENDMDL
MODEL 3
REMARK VINA RESULT:      -7.1      0.881      1.019
REMARK  Name = 
REMARK  3 active torsions:
REMARK  status: ('A' for Active; 'I' for Inactive)
REMARK    1  A    between atoms: C_4  and  N_5
REMARK    2  A    between atoms: N_8  and  C_9
REMARK    3  A    between atoms: C_9  and  C_10
REMARK                            x       y       z     vdW  Elec       q    Type
REMARK                         _______ _______ _______ _____ _____    ______ ____
ROOT
ATOM      1  N   UNL     1       4.274   4.033  18.129  0.00  0.00    +0.000 N 
ATOM      2  C   UNL     1       4.192   4.193  16.671  0.00  0.00    +0.000 C 
ATOM      3  C   UNL     1       4.887   5.495  16.199  0.00  0.00    +0.000 C 
ATOM      4  N   UNL     1       6.263   5.705  16.721  0.00  0.00    +0.000 NA
ATOM      5  C   UNL     1       6.191   5.607  18.201  0.00  0.00    +0.000 C 
ATOM      6  C   UNL     1       5.587   4.292  18.745  0.00  0.00    +0.000 C 
ENDROOT
BRANCH   1  10
ATOM      7  C   UNL     1       0.872   3.819  20.609  0.00  0.00    +0.000 A 
ATOM      8  C   UNL     1       1.843   4.790  20.825  0.00  0.00    +0.000 A 
ATOM      9  C   UNL     1       2.964   4.855  19.992  0.00  0.00    +0.000 A 
ATOM     10  C   UNL     1       3.148   3.956  18.929  0.00  0.00    +0.000 A 
ATOM     11  C   UNL     1       2.155   2.989  18.735  0.00  0.00    +0.000 A 
ATOM     12  C   UNL     1       1.026   2.918  19.561  0.00  0.00    +0.000 A 
ENDBRANCH   1  10
BRANCH   4  13
ATOM     13  C   UNL     1       7.183   4.709  16.136  0.00  0.00    +0.000 C 
BRANCH  13  14
ATOM     14  C   UNL     1       7.146   4.659  14.647  0.00  0.00    +0.000 A 
ATOM     15  C   UNL     1       6.458   3.890  13.731  0.00  0.00    +0.000 A 
ATOM     16  C   UNL     1       6.889   4.314  12.451  0.00  0.00    +0.000 A 
ATOM     17  C   UNL     1       7.806   5.315  12.665  0.00  0.00    +0.000 A 
ATOM     18  O   UNL     1       7.965   5.537  13.994  0.00  0.00    +0.000 OA
ENDBRANCH  13  14
ENDBRANCH   4  13
TORSDOF 3
ENDMDL
MODEL 4
REMARK VINA RESULT:      -7.0      2.114      6.932
REMARK  Name = 
REMARK  3 active torsions:
REMARK  status: ('A' for Active; 'I' for Inactive)
REMARK    1  A    between atoms: C_4  and  N_5
REMARK    2  A    between atoms: N_8  and  C_9
REMARK    3  A    between atoms: C_9  and  C_10
REMARK                            x       y       z     vdW  Elec       q    Type
REMARK                         _______ _______ _______ _____ _____    ______ ____
ROOT
ATOM      1  N   UNL     1       6.051   4.261  16.010  0.00  0.00    +0.000 N 
ATOM      2  C   UNL     1       6.904   4.698  17.123  0.00  0.00    +0.000 C 
ATOM      3  C   UNL     1       6.243   5.838  17.938  0.00  0.00    +0.000 C 
ATOM      4  N   UNL     1       4.839   5.585  18.359  0.00  0.00    +0.000 NA
ATOM      5  C   UNL     1       4.070   5.244  17.135  0.00  0.00    +0.000 C 
ATOM      6  C   UNL     1       4.625   4.054  16.318  0.00  0.00    +0.000 C 
ENDROOT
BRANCH   1  10
ATOM      7  C   UNL     1       7.281   4.437  11.982  0.00  0.00    +0.000 A 
ATOM      8  C   UNL     1       6.249   3.589  12.369  0.00  0.00    +0.000 A 
ATOM      9  C   UNL     1       5.845   3.545  13.706  0.00  0.00    +0.000 A 
ATOM     10  C   UNL     1       6.460   4.336  14.691  0.00  0.00    +0.000 A 
ATOM     11  C   UNL     1       7.496   5.180  14.273  0.00  0.00    +0.000 A 
ATOM     12  C   UNL     1       7.904   5.235  12.934  0.00  0.00    +0.000 A 
ENDBRANCH   1  10
BRANCH   4  13
ATOM     13  C   UNL     1       4.800   4.507  19.366  0.00  0.00    +0.000 C 
BRANCH  13  14
ATOM     14  C   UNL     1       3.425   4.165  19.828  0.00  0.00    +0.000 A 
ATOM     15  C   UNL     1       2.432   4.865  20.481  0.00  0.00    +0.000 A 
ATOM     16  C   UNL     1       1.359   3.961  20.661  0.00  0.00    +0.000 A 
ATOM     17  C   UNL     1       1.761   2.770  20.105  0.00  0.00    +0.000 A 
ATOM     18  O   UNL     1       3.011   2.884  19.590  0.00  0.00    +0.000 OA
ENDBRANCH  13  14
ENDBRANCH   4  13
TORSDOF 3
ENDMDL
MODEL 5
REMARK VINA RESULT:      -6.9      2.128      6.944
REMARK  Name = 
REMARK  3 active torsions:
REMARK  status: ('A' for Active; 'I' for Inactive)
REMARK    1  A    between atoms: C_4  and  N_5
REMARK    2  A    between atoms: N_8  and  C_9
REMARK    3  A    between atoms: C_9  and  C_10
REMARK                            x       y       z     vdW  Elec       q    Type
REMARK                         _______ _______ _______ _____ _____    ______ ____
ROOT
ATOM      1  N   UNL     1       6.027   4.212  15.980  0.00  0.00    +0.000 N 
ATOM      2  C   UNL     1       6.910   4.584  17.093  0.00  0.00    +0.000 C 
ATOM      3  C   UNL     1       6.321   5.752  17.924  0.00  0.00    +0.000 C 
ATOM      4  N   UNL     1       4.907   5.579  18.349  0.00  0.00    +0.000 NA
ATOM      5  C   UNL     1       4.113   5.298  17.126  0.00  0.00    +0.000 C 
ATOM      6  C   UNL     1       4.593   4.087  16.293  0.00  0.00    +0.000 C 
ENDROOT
BRANCH   1  10
ATOM      7  C   UNL     1       7.280   4.462  11.963  0.00  0.00    +0.000 A 
ATOM      8  C   UNL     1       7.875   5.253  12.938  0.00  0.00    +0.000 A 
ATOM      9  C   UNL     1       7.456   5.157  14.268  0.00  0.00    +0.000 A 
ATOM     10  C   UNL     1       6.433   4.277  14.659  0.00  0.00    +0.000 A 
ATOM     11  C   UNL     1       5.852   3.492  13.656  0.00  0.00    +0.000 A 
ATOM     12  C   UNL     1       6.268   3.579  12.321  0.00  0.00    +0.000 A 
ENDBRANCH   1  10
BRANCH   4  13
ATOM     13  C   UNL     1       4.809   4.494  19.345  0.00  0.00    +0.000 C 
BRANCH  13  14
ATOM     14  C   UNL     1       3.416   4.214  19.793  0.00  0.00    +0.000 A 
ATOM     15  C   UNL     1       2.444   4.962  20.425  0.00  0.00    +0.000 A 
ATOM     16  C   UNL     1       1.333   4.103  20.602  0.00  0.00    +0.000 A 
ATOM     17  C   UNL     1       1.693   2.890  20.066  0.00  0.00    +0.000 A 
ATOM     18  O   UNL     1       2.953   2.948  19.567  0.00  0.00    +0.000 OA
ENDBRANCH  13  14
ENDBRANCH   4  13
TORSDOF 3
ENDMDL
MODEL 6
REMARK VINA RESULT:      -6.8      0.973      1.368
REMARK  Name = 
REMARK  3 active torsions:
REMARK  status: ('A' for Active; 'I' for Inactive)
REMARK    1  A    between atoms: C_4  and  N_5
REMARK    2  A    between atoms: N_8  and  C_9
REMARK    3  A    between atoms: C_9  and  C_10
REMARK                            x       y       z     vdW  Elec       q    Type
REMARK                         _______ _______ _______ _____ _____    ______ ____
ROOT
ATOM      1  N   UNL     1       4.536   4.516  18.151  0.00  0.00    +0.000 N 
ATOM      2  C   UNL     1       4.347   4.541  16.695  0.00  0.00    +0.000 C 
ATOM      3  C   UNL     1       5.041   5.767  16.049  0.00  0.00    +0.000 C 
ATOM      4  N   UNL     1       6.459   5.974  16.444  0.00  0.00    +0.000 NA
ATOM      5  C   UNL     1       6.498   6.018  17.928  0.00  0.00    +0.000 C 
ATOM      6  C   UNL     1       5.900   4.783  18.641  0.00  0.00    +0.000 C 
ENDROOT
BRANCH   1  10
ATOM      7  C   UNL     1       1.281   4.590  20.829  0.00  0.00    +0.000 A 
ATOM      8  C   UNL     1       1.774   3.382  20.350  0.00  0.00    +0.000 A 
ATOM      9  C   UNL     1       2.858   3.369  19.468  0.00  0.00    +0.000 A 
ATOM     10  C   UNL     1       3.474   4.556  19.037  0.00  0.00    +0.000 A 
ATOM     11  C   UNL     1       2.957   5.758  19.535  0.00  0.00    +0.000 A 
ATOM     12  C   UNL     1       1.874   5.780  20.423  0.00  0.00    +0.000 A 
ENDBRANCH   1  10
BRANCH   4  13
ATOM     13  C   UNL     1       7.300   4.894  15.892  0.00  0.00    +0.000 C 
BRANCH  13  14
ATOM     14  C   UNL     1       7.171   4.727  14.417  0.00  0.00    +0.000 A 
ATOM     15  C   UNL     1       6.434   3.886  13.609  0.00  0.00    +0.000 A 
ATOM     16  C   UNL     1       6.780   4.209  12.275  0.00  0.00    +0.000 A 
ATOM     17  C   UNL     1       7.700   5.227  12.352  0.00  0.00    +0.000 A 
ATOM     18  O   UNL     1       7.940   5.554  13.647  0.00  0.00    +0.000 OA
ENDBRANCH  13  14
ENDBRANCH   4  13
TORSDOF 3
ENDMDL
MODEL 7
REMARK VINA RESULT:      -6.8      1.003      1.360
REMARK  Name = 
REMARK  3 active torsions:
REMARK  status: ('A' for Active; 'I' for Inactive)
REMARK    1  A    between atoms: C_4  and  N_5
REMARK    2  A    between atoms: N_8  and  C_9
REMARK    3  A    between atoms: C_9  and  C_10
REMARK                            x       y       z     vdW  Elec       q    Type
REMARK                         _______ _______ _______ _____ _____    ______ ____
ROOT
ATOM      1  N   UNL     1       3.394   4.480  18.093  0.00  0.00    +0.000 N 
ATOM      2  C   UNL     1       3.719   5.911  18.029  0.00  0.00    +0.000 C 
ATOM      3  C   UNL     1       5.243   6.145  17.870  0.00  0.00    +0.000 C 
ATOM      4  N   UNL     1       5.895   5.362  16.788  0.00  0.00    +0.000 NA
ATOM      5  C   UNL     1       5.564   3.933  17.020  0.00  0.00    +0.000 C 
ATOM      6  C   UNL     1       4.053   3.612  17.101  0.00  0.00    +0.000 C 
ENDROOT
BRANCH   1  10
ATOM      7  C   UNL     1       1.449   2.786  21.427  0.00  0.00    +0.000 A 
ATOM      8  C   UNL     1       0.733   3.522  20.492  0.00  0.00    +0.000 A 
ATOM      9  C   UNL     1       1.388   4.074  19.386  0.00  0.00    +0.000 A 
ATOM     10  C   UNL     1       2.769   3.911  19.188  0.00  0.00    +0.000 A 
ATOM     11  C   UNL     1       3.465   3.165  20.146  0.00  0.00    +0.000 A 
ATOM     12  C   UNL     1       2.817   2.605  21.254  0.00  0.00    +0.000 A 
ENDBRANCH   1  10
BRANCH   4  13
ATOM     13  C   UNL     1       5.433   5.840  15.470  0.00  0.00    +0.000 C 
BRANCH  13  14
ATOM     14  C   UNL     1       5.977   5.059  14.323  0.00  0.00    +0.000 A 
ATOM     15  C   UNL     1       5.501   4.006  13.569  0.00  0.00    +0.000 A 
ATOM     16  C   UNL     1       6.516   3.692  12.635  0.00  0.00    +0.000 A 
ATOM     17  C   UNL     1       7.544   4.573  12.873  0.00  0.00    +0.000 A 
ATOM     18  O   UNL     1       7.225   5.411  13.891  0.00  0.00    +0.000 OA
ENDBRANCH  13  14
ENDBRANCH   4  13
TORSDOF 3
ENDMDL
MODEL 8
REMARK VINA RESULT:      -6.8      1.974      2.958
REMARK  Name = 
REMARK  3 active torsions:
REMARK  status: ('A' for Active; 'I' for Inactive)
REMARK    1  A    between atoms: C_4  and  N_5
REMARK    2  A    between atoms: N_8  and  C_9
REMARK    3  A    between atoms: C_9  and  C_10
REMARK                            x       y       z     vdW  Elec       q    Type
REMARK                         _______ _______ _______ _____ _____    ______ ____
ROOT
ATOM      1  N   UNL     1       4.236   4.177  18.891  0.00  0.00    +0.000 N 
ATOM      2  C   UNL     1       4.635   3.493  17.653  0.00  0.00    +0.000 C 
ATOM      3  C   UNL     1       4.535   4.432  16.424  0.00  0.00    +0.000 C 
ATOM      4  N   UNL     1       5.191   5.757  16.583  0.00  0.00    +0.000 NA
ATOM      5  C   UNL     1       4.638   6.375  17.814  0.00  0.00    +0.000 C 
ATOM      6  C   UNL     1       4.782   5.529  19.100  0.00  0.00    +0.000 C 
ENDROOT
BRANCH   1  10
ATOM      7  C   UNL     1       0.988   2.895  21.253  0.00  0.00    +0.000 A 
ATOM      8  C   UNL     1       0.790   3.782  20.202  0.00  0.00    +0.000 A 
ATOM      9  C   UNL     1       1.873   4.195  19.421  0.00  0.00    +0.000 A 
ATOM     10  C   UNL     1       3.179   3.741  19.670  0.00  0.00    +0.000 A 
ATOM     11  C   UNL     1       3.350   2.848  20.735  0.00  0.00    +0.000 A 
ATOM     12  C   UNL     1       2.270   2.425  21.519  0.00  0.00    +0.000 A 
ENDBRANCH   1  10
BRANCH   4  13
ATOM     13  C   UNL     1       6.657   5.590  16.647  0.00  0.00    +0.000 C 
BRANCH  13  14
ATOM     14  C   UNL     1       7.354   6.682  17.383  0.00  0.00    +0.000 A 
ATOM     15  C   UNL     1       8.071   6.739  18.560  0.00  0.00    +0.000 A 
ATOM     16  C   UNL     1       8.454   8.090  18.729  0.00  0.00    +0.000 A 
ATOM     17  C   UNL     1       7.952   8.772  17.646  0.00  0.00    +0.000 A 
ATOM     18  O   UNL     1       7.288   7.925  16.819  0.00  0.00    +0.000 OA
ENDBRANCH  13  14
ENDBRANCH   4  13
TORSDOF 3
ENDMDL
MODEL 9
REMARK VINA RESULT:      -6.8      2.215      6.900
REMARK  Name = 
REMARK  3 active torsions:
REMARK  status: ('A' for Active; 'I' for Inactive)
REMARK    1  A    between atoms: C_4  and  N_5
REMARK    2  A    between atoms: N_8  and  C_9
REMARK    3  A    between atoms: C_9  and  C_10
REMARK                            x       y       z     vdW  Elec       q    Type
REMARK                         _______ _______ _______ _____ _____    ______ ____
ROOT
ATOM      1  N   UNL     1       5.365   4.790  15.974  0.00  0.00    +0.000 N 
ATOM      2  C   UNL     1       4.200   4.051  16.477  0.00  0.00    +0.000 C 
ATOM      3  C   UNL     1       4.533   3.273  17.775  0.00  0.00    +0.000 C 
ATOM      4  N   UNL     1       5.207   4.068  18.835  0.00  0.00    +0.000 NA
ATOM      5  C   UNL     1       6.409   4.687  18.222  0.00  0.00    +0.000 C 
ATOM      6  C   UNL     1       6.139   5.552  16.969  0.00  0.00    +0.000 C 
ENDROOT
BRANCH   1  10
ATOM      7  C   UNL     1       7.042   4.123  12.164  0.00  0.00    +0.000 A 
ATOM      8  C   UNL     1       7.683   4.944  13.083  0.00  0.00    +0.000 A 
ATOM      9  C   UNL     1       7.121   5.153  14.346  0.00  0.00    +0.000 A 
ATOM     10  C   UNL     1       5.907   4.556  14.723  0.00  0.00    +0.000 A 
ATOM     11  C   UNL     1       5.282   3.734  13.777  0.00  0.00    +0.000 A 
ATOM     12  C   UNL     1       5.840   3.516  12.511  0.00  0.00    +0.000 A 
ENDBRANCH   1  10
BRANCH   4  13
ATOM     13  C   UNL     1       4.274   5.074  19.382  0.00  0.00    +0.000 C 
BRANCH  13  14
ATOM     14  C   UNL     1       2.999   4.496  19.891  0.00  0.00    +0.000 A 
ATOM     15  C   UNL     1       1.666   4.731  19.624  0.00  0.00    +0.000 A 
ATOM     16  C   UNL     1       0.931   3.865  20.467  0.00  0.00    +0.000 A 
ATOM     17  C   UNL     1       1.857   3.155  21.192  0.00  0.00    +0.000 A 
ATOM     18  O   UNL     1       3.116   3.525  20.846  0.00  0.00    +0.000 OA
ENDBRANCH  13  14
ENDBRANCH   4  13
TORSDOF 3
ENDMDL
