MODEL 1
REMARK VINA RESULT:      -9.3      0.000      0.000
REMARK  Name = 
REMARK  4 active torsions:
REMARK  status: ('A' for Active; 'I' for Inactive)
REMARK    1  A    between atoms: C_2  and  C_21
REMARK    2  A    between atoms: N_3  and  C_4
REMARK    3  A    between atoms: C_9  and  C_10
REMARK    4  A    between atoms: C_23  and  N_24
REMARK                            x       y       z     vdW  Elec       q    Type
REMARK                         _______ _______ _______ _____ _____    ______ ____
ROOT
ATOM      1  C   UNL     1       1.493   8.636  19.519  0.00  0.00    +0.000 A 
ATOM      2  C   UNL     1       1.002   9.413  18.457  0.00  0.00    +0.000 A 
ATOM      3  C   UNL     1       0.220  10.558  18.669  0.00  0.00    +0.000 A 
ATOM      4  C   UNL     1      -0.026  10.874  19.995  0.00  0.00    +0.000 A 
ATOM      5  O   UNL     1      -0.712  11.950  20.480  0.00  0.00    +0.000 OA
ATOM      6  C   UNL     1      -0.635  11.803  21.845  0.00  0.00    +0.000 A 
ATOM      7  N   UNL     1       0.001  10.714  22.239  0.00  0.00    +0.000 NA
ATOM      8  C   UNL     1       0.408  10.127  21.070  0.00  0.00    +0.000 A 
ATOM      9  C   UNL     1       1.164   8.967  20.844  0.00  0.00    +0.000 A 
ENDROOT
BRANCH   6  10
ATOM     10  C   UNL     1      -1.280  12.842  22.644  0.00  0.00    +0.000 A 
ATOM     11  C   UNL     1      -2.523  12.578  23.250  0.00  0.00    +0.000 A 
ATOM     12  C   UNL     1      -3.134  13.516  24.088  0.00  0.00    +0.000 A 
ATOM     13  C   UNL     1      -2.509  14.737  24.324  0.00  0.00    +0.000 A 
ATOM     14 CL   UNL     1      -3.240  15.880  25.382  0.00  0.00    +0.000 Cl
ATOM     15  C   UNL     1      -1.298  15.037  23.712  0.00  0.00    +0.000 A 
ATOM     16  C   UNL     1      -0.686  14.098  22.871  0.00  0.00    +0.000 A 
ATOM     17 CL   UNL     1       0.791  14.596  22.116  0.00  0.00    +0.000 Cl
ENDBRANCH   6  10
BRANCH   1  20
ATOM     18  O   UNL     1       1.370   5.979  20.771  0.00  0.00    +0.000 OA
ATOM     19  C   UNL     1       2.215   6.286  19.935  0.00  0.00    +0.000 C 
ATOM     20  N   UNL     1       2.343   7.522  19.335  0.00  0.00    +0.000 N 
ATOM     21  H   UNL     1       3.011   7.601  18.575  0.00  0.00    +0.000 HD
BRANCH  19  22
ATOM     22  C   UNL     1       3.191   5.224  19.537  0.00  0.00    +0.000 A 
ATOM     23  C   UNL     1       4.169   5.620  18.595  0.00  0.00    +0.000 A 
ATOM     24  C   UNL     1       5.169   4.736  18.165  0.00  0.00    +0.000 A 
ATOM     25  C   UNL     1       5.193   3.440  18.689  0.00  0.00    +0.000 A 
ATOM     26  C   UNL     1       4.232   3.040  19.623  0.00  0.00    +0.000 A 
ATOM     27  C   UNL     1       3.233   3.923  20.052  0.00  0.00    +0.000 A 
ATOM     28 CL   UNL     1       2.140   3.313  21.242  0.00  0.00    +0.000 Cl
BRANCH  24  29
ATOM     29  N   UNL     1       6.146   5.154  17.219  0.00  0.00    +0.000 N 
ATOM     30  C   UNL     1       6.619   4.472  16.124  0.00  0.00    +0.000 A 
ATOM     31  N   UNL     1       7.526   5.184  15.494  0.00  0.00    +0.000 NA
ATOM     32  N   UNL     1       7.667   6.366  16.171  0.00  0.00    +0.000 NA
ATOM     33  C   UNL     1       6.843   6.337  17.192  0.00  0.00    +0.000 A 
ENDBRANCH  24  29
ENDBRANCH  19  22
ENDBRANCH   1  20
TORSDOF 4
ENDMDL
MODEL 2
REMARK VINA RESULT:      -9.3      1.625      1.799
REMARK  Name = 
REMARK  4 active torsions:
REMARK  status: ('A' for Active; 'I' for Inactive)
REMARK    1  A    between atoms: C_2  and  C_21
REMARK    2  A    between atoms: N_3  and  C_4
REMARK    3  A    between atoms: C_9  and  C_10
REMARK    4  A    between atoms: C_23  and  N_24
REMARK                            x       y       z     vdW  Elec       q    Type
REMARK                         _______ _______ _______ _____ _____    ______ ____
ROOT
ATOM      1  C   UNL     1       1.515   9.427  18.674  0.00  0.00    +0.000 A 
ATOM      2  C   UNL     1       1.988  10.657  18.190  0.00  0.00    +0.000 A 
ATOM      3  C   UNL     1       1.509  11.884  18.672  0.00  0.00    +0.000 A 
ATOM      4  C   UNL     1       0.545  11.799  19.663  0.00  0.00    +0.000 A 
ATOM      5  O   UNL     1      -0.051  12.827  20.334  0.00  0.00    +0.000 OA
ATOM      6  C   UNL     1      -0.895  12.199  21.219  0.00  0.00    +0.000 A 
ATOM      7  N   UNL     1      -0.899  10.881  21.124  0.00  0.00    +0.000 NA
ATOM      8  C   UNL     1       0.028  10.616  20.151  0.00  0.00    +0.000 A 
ATOM      9  C   UNL     1       0.493   9.397  19.639  0.00  0.00    +0.000 A 
ENDROOT
BRANCH   6  10
ATOM     10  C   UNL     1      -1.669  13.069  22.101  0.00  0.00    +0.000 A 
ATOM     11  C   UNL     1      -1.058  13.612  23.248  0.00  0.00    +0.000 A 
ATOM     12  C   UNL     1      -1.739  14.512  24.073  0.00  0.00    +0.000 A 
ATOM     13  C   UNL     1      -3.045  14.876  23.764  0.00  0.00    +0.000 A 
ATOM     14 CL   UNL     1      -3.874  16.010  24.757  0.00  0.00    +0.000 Cl
ATOM     15  C   UNL     1      -3.684  14.329  22.657  0.00  0.00    +0.000 A 
ATOM     16  C   UNL     1      -3.004  13.426  21.831  0.00  0.00    +0.000 A 
ATOM     17 CL   UNL     1      -3.911  12.763  20.513  0.00  0.00    +0.000 Cl
ENDBRANCH   6  10
BRANCH   1  20
ATOM     18  O   UNL     1       2.402   7.147  20.305  0.00  0.00    +0.000 OA
ATOM     19  C   UNL     1       2.408   7.134  19.077  0.00  0.00    +0.000 C 
ATOM     20  N   UNL     1       2.033   8.180  18.259  0.00  0.00    +0.000 N 
ATOM     21  H   UNL     1       1.975   7.991  17.263  0.00  0.00    +0.000 HD
BRANCH  19  22
ATOM     22  C   UNL     1       2.864   5.872  18.416  0.00  0.00    +0.000 A 
ATOM     23  C   UNL     1       3.959   6.011  17.532  0.00  0.00    +0.000 A 
ATOM     24  C   UNL     1       4.515   4.903  16.876  0.00  0.00    +0.000 A 
ATOM     25  C   UNL     1       3.968   3.638  17.112  0.00  0.00    +0.000 A 
ATOM     26  C   UNL     1       2.887   3.490  17.987  0.00  0.00    +0.000 A 
ATOM     27  C   UNL     1       2.333   4.596  18.641  0.00  0.00    +0.000 A 
ATOM     28 CL   UNL     1       1.032   4.264  19.728  0.00  0.00    +0.000 Cl
BRANCH  24  29
ATOM     29  N   UNL     1       5.618   5.063  15.993  0.00  0.00    +0.000 N 
ATOM     30  C   UNL     1       5.705   4.716  14.667  0.00  0.00    +0.000 A 
ATOM     31  N   UNL     1       6.893   5.015  14.189  0.00  0.00    +0.000 NA
ATOM     32  N   UNL     1       7.619   5.574  15.207  0.00  0.00    +0.000 NA
ATOM     33  C   UNL     1       6.852   5.598  16.272  0.00  0.00    +0.000 A 
ENDBRANCH  24  29
ENDBRANCH  19  22
ENDBRANCH   1  20
TORSDOF 4
ENDMDL
MODEL 3
REMARK VINA RESULT:      -9.2      1.024      1.349
REMARK  Name = 
REMARK  4 active torsions:
REMARK  status: ('A' for Active; 'I' for Inactive)
REMARK    1  A    between atoms: C_2  and  C_21
REMARK    2  A    between atoms: N_3  and  C_4
REMARK    3  A    between atoms: C_9  and  C_10
REMARK    4  A    between atoms: C_23  and  N_24
REMARK                            x       y       z     vdW  Elec       q    Type
REMARK                         _______ _______ _______ _____ _____    ______ ____
ROOT
ATOM      1  C   UNL     1       1.387   8.921  19.511  0.00  0.00    +0.000 A 
ATOM      2  C   UNL     1       0.819   9.647  18.451  0.00  0.00    +0.000 A 
ATOM      3  C   UNL     1       0.109  10.839  18.659  0.00  0.00    +0.000 A 
ATOM      4  C   UNL     1       0.015  11.255  19.976  0.00  0.00    +0.000 A 
ATOM      5  O   UNL     1      -0.572  12.392  20.450  0.00  0.00    +0.000 OA
ATOM      6  C   UNL     1      -0.359  12.334  21.807  0.00  0.00    +0.000 A 
ATOM      7  N   UNL     1       0.271  11.246  22.211  0.00  0.00    +0.000 NA
ATOM      8  C   UNL     1       0.530  10.563  21.053  0.00  0.00    +0.000 A 
ATOM      9  C   UNL     1       1.211   9.357  20.836  0.00  0.00    +0.000 A 
ENDROOT
BRANCH   6  10
ATOM     10  C   UNL     1      -0.875  13.455  22.590  0.00  0.00    +0.000 A 
ATOM     11  C   UNL     1      -0.188  14.684  22.576  0.00  0.00    +0.000 A 
ATOM     12  C   UNL     1      -0.693  15.803  23.246  0.00  0.00    +0.000 A 
ATOM     13  C   UNL     1      -1.890  15.703  23.947  0.00  0.00    +0.000 A 
ATOM     14 CL   UNL     1      -2.532  17.085  24.743  0.00  0.00    +0.000 Cl
ATOM     15  C   UNL     1      -2.572  14.492  24.005  0.00  0.00    +0.000 A 
ATOM     16  C   UNL     1      -2.066  13.371  23.336  0.00  0.00    +0.000 A 
ATOM     17 CL   UNL     1      -2.963  11.901  23.522  0.00  0.00    +0.000 Cl
ENDBRANCH   6  10
BRANCH   1  20
ATOM     18  O   UNL     1       1.321   6.379  20.986  0.00  0.00    +0.000 OA
ATOM     19  C   UNL     1       2.070   6.581  20.035  0.00  0.00    +0.000 C 
ATOM     20  N   UNL     1       2.168   7.759  19.323  0.00  0.00    +0.000 N 
ATOM     21  H   UNL     1       2.743   7.748  18.486  0.00  0.00    +0.000 HD
BRANCH  19  22
ATOM     22  C   UNL     1       2.951   5.448  19.616  0.00  0.00    +0.000 A 
ATOM     23  C   UNL     1       3.987   5.786  18.714  0.00  0.00    +0.000 A 
ATOM     24  C   UNL     1       4.912   4.829  18.271  0.00  0.00    +0.000 A 
ATOM     25  C   UNL     1       4.800   3.517  18.740  0.00  0.00    +0.000 A 
ATOM     26  C   UNL     1       3.781   3.174  19.634  0.00  0.00    +0.000 A 
ATOM     27  C   UNL     1       2.858   4.129  20.076  0.00  0.00    +0.000 A 
ATOM     28 CL   UNL     1       1.680   3.579  21.215  0.00  0.00    +0.000 Cl
BRANCH  24  29
ATOM     29  N   UNL     1       5.949   5.189  17.366  0.00  0.00    +0.000 N 
ATOM     30  C   UNL     1       6.593   4.395  16.449  0.00  0.00    +0.000 A 
ATOM     31  N   UNL     1       7.502   5.088  15.798  0.00  0.00    +0.000 NA
ATOM     32  N   UNL     1       7.471   6.368  16.281  0.00  0.00    +0.000 NA
ATOM     33  C   UNL     1       6.544   6.417  17.210  0.00  0.00    +0.000 A 
ENDBRANCH  24  29
ENDBRANCH  19  22
ENDBRANCH   1  20
TORSDOF 4
ENDMDL
MODEL 4
REMARK VINA RESULT:      -9.1      1.923      2.325
REMARK  Name = 
REMARK  4 active torsions:
REMARK  status: ('A' for Active; 'I' for Inactive)
REMARK    1  A    between atoms: C_2  and  C_21
REMARK    2  A    between atoms: N_3  and  C_4
REMARK    3  A    between atoms: C_9  and  C_10
REMARK    4  A    between atoms: C_23  and  N_24
REMARK                            x       y       z     vdW  Elec       q    Type
REMARK                         _______ _______ _______ _____ _____    ______ ____
ROOT
ATOM      1  C   UNL     1       1.367   8.463  20.448  0.00  0.00    +0.000 A 
ATOM      2  C   UNL     1       1.475   8.462  21.848  0.00  0.00    +0.000 A 
ATOM      3  C   UNL     1       0.814   9.405  22.649  0.00  0.00    +0.000 A 
ATOM      4  C   UNL     1       0.041  10.329  21.966  0.00  0.00    +0.000 A 
ATOM      5  O   UNL     1      -0.737  11.317  22.496  0.00  0.00    +0.000 OA
ATOM      6  C   UNL     1      -1.304  11.917  21.397  0.00  0.00    +0.000 A 
ATOM      7  N   UNL     1      -0.914  11.412  20.240  0.00  0.00    +0.000 NA
ATOM      8  C   UNL     1      -0.074  10.389  20.592  0.00  0.00    +0.000 A 
ATOM      9  C   UNL     1       0.617   9.460  19.801  0.00  0.00    +0.000 A 
ENDROOT
BRANCH   6  10
ATOM     10  C   UNL     1      -2.221  13.024  21.666  0.00  0.00    +0.000 A 
ATOM     11  C   UNL     1      -1.978  13.873  22.763  0.00  0.00    +0.000 A 
ATOM     12  C   UNL     1      -2.783  14.989  23.006  0.00  0.00    +0.000 A 
ATOM     13  C   UNL     1      -3.850  15.266  22.157  0.00  0.00    +0.000 A 
ATOM     14 CL   UNL     1      -4.822  16.658  22.432  0.00  0.00    +0.000 Cl
ATOM     15  C   UNL     1      -4.132  14.426  21.086  0.00  0.00    +0.000 A 
ATOM     16  C   UNL     1      -3.327  13.306  20.842  0.00  0.00    +0.000 A 
ATOM     17 CL   UNL     1      -3.801  12.296  19.518  0.00  0.00    +0.000 Cl
ENDBRANCH   6  10
BRANCH   1  20
ATOM     18  O   UNL     1       1.671   5.577  20.921  0.00  0.00    +0.000 OA
ATOM     19  C   UNL     1       2.050   6.130  19.892  0.00  0.00    +0.000 C 
ATOM     20  N   UNL     1       1.962   7.481  19.625  0.00  0.00    +0.000 N 
ATOM     21  H   UNL     1       2.205   7.784  18.687  0.00  0.00    +0.000 HD
BRANCH  19  22
ATOM     22  C   UNL     1       2.661   5.259  18.842  0.00  0.00    +0.000 A 
ATOM     23  C   UNL     1       3.874   5.733  18.289  0.00  0.00    +0.000 A 
ATOM     24  C   UNL     1       4.575   4.995  17.324  0.00  0.00    +0.000 A 
ATOM     25  C   UNL     1       4.056   3.765  16.909  0.00  0.00    +0.000 A 
ATOM     26  C   UNL     1       2.859   3.287  17.451  0.00  0.00    +0.000 A 
ATOM     27  C   UNL     1       2.159   4.023  18.415  0.00  0.00    +0.000 A 
ATOM     28 CL   UNL     1       0.720   3.294  19.032  0.00  0.00    +0.000 Cl
BRANCH  24  29
ATOM     29  N   UNL     1       5.795   5.487  16.783  0.00  0.00    +0.000 N 
ATOM     30  C   UNL     1       6.536   6.568  17.195  0.00  0.00    +0.000 A 
ATOM     31  N   UNL     1       7.602   6.711  16.439  0.00  0.00    +0.000 NA
ATOM     32  N   UNL     1       7.582   5.712  15.504  0.00  0.00    +0.000 NA
ATOM     33  C   UNL     1       6.506   4.991  15.718  0.00  0.00    +0.000 A 
ENDBRANCH  24  29
ENDBRANCH  19  22
ENDBRANCH   1  20
TORSDOF 4
ENDMDL
MODEL 5
REMARK VINA RESULT:      -9.1      1.720      1.959
REMARK  Name = 
REMARK  4 active torsions:
REMARK  status: ('A' for Active; 'I' for Inactive)
REMARK    1  A    between atoms: C_2  and  C_21
REMARK    2  A    between atoms: N_3  and  C_4
REMARK    3  A    between atoms: C_9  and  C_10
REMARK    4  A    between atoms: C_23  and  N_24
REMARK                            x       y       z     vdW  Elec       q    Type
REMARK                         _______ _______ _______ _____ _____    ______ ____
ROOT
ATOM      1  C   UNL     1       1.469   8.427  20.264  0.00  0.00    +0.000 A 
ATOM      2  C   UNL     1       1.440   8.462  21.668  0.00  0.00    +0.000 A 
ATOM      3  C   UNL     1       0.749   9.456  22.376  0.00  0.00    +0.000 A 
ATOM      4  C   UNL     1       0.090  10.394  21.597  0.00  0.00    +0.000 A 
ATOM      5  O   UNL     1      -0.688  11.430  22.023  0.00  0.00    +0.000 OA
ATOM      6  C   UNL     1      -1.117  12.022  20.859  0.00  0.00    +0.000 A 
ATOM      7  N   UNL     1      -0.641  11.466  19.759  0.00  0.00    +0.000 NA
ATOM      8  C   UNL     1       0.113  10.418  20.218  0.00  0.00    +0.000 A 
ATOM      9  C   UNL     1       0.833   9.437  19.522  0.00  0.00    +0.000 A 
ENDROOT
BRANCH   6  10
ATOM     10  C   UNL     1      -2.003  13.175  21.009  0.00  0.00    +0.000 A 
ATOM     11  C   UNL     1      -3.392  13.007  20.848  0.00  0.00    +0.000 A 
ATOM     12  C   UNL     1      -4.278  14.066  21.063  0.00  0.00    +0.000 A 
ATOM     13  C   UNL     1      -3.784  15.312  21.434  0.00  0.00    +0.000 A 
ATOM     14 CL   UNL     1      -4.874  16.609  21.734  0.00  0.00    +0.000 Cl
ATOM     15  C   UNL     1      -2.415  15.515  21.567  0.00  0.00    +0.000 A 
ATOM     16  C   UNL     1      -1.526  14.454  21.351  0.00  0.00    +0.000 A 
ATOM     17 CL   UNL     1       0.159  14.830  21.487  0.00  0.00    +0.000 Cl
ENDBRANCH   6  10
BRANCH   1  20
ATOM     18  O   UNL     1       1.472   5.529  20.759  0.00  0.00    +0.000 OA
ATOM     19  C   UNL     1       2.036   6.044  19.798  0.00  0.00    +0.000 C 
ATOM     20  N   UNL     1       2.095   7.396  19.528  0.00  0.00    +0.000 N 
ATOM     21  H   UNL     1       2.493   7.673  18.636  0.00  0.00    +0.000 HD
BRANCH  19  22
ATOM     22  C   UNL     1       2.718   5.121  18.839  0.00  0.00    +0.000 A 
ATOM     23  C   UNL     1       3.896   5.627  18.242  0.00  0.00    +0.000 A 
ATOM     24  C   UNL     1       4.658   4.853  17.355  0.00  0.00    +0.000 A 
ATOM     25  C   UNL     1       4.236   3.551  17.065  0.00  0.00    +0.000 A 
ATOM     26  C   UNL     1       3.075   3.040  17.653  0.00  0.00    +0.000 A 
ATOM     27  C   UNL     1       2.314   3.814  18.538  0.00  0.00    +0.000 A 
ATOM     28 CL   UNL     1       0.930   3.043  19.227  0.00  0.00    +0.000 Cl
BRANCH  24  29
ATOM     29  N   UNL     1       5.841   5.379  16.767  0.00  0.00    +0.000 N 
ATOM     30  C   UNL     1       6.501   4.943  15.643  0.00  0.00    +0.000 A 
ATOM     31  N   UNL     1       7.564   5.682  15.418  0.00  0.00    +0.000 NA
ATOM     32  N   UNL     1       7.624   6.632  16.403  0.00  0.00    +0.000 NA
ATOM     33  C   UNL     1       6.596   6.443  17.197  0.00  0.00    +0.000 A 
ENDBRANCH  24  29
ENDBRANCH  19  22
ENDBRANCH   1  20
TORSDOF 4
ENDMDL
MODEL 6
REMARK VINA RESULT:      -8.9      1.622      2.075
REMARK  Name = 
REMARK  4 active torsions:
REMARK  status: ('A' for Active; 'I' for Inactive)
REMARK    1  A    between atoms: C_2  and  C_21
REMARK    2  A    between atoms: N_3  and  C_4
REMARK    3  A    between atoms: C_9  and  C_10
REMARK    4  A    between atoms: C_23  and  N_24
REMARK                            x       y       z     vdW  Elec       q    Type
REMARK                         _______ _______ _______ _____ _____    ______ ____
ROOT
ATOM      1  C   UNL     1       0.715   9.406  19.882  0.00  0.00    +0.000 A 
ATOM      2  C   UNL     1       0.121  10.171  18.865  0.00  0.00    +0.000 A 
ATOM      3  C   UNL     1      -0.561  11.367  19.132  0.00  0.00    +0.000 A 
ATOM      4  C   UNL     1      -0.602  11.745  20.463  0.00  0.00    +0.000 A 
ATOM      5  O   UNL     1      -1.154  12.876  20.990  0.00  0.00    +0.000 OA
ATOM      6  C   UNL     1      -0.895  12.775  22.337  0.00  0.00    +0.000 A 
ATOM      7  N   UNL     1      -0.268  11.666  22.687  0.00  0.00    +0.000 NA
ATOM      8  C   UNL     1      -0.061  11.014  21.501  0.00  0.00    +0.000 A 
ATOM      9  C   UNL     1       0.593   9.804  21.224  0.00  0.00    +0.000 A 
ENDROOT
BRANCH   6  10
ATOM     10  C   UNL     1      -1.365  13.879  23.170  0.00  0.00    +0.000 A 
ATOM     11  C   UNL     1      -0.612  15.068  23.234  0.00  0.00    +0.000 A 
ATOM     12  C   UNL     1      -1.069  16.175  23.955  0.00  0.00    +0.000 A 
ATOM     13  C   UNL     1      -2.284  16.105  24.628  0.00  0.00    +0.000 A 
ATOM     14 CL   UNL     1      -2.866  17.477  25.486  0.00  0.00    +0.000 Cl
ATOM     15  C   UNL     1      -3.031  14.932  24.609  0.00  0.00    +0.000 A 
ATOM     16  C   UNL     1      -2.574  13.822  23.889  0.00  0.00    +0.000 A 
ATOM     17 CL   UNL     1      -3.553  12.396  23.979  0.00  0.00    +0.000 Cl
ENDBRANCH   6  10
BRANCH   1  20
ATOM     18  O   UNL     1       2.261   8.669  17.492  0.00  0.00    +0.000 OA
ATOM     19  C   UNL     1       2.200   7.962  18.494  0.00  0.00    +0.000 C 
ATOM     20  N   UNL     1       1.470   8.238  19.632  0.00  0.00    +0.000 N 
ATOM     21  H   UNL     1       1.605   7.624  20.429  0.00  0.00    +0.000 HD
BRANCH  19  22
ATOM     22  C   UNL     1       2.987   6.690  18.473  0.00  0.00    +0.000 A 
ATOM     23  C   UNL     1       3.953   6.590  17.445  0.00  0.00    +0.000 A 
ATOM     24  C   UNL     1       4.788   5.469  17.333  0.00  0.00    +0.000 A 
ATOM     25  C   UNL     1       4.657   4.435  18.266  0.00  0.00    +0.000 A 
ATOM     26  C   UNL     1       3.706   4.527  19.288  0.00  0.00    +0.000 A 
ATOM     27  C   UNL     1       2.872   5.646  19.399  0.00  0.00    +0.000 A 
ATOM     28 CL   UNL     1       1.776   5.648  20.734  0.00  0.00    +0.000 Cl
BRANCH  24  29
ATOM     29  N   UNL     1       5.756   5.388  16.294  0.00  0.00    +0.000 N 
ATOM     30  C   UNL     1       7.084   5.737  16.337  0.00  0.00    +0.000 A 
ATOM     31  N   UNL     1       7.654   5.524  15.172  0.00  0.00    +0.000 NA
ATOM     32  N   UNL     1       6.699   5.023  14.330  0.00  0.00    +0.000 NA
ATOM     33  C   UNL     1       5.577   4.945  15.006  0.00  0.00    +0.000 A 
ENDBRANCH  24  29
ENDBRANCH  19  22
ENDBRANCH   1  20
TORSDOF 4
ENDMDL
MODEL 7
REMARK VINA RESULT:      -8.9      1.899      2.373
REMARK  Name = 
REMARK  4 active torsions:
REMARK  status: ('A' for Active; 'I' for Inactive)
REMARK    1  A    between atoms: C_2  and  C_21
REMARK    2  A    between atoms: N_3  and  C_4
REMARK    3  A    between atoms: C_9  and  C_10
REMARK    4  A    between atoms: C_23  and  N_24
REMARK                            x       y       z     vdW  Elec       q    Type
REMARK                         _______ _______ _______ _____ _____    ______ ____
ROOT
ATOM      1  C   UNL     1       1.561   8.419  20.249  0.00  0.00    +0.000 A 
ATOM      2  C   UNL     1       1.470   8.382  21.649  0.00  0.00    +0.000 A 
ATOM      3  C   UNL     1       0.851   9.403  22.385  0.00  0.00    +0.000 A 
ATOM      4  C   UNL     1       0.328  10.444  21.636  0.00  0.00    +0.000 A 
ATOM      5  O   UNL     1      -0.361  11.531  22.089  0.00  0.00    +0.000 OA
ATOM      6  C   UNL     1      -0.672  12.226  20.944  0.00  0.00    +0.000 A 
ATOM      7  N   UNL     1      -0.203  11.684  19.835  0.00  0.00    +0.000 NA
ATOM      8  C   UNL     1       0.418  10.541  20.262  0.00  0.00    +0.000 A 
ATOM      9  C   UNL     1       1.067   9.528  19.541  0.00  0.00    +0.000 A 
ENDROOT
BRANCH   6  10
ATOM     10  C   UNL     1      -1.442  13.455  21.124  0.00  0.00    +0.000 A 
ATOM     11  C   UNL     1      -1.061  14.619  20.428  0.00  0.00    +0.000 A 
ATOM     12  C   UNL     1      -1.818  15.791  20.510  0.00  0.00    +0.000 A 
ATOM     13  C   UNL     1      -2.965  15.816  21.297  0.00  0.00    +0.000 A 
ATOM     14 CL   UNL     1      -3.919  17.246  21.373  0.00  0.00    +0.000 Cl
ATOM     15  C   UNL     1      -3.346  14.692  22.021  0.00  0.00    +0.000 A 
ATOM     16  C   UNL     1      -2.587  13.518  21.941  0.00  0.00    +0.000 A 
ATOM     17 CL   UNL     1      -3.117  12.196  22.926  0.00  0.00    +0.000 Cl
ENDBRANCH   6  10
BRANCH   1  20
ATOM     18  O   UNL     1       1.645   5.538  20.826  0.00  0.00    +0.000 OA
ATOM     19  C   UNL     1       2.097   6.026  19.795  0.00  0.00    +0.000 C 
ATOM     20  N   UNL     1       2.114   7.370  19.480  0.00  0.00    +0.000 N 
ATOM     21  H   UNL     1       2.411   7.623  18.543  0.00  0.00    +0.000 HD
BRANCH  19  22
ATOM     22  C   UNL     1       2.681   5.079  18.796  0.00  0.00    +0.000 A 
ATOM     23  C   UNL     1       3.855   5.527  18.147  0.00  0.00    +0.000 A 
ATOM     24  C   UNL     1       4.529   4.722  17.218  0.00  0.00    +0.000 A 
ATOM     25  C   UNL     1       4.023   3.449  16.937  0.00  0.00    +0.000 A 
ATOM     26  C   UNL     1       2.864   2.996  17.576  0.00  0.00    +0.000 A 
ATOM     27  C   UNL     1       2.191   3.800  18.504  0.00  0.00    +0.000 A 
ATOM     28 CL   UNL     1       0.800   3.098  19.251  0.00  0.00    +0.000 Cl
BRANCH  24  29
ATOM     29  N   UNL     1       5.710   5.189  16.578  0.00  0.00    +0.000 N 
ATOM     30  C   UNL     1       6.595   6.146  17.014  0.00  0.00    +0.000 A 
ATOM     31  N   UNL     1       7.564   6.309  16.141  0.00  0.00    +0.000 NA
ATOM     32  N   UNL     1       7.333   5.450  15.101  0.00  0.00    +0.000 NA
ATOM     33  C   UNL     1       6.231   4.789  15.371  0.00  0.00    +0.000 A 
ENDBRANCH  24  29
ENDBRANCH  19  22
ENDBRANCH   1  20
TORSDOF 4
ENDMDL
MODEL 8
REMARK VINA RESULT:      -8.9      1.137      1.468
REMARK  Name = 
REMARK  4 active torsions:
REMARK  status: ('A' for Active; 'I' for Inactive)
REMARK    1  A    between atoms: C_2  and  C_21
REMARK    2  A    between atoms: N_3  and  C_4
REMARK    3  A    between atoms: C_9  and  C_10
REMARK    4  A    between atoms: C_23  and  N_24
REMARK                            x       y       z     vdW  Elec       q    Type
REMARK                         _______ _______ _______ _____ _____    ______ ____
ROOT
ATOM      1  C   UNL     1       1.356   8.958  19.484  0.00  0.00    +0.000 A 
ATOM      2  C   UNL     1       1.145   9.886  18.451  0.00  0.00    +0.000 A 
ATOM      3  C   UNL     1       0.398  11.058  18.641  0.00  0.00    +0.000 A 
ATOM      4  C   UNL     1      -0.108  11.242  19.917  0.00  0.00    +0.000 A 
ATOM      5  O   UNL     1      -0.823  12.307  20.383  0.00  0.00    +0.000 OA
ATOM      6  C   UNL     1      -1.047  12.002  21.704  0.00  0.00    +0.000 A 
ATOM      7  N   UNL     1      -0.569  10.829  22.080  0.00  0.00    +0.000 NA
ATOM      8  C   UNL     1       0.046  10.347  20.955  0.00  0.00    +0.000 A 
ATOM      9  C   UNL     1       0.769   9.164  20.745  0.00  0.00    +0.000 A 
ENDROOT
BRANCH   6  10
ATOM     10  C   UNL     1      -1.792  12.993  22.479  0.00  0.00    +0.000 A 
ATOM     11  C   UNL     1      -1.148  13.678  23.528  0.00  0.00    +0.000 A 
ATOM     12  C   UNL     1      -1.800  14.689  24.239  0.00  0.00    +0.000 A 
ATOM     13  C   UNL     1      -3.110  15.025  23.913  0.00  0.00    +0.000 A 
ATOM     14 CL   UNL     1      -3.903  16.294  24.761  0.00  0.00    +0.000 Cl
ATOM     15  C   UNL     1      -3.780  14.343  22.904  0.00  0.00    +0.000 A 
ATOM     16  C   UNL     1      -3.128  13.328  22.192  0.00  0.00    +0.000 A 
ATOM     17 CL   UNL     1      -4.073  12.506  20.996  0.00  0.00    +0.000 Cl
ENDBRANCH   6  10
BRANCH   1  20
ATOM     18  O   UNL     1       1.235   6.408  20.940  0.00  0.00    +0.000 OA
ATOM     19  C   UNL     1       2.039   6.625  20.039  0.00  0.00    +0.000 C 
ATOM     20  N   UNL     1       2.164   7.809  19.340  0.00  0.00    +0.000 N 
ATOM     21  H   UNL     1       2.790   7.811  18.540  0.00  0.00    +0.000 HD
BRANCH  19  22
ATOM     22  C   UNL     1       2.962   5.508  19.670  0.00  0.00    +0.000 A 
ATOM     23  C   UNL     1       3.997   5.847  18.769  0.00  0.00    +0.000 A 
ATOM     24  C   UNL     1       4.958   4.906  18.371  0.00  0.00    +0.000 A 
ATOM     25  C   UNL     1       4.883   3.608  18.885  0.00  0.00    +0.000 A 
ATOM     26  C   UNL     1       3.864   3.264  19.780  0.00  0.00    +0.000 A 
ATOM     27  C   UNL     1       2.905   4.204  20.177  0.00  0.00    +0.000 A 
ATOM     28 CL   UNL     1       1.732   3.656  21.320  0.00  0.00    +0.000 Cl
BRANCH  24  29
ATOM     29  N   UNL     1       5.994   5.268  17.465  0.00  0.00    +0.000 N 
ATOM     30  C   UNL     1       6.603   6.489  17.310  0.00  0.00    +0.000 A 
ATOM     31  N   UNL     1       7.513   6.434  16.364  0.00  0.00    +0.000 NA
ATOM     32  N   UNL     1       7.522   5.156  15.873  0.00  0.00    +0.000 NA
ATOM     33  C   UNL     1       6.617   4.472  16.535  0.00  0.00    +0.000 A 
ENDBRANCH  24  29
ENDBRANCH  19  22
ENDBRANCH   1  20
TORSDOF 4
ENDMDL
MODEL 9
REMARK VINA RESULT:      -8.9      1.789      1.983
REMARK  Name = 
REMARK  4 active torsions:
REMARK  status: ('A' for Active; 'I' for Inactive)
REMARK    1  A    between atoms: C_2  and  C_21
REMARK    2  A    between atoms: N_3  and  C_4
REMARK    3  A    between atoms: C_9  and  C_10
REMARK    4  A    between atoms: C_23  and  N_24
REMARK                            x       y       z     vdW  Elec       q    Type
REMARK                         _______ _______ _______ _____ _____    ______ ____
ROOT
ATOM      1  C   UNL     1       1.468   9.574  18.466  0.00  0.00    +0.000 A 
ATOM      2  C   UNL     1       2.131  10.785  18.211  0.00  0.00    +0.000 A 
ATOM      3  C   UNL     1       1.598  12.024  18.598  0.00  0.00    +0.000 A 
ATOM      4  C   UNL     1       0.381  11.970  19.256  0.00  0.00    +0.000 A 
ATOM      5  O   UNL     1      -0.330  13.011  19.777  0.00  0.00    +0.000 OA
ATOM      6  C   UNL     1      -1.432  12.411  20.338  0.00  0.00    +0.000 A 
ATOM      7  N   UNL     1      -1.481  11.101  20.174  0.00  0.00    +0.000 NA
ATOM      8  C   UNL     1      -0.323  10.809  19.503  0.00  0.00    +0.000 A 
ATOM      9  C   UNL     1       0.205   9.579  19.084  0.00  0.00    +0.000 A 
ENDROOT
BRANCH   6  10
ATOM     10  C   UNL     1      -2.384  13.300  21.001  0.00  0.00    +0.000 A 
ATOM     11  C   UNL     1      -3.709  13.371  20.529  0.00  0.00    +0.000 A 
ATOM     12  C   UNL     1      -4.670  14.147  21.184  0.00  0.00    +0.000 A 
ATOM     13  C   UNL     1      -4.315  14.869  22.319  0.00  0.00    +0.000 A 
ATOM     14 CL   UNL     1      -5.502  15.796  23.149  0.00  0.00    +0.000 Cl
ATOM     15  C   UNL     1      -3.006  14.842  22.788  0.00  0.00    +0.000 A 
ATOM     16  C   UNL     1      -2.042  14.067  22.131  0.00  0.00    +0.000 A 
ATOM     17 CL   UNL     1      -0.432  14.151  22.764  0.00  0.00    +0.000 Cl
ENDBRANCH   6  10
BRANCH   1  20
ATOM     18  O   UNL     1       2.208   7.372  20.267  0.00  0.00    +0.000 OA
ATOM     19  C   UNL     1       2.318   7.303  19.047  0.00  0.00    +0.000 C 
ATOM     20  N   UNL     1       2.016   8.310  18.153  0.00  0.00    +0.000 N 
ATOM     21  H   UNL     1       2.042   8.076  17.165  0.00  0.00    +0.000 HD
BRANCH  19  22
ATOM     22  C   UNL     1       2.825   6.013  18.485  0.00  0.00    +0.000 A 
ATOM     23  C   UNL     1       3.912   6.127  17.587  0.00  0.00    +0.000 A 
ATOM     24  C   UNL     1       4.512   4.995  17.017  0.00  0.00    +0.000 A 
ATOM     25  C   UNL     1       4.020   3.730  17.354  0.00  0.00    +0.000 A 
ATOM     26  C   UNL     1       2.947   3.607  18.243  0.00  0.00    +0.000 A 
ATOM     27  C   UNL     1       2.348   4.738  18.812  0.00  0.00    +0.000 A 
ATOM     28 CL   UNL     1       1.064   4.438  19.928  0.00  0.00    +0.000 Cl
BRANCH  24  29
ATOM     29  N   UNL     1       5.606   5.131  16.118  0.00  0.00    +0.000 N 
ATOM     30  C   UNL     1       6.868   5.609  16.377  0.00  0.00    +0.000 A 
ATOM     31  N   UNL     1       7.602   5.587  15.287  0.00  0.00    +0.000 NA
ATOM     32  N   UNL     1       6.826   5.084  14.277  0.00  0.00    +0.000 NA
ATOM     33  C   UNL     1       5.645   4.816  14.782  0.00  0.00    +0.000 A 
ENDBRANCH  24  29
ENDBRANCH  19  22
ENDBRANCH   1  20
TORSDOF 4
ENDMDL
