MODEL 1
REMARK VINA RESULT:      -6.4      0.000      0.000
REMARK  Name = 
REMARK  9 active torsions:
REMARK  status: ('A' for Active; 'I' for Inactive)
REMARK    1  A    between atoms: C_1  and  O_2
REMARK    2  A    between atoms: O_2  and  C_3
REMARK    3  A    between atoms: C_6  and  C_7
REMARK    4  A    between atoms: C_8  and  C_9
REMARK    5  A    between atoms: C_10  and  C_11
REMARK    6  A    between atoms: C_18  and  C_19
REMARK    7  A    between atoms: C_22  and  O_23
REMARK    8  A    between atoms: O_23  and  C_24
REMARK    9  A    between atoms: N_31  and  C_32
REMARK                            x       y       z     vdW  Elec       q    Type
REMARK                         _______ _______ _______ _____ _____    ______ ____
ROOT
ATOM      1  C   UNL     1       0.004  13.163  19.026  0.00  0.00    +0.000 A 
ATOM      2  C   UNL     1       1.251  12.613  18.772  0.00  0.00    +0.000 A 
ATOM      3  C   UNL     1       1.137  11.231  18.550  0.00  0.00    +0.000 A 
ATOM      4  C   UNL     1       2.085  10.197  18.440  0.00  0.00    +0.000 A 
ATOM      5  C   UNL     1       1.714   8.915  18.027  0.00  0.00    +0.000 A 
ATOM      6  C   UNL     1       0.377   8.743  17.630  0.00  0.00    +0.000 A 
ATOM      7  C   UNL     1      -0.609   9.749  17.796  0.00  0.00    +0.000 A 
ATOM      8  C   UNL     1      -0.211  10.985  18.335  0.00  0.00    +0.000 A 
ATOM      9  N   UNL     1      -0.894  12.125  18.765  0.00  0.00    +0.000 N 
ATOM     10  C   UNL     1      -2.310  12.146  19.071  0.00  0.00    +0.000 C 
ENDROOT
BRANCH   5  11
ATOM     11  C   UNL     1       2.716   7.823  18.044  0.00  0.00    +0.000 A 
ATOM     12  C   UNL     1       3.730   7.717  17.083  0.00  0.00    +0.000 A 
ATOM     13  C   UNL     1       4.648   6.653  17.109  0.00  0.00    +0.000 A 
ATOM     14  C   UNL     1       4.586   5.664  18.096  0.00  0.00    +0.000 A 
ATOM     15  C   UNL     1       3.596   5.773  19.068  0.00  0.00    +0.000 A 
ATOM     16  F   UNL     1       3.477   4.873  20.054  0.00  0.00    +0.000 F 
ATOM     17  C   UNL     1       2.680   6.830  19.044  0.00  0.00    +0.000 A 
BRANCH  14  18
ATOM     18  O   UNL     1       5.537   4.688  17.982  0.00  0.00    +0.000 OA
ATOM     19  C   UNL     1       6.880   5.043  18.291  0.00  0.00    +0.000 C 
ENDBRANCH  14  18
ENDBRANCH   5  11
BRANCH   1  23
ATOM     20  C   UNL     1      -0.505  17.135  20.674  0.00  0.00    +0.000 A 
ATOM     21  C   UNL     1      -0.438  16.968  19.287  0.00  0.00    +0.000 A 
ATOM     22  C   UNL     1      -0.311  15.687  18.708  0.00  0.00    +0.000 A 
ATOM     23  C   UNL     1      -0.267  14.544  19.510  0.00  0.00    +0.000 A 
ATOM     24  C   UNL     1      -0.390  14.741  20.900  0.00  0.00    +0.000 A 
ATOM     25  C   UNL     1      -0.470  16.009  21.480  0.00  0.00    +0.000 A 
BRANCH  20  27
ATOM     26  C   UNL     1      -0.104  18.630  22.465  0.00  0.00    +0.000 C 
ATOM     27  O   UNL     1      -0.575  18.422  21.133  0.00  0.00    +0.000 OA
ENDBRANCH  20  27
ENDBRANCH   1  23
BRANCH   2  28
ATOM     28  C   UNL     1       2.496  13.303  18.695  0.00  0.00    +0.000 C 
ATOM     29  C   UNL     1       3.495  13.943  18.602  0.00  0.00    +0.000 C 
BRANCH  29  30
ATOM     30  C   UNL     1       4.653  14.768  18.558  0.00  0.00    +0.000 A 
ATOM     31  C   UNL     1       5.840  14.415  17.863  0.00  0.00    +0.000 A 
ATOM     32  C   UNL     1       6.797  15.400  17.955  0.00  0.00    +0.000 A 
ATOM     33  S   UNL     1       6.274  16.720  18.908  0.00  0.00    +0.000 S 
ATOM     34  C   UNL     1       4.755  15.985  19.195  0.00  0.00    +0.000 A 
ENDBRANCH  29  30
ENDBRANCH   2  28
TORSDOF 6
ENDMDL
MODEL 2
REMARK VINA RESULT:      -6.3      1.184      1.661
REMARK  Name = 
REMARK  9 active torsions:
REMARK  status: ('A' for Active; 'I' for Inactive)
REMARK    1  A    between atoms: C_1  and  O_2
REMARK    2  A    between atoms: O_2  and  C_3
REMARK    3  A    between atoms: C_6  and  C_7
REMARK    4  A    between atoms: C_8  and  C_9
REMARK    5  A    between atoms: C_10  and  C_11
REMARK    6  A    between atoms: C_18  and  C_19
REMARK    7  A    between atoms: C_22  and  O_23
REMARK    8  A    between atoms: O_23  and  C_24
REMARK    9  A    between atoms: N_31  and  C_32
REMARK                            x       y       z     vdW  Elec       q    Type
REMARK                         _______ _______ _______ _____ _____    ______ ____
ROOT
ATOM      1  C   UNL     1      -0.297  13.401  19.331  0.00  0.00    +0.000 A 
ATOM      2  C   UNL     1       0.950  12.842  19.096  0.00  0.00    +0.000 A 
ATOM      3  C   UNL     1       0.825  11.471  18.819  0.00  0.00    +0.000 A 
ATOM      4  C   UNL     1       1.763  10.429  18.701  0.00  0.00    +0.000 A 
ATOM      5  C   UNL     1       1.388   9.168  18.229  0.00  0.00    +0.000 A 
ATOM      6  C   UNL     1       0.062   9.029  17.786  0.00  0.00    +0.000 A 
ATOM      7  C   UNL     1      -0.915  10.042  17.959  0.00  0.00    +0.000 A 
ATOM      8  C   UNL     1      -0.518  11.253  18.554  0.00  0.00    +0.000 A 
ATOM      9  N   UNL     1      -1.200  12.385  19.006  0.00  0.00    +0.000 N 
ATOM     10  C   UNL     1      -2.624  12.415  19.269  0.00  0.00    +0.000 C 
ENDROOT
BRANCH   5  11
ATOM     11  C   UNL     1       2.375   8.062  18.236  0.00  0.00    +0.000 A 
ATOM     12  C   UNL     1       2.406   7.088  19.243  0.00  0.00    +0.000 A 
ATOM     13  C   UNL     1       3.373   6.068  19.238  0.00  0.00    +0.000 A 
ATOM     14  C   UNL     1       4.335   5.984  18.227  0.00  0.00    +0.000 A 
ATOM     15  C   UNL     1       4.299   6.934  17.211  0.00  0.00    +0.000 A 
ATOM     16  F   UNL     1       5.179   6.917  16.200  0.00  0.00    +0.000 F 
ATOM     17  C   UNL     1       3.339   7.951  17.213  0.00  0.00    +0.000 A 
BRANCH  14  18
ATOM     18  O   UNL     1       5.215   4.946  18.366  0.00  0.00    +0.000 OA
ATOM     19  C   UNL     1       4.833   3.875  19.221  0.00  0.00    +0.000 C 
ENDBRANCH  14  18
ENDBRANCH   5  11
BRANCH   1  23
ATOM     20  C   UNL     1      -1.336  17.408  20.599  0.00  0.00    +0.000 A 
ATOM     21  C   UNL     1      -1.250  16.386  21.549  0.00  0.00    +0.000 A 
ATOM     22  C   UNL     1      -0.877  15.075  21.184  0.00  0.00    +0.000 A 
ATOM     23  C   UNL     1      -0.565  14.767  19.857  0.00  0.00    +0.000 A 
ATOM     24  C   UNL     1      -0.610  15.830  18.933  0.00  0.00    +0.000 A 
ATOM     25  C   UNL     1      -1.022  17.118  19.281  0.00  0.00    +0.000 A 
BRANCH  20  27
ATOM     26  C   UNL     1      -2.737  18.602  22.087  0.00  0.00    +0.000 C 
ATOM     27  O   UNL     1      -1.757  18.630  21.050  0.00  0.00    +0.000 OA
ENDBRANCH  20  27
ENDBRANCH   1  23
BRANCH   2  28
ATOM     28  C   UNL     1       2.206  13.517  19.082  0.00  0.00    +0.000 C 
ATOM     29  C   UNL     1       3.289  14.010  19.086  0.00  0.00    +0.000 C 
BRANCH  29  30
ATOM     30  C   UNL     1       4.606  14.543  19.015  0.00  0.00    +0.000 A 
ATOM     31  C   UNL     1       5.391  14.536  17.832  0.00  0.00    +0.000 A 
ATOM     32  C   UNL     1       6.613  15.139  18.026  0.00  0.00    +0.000 A 
ATOM     33  S   UNL     1       6.820  15.672  19.638  0.00  0.00    +0.000 S 
ATOM     34  C   UNL     1       5.266  15.108  20.084  0.00  0.00    +0.000 A 
ENDBRANCH  29  30
ENDBRANCH   2  28
TORSDOF 6
ENDMDL
MODEL 3
REMARK VINA RESULT:      -6.2      0.902      1.062
REMARK  Name = 
REMARK  9 active torsions:
REMARK  status: ('A' for Active; 'I' for Inactive)
REMARK    1  A    between atoms: C_1  and  O_2
REMARK    2  A    between atoms: O_2  and  C_3
REMARK    3  A    between atoms: C_6  and  C_7
REMARK    4  A    between atoms: C_8  and  C_9
REMARK    5  A    between atoms: C_10  and  C_11
REMARK    6  A    between atoms: C_18  and  C_19
REMARK    7  A    between atoms: C_22  and  O_23
REMARK    8  A    between atoms: O_23  and  C_24
REMARK    9  A    between atoms: N_31  and  C_32
REMARK                            x       y       z     vdW  Elec       q    Type
REMARK                         _______ _______ _______ _____ _____    ______ ____
ROOT
ATOM      1  C   UNL     1      -0.503  13.434  19.469  0.00  0.00    +0.000 A 
ATOM      2  C   UNL     1       0.758  12.888  19.282  0.00  0.00    +0.000 A 
ATOM      3  C   UNL     1       0.655  11.528  18.948  0.00  0.00    +0.000 A 
ATOM      4  C   UNL     1       1.602  10.494  18.843  0.00  0.00    +0.000 A 
ATOM      5  C   UNL     1       1.260   9.250  18.304  0.00  0.00    +0.000 A 
ATOM      6  C   UNL     1      -0.039   9.125  17.784  0.00  0.00    +0.000 A 
ATOM      7  C   UNL     1      -1.028  10.128  17.939  0.00  0.00    +0.000 A 
ATOM      8  C   UNL     1      -0.671  11.316  18.601  0.00  0.00    +0.000 A 
ATOM      9  N   UNL     1      -1.381  12.429  19.056  0.00  0.00    +0.000 N 
ATOM     10  C   UNL     1      -2.818  12.446  19.240  0.00  0.00    +0.000 C 
ENDROOT
BRANCH   5  11
ATOM     11  C   UNL     1       2.250   8.147  18.325  0.00  0.00    +0.000 A 
ATOM     12  C   UNL     1       3.276   8.039  17.377  0.00  0.00    +0.000 A 
ATOM     13  C   UNL     1       4.182   6.964  17.406  0.00  0.00    +0.000 A 
ATOM     14  C   UNL     1       4.097   5.968  18.383  0.00  0.00    +0.000 A 
ATOM     15  C   UNL     1       3.094   6.079  19.342  0.00  0.00    +0.000 A 
ATOM     16  F   UNL     1       2.952   5.171  20.319  0.00  0.00    +0.000 F 
ATOM     17  C   UNL     1       2.190   7.145  19.316  0.00  0.00    +0.000 A 
BRANCH  14  18
ATOM     18  O   UNL     1       5.038   4.982  18.273  0.00  0.00    +0.000 OA
ATOM     19  C   UNL     1       6.169   5.059  19.133  0.00  0.00    +0.000 C 
ENDBRANCH  14  18
ENDBRANCH   5  11
BRANCH   1  23
ATOM     20  C   UNL     1      -1.136  17.273  21.367  0.00  0.00    +0.000 A 
ATOM     21  C   UNL     1      -0.907  17.216  19.989  0.00  0.00    +0.000 A 
ATOM     22  C   UNL     1      -0.734  15.983  19.325  0.00  0.00    +0.000 A 
ATOM     23  C   UNL     1      -0.806  14.779  20.030  0.00  0.00    +0.000 A 
ATOM     24  C   UNL     1      -1.090  14.867  21.407  0.00  0.00    +0.000 A 
ATOM     25  C   UNL     1      -1.217  16.086  22.077  0.00  0.00    +0.000 A 
BRANCH  20  27
ATOM     26  C   UNL     1      -2.114  18.631  23.042  0.00  0.00    +0.000 C 
ATOM     27  O   UNL     1      -1.238  18.521  21.920  0.00  0.00    +0.000 OA
ENDBRANCH  20  27
ENDBRANCH   1  23
BRANCH   2  28
ATOM     28  C   UNL     1       2.010  13.566  19.363  0.00  0.00    +0.000 C 
ATOM     29  C   UNL     1       3.082  14.082  19.374  0.00  0.00    +0.000 C 
BRANCH  29  30
ATOM     30  C   UNL     1       4.349  14.725  19.296  0.00  0.00    +0.000 A 
ATOM     31  C   UNL     1       4.967  15.372  20.397  0.00  0.00    +0.000 A 
ATOM     32  C   UNL     1       6.199  15.887  20.060  0.00  0.00    +0.000 A 
ATOM     33  S   UNL     1       6.581  15.621  18.415  0.00  0.00    +0.000 S 
ATOM     34  C   UNL     1       5.101  14.803  18.145  0.00  0.00    +0.000 A 
ENDBRANCH  29  30
ENDBRANCH   2  28
TORSDOF 6
ENDMDL
MODEL 4
REMARK VINA RESULT:      -6.2      1.770      2.114
REMARK  Name = 
REMARK  9 active torsions:
REMARK  status: ('A' for Active; 'I' for Inactive)
REMARK    1  A    between atoms: C_1  and  O_2
REMARK    2  A    between atoms: O_2  and  C_3
REMARK    3  A    between atoms: C_6  and  C_7
REMARK    4  A    between atoms: C_8  and  C_9
REMARK    5  A    between atoms: C_10  and  C_11
REMARK    6  A    between atoms: C_18  and  C_19
REMARK    7  A    between atoms: C_22  and  O_23
REMARK    8  A    between atoms: O_23  and  C_24
REMARK    9  A    between atoms: N_31  and  C_32
REMARK                            x       y       z     vdW  Elec       q    Type
REMARK                         _______ _______ _______ _____ _____    ______ ____
ROOT
ATOM      1  C   UNL     1      -0.736  13.192  20.268  0.00  0.00    +0.000 A 
ATOM      2  C   UNL     1       0.537  12.653  20.160  0.00  0.00    +0.000 A 
ATOM      3  C   UNL     1       0.481  11.388  19.554  0.00  0.00    +0.000 A 
ATOM      4  C   UNL     1       1.432  10.365  19.385  0.00  0.00    +0.000 A 
ATOM      5  C   UNL     1       1.170   9.260  18.570  0.00  0.00    +0.000 A 
ATOM      6  C   UNL     1      -0.039   9.278  17.853  0.00  0.00    +0.000 A 
ATOM      7  C   UNL     1      -1.039  10.263  18.059  0.00  0.00    +0.000 A 
ATOM      8  C   UNL     1      -0.779  11.288  18.985  0.00  0.00    +0.000 A 
ATOM      9  N   UNL     1      -1.547  12.313  19.543  0.00  0.00    +0.000 N 
ATOM     10  C   UNL     1      -2.994  12.339  19.520  0.00  0.00    +0.000 C 
ENDROOT
BRANCH   5  11
ATOM     11  C   UNL     1       2.143   8.144  18.515  0.00  0.00    +0.000 A 
ATOM     12  C   UNL     1       2.230   7.172  19.520  0.00  0.00    +0.000 A 
ATOM     13  C   UNL     1       3.184   6.141  19.454  0.00  0.00    +0.000 A 
ATOM     14  C   UNL     1       4.077   6.045  18.383  0.00  0.00    +0.000 A 
ATOM     15  C   UNL     1       3.984   6.994  17.369  0.00  0.00    +0.000 A 
ATOM     16  F   UNL     1       4.796   6.965  16.302  0.00  0.00    +0.000 F 
ATOM     17  C   UNL     1       3.037   8.021  17.431  0.00  0.00    +0.000 A 
BRANCH  14  18
ATOM     18  O   UNL     1       4.953   4.999  18.466  0.00  0.00    +0.000 OA
ATOM     19  C   UNL     1       6.163   5.215  19.184  0.00  0.00    +0.000 C 
ENDBRANCH  14  18
ENDBRANCH   5  11
BRANCH   1  23
ATOM     20  C   UNL     1      -1.543  16.676  22.707  0.00  0.00    +0.000 A 
ATOM     21  C   UNL     1      -1.541  16.797  21.314  0.00  0.00    +0.000 A 
ATOM     22  C   UNL     1      -1.321  15.678  20.482  0.00  0.00    +0.000 A 
ATOM     23  C   UNL     1      -1.115  14.411  21.033  0.00  0.00    +0.000 A 
ATOM     24  C   UNL     1      -1.175  14.313  22.437  0.00  0.00    +0.000 A 
ATOM     25  C   UNL     1      -1.347  15.424  23.266  0.00  0.00    +0.000 A 
BRANCH  20  27
ATOM     26  C   UNL     1      -0.593  18.248  24.201  0.00  0.00    +0.000 C 
ATOM     27  O   UNL     1      -1.714  17.831  23.422  0.00  0.00    +0.000 OA
ENDBRANCH  20  27
ENDBRANCH   1  23
BRANCH   2  28
ATOM     28  C   UNL     1       1.765  13.264  20.552  0.00  0.00    +0.000 C 
ATOM     29  C   UNL     1       2.823  13.743  20.811  0.00  0.00    +0.000 C 
BRANCH  29  30
ATOM     30  C   UNL     1       4.078  14.372  21.042  0.00  0.00    +0.000 A 
ATOM     31  C   UNL     1       4.704  15.237  20.107  0.00  0.00    +0.000 A 
ATOM     32  C   UNL     1       5.895  15.733  20.589  0.00  0.00    +0.000 A 
ATOM     33  S   UNL     1       6.266  15.123  22.142  0.00  0.00    +0.000 S 
ATOM     34  C   UNL     1       4.826  14.197  22.185  0.00  0.00    +0.000 A 
ENDBRANCH  29  30
ENDBRANCH   2  28
TORSDOF 6
ENDMDL
MODEL 5
REMARK VINA RESULT:      -6.2      1.691      1.909
REMARK  Name = 
REMARK  9 active torsions:
REMARK  status: ('A' for Active; 'I' for Inactive)
REMARK    1  A    between atoms: C_1  and  O_2
REMARK    2  A    between atoms: O_2  and  C_3
REMARK    3  A    between atoms: C_6  and  C_7
REMARK    4  A    between atoms: C_8  and  C_9
REMARK    5  A    between atoms: C_10  and  C_11
REMARK    6  A    between atoms: C_18  and  C_19
REMARK    7  A    between atoms: C_22  and  O_23
REMARK    8  A    between atoms: O_23  and  C_24
REMARK    9  A    between atoms: N_31  and  C_32
REMARK                            x       y       z     vdW  Elec       q    Type
REMARK                         _______ _______ _______ _____ _____    ______ ____
ROOT
ATOM      1  C   UNL     1      -0.772  13.147  20.243  0.00  0.00    +0.000 A 
ATOM      2  C   UNL     1       0.511  12.634  20.132  0.00  0.00    +0.000 A 
ATOM      3  C   UNL     1       0.478  11.370  19.520  0.00  0.00    +0.000 A 
ATOM      4  C   UNL     1       1.447  10.366  19.346  0.00  0.00    +0.000 A 
ATOM      5  C   UNL     1       1.205   9.260  18.525  0.00  0.00    +0.000 A 
ATOM      6  C   UNL     1      -0.004   9.259  17.810  0.00  0.00    +0.000 A 
ATOM      7  C   UNL     1      -1.022  10.223  18.021  0.00  0.00    +0.000 A 
ATOM      8  C   UNL     1      -0.781  11.250  18.952  0.00  0.00    +0.000 A 
ATOM      9  N   UNL     1      -1.567  12.258  19.515  0.00  0.00    +0.000 N 
ATOM     10  C   UNL     1      -3.015  12.256  19.493  0.00  0.00    +0.000 C 
ENDROOT
BRANCH   5  11
ATOM     11  C   UNL     1       2.200   8.163  18.465  0.00  0.00    +0.000 A 
ATOM     12  C   UNL     1       3.163   8.075  17.452  0.00  0.00    +0.000 A 
ATOM     13  C   UNL     1       4.074   7.006  17.405  0.00  0.00    +0.000 A 
ATOM     14  C   UNL     1       4.056   5.994  18.370  0.00  0.00    +0.000 A 
ATOM     15  C   UNL     1       3.117   6.084  19.393  0.00  0.00    +0.000 A 
ATOM     16  F   UNL     1       3.042   5.160  20.362  0.00  0.00    +0.000 F 
ATOM     17  C   UNL     1       2.208   7.146  19.442  0.00  0.00    +0.000 A 
BRANCH  14  18
ATOM     18  O   UNL     1       4.993   5.015  18.184  0.00  0.00    +0.000 OA
ATOM     19  C   UNL     1       4.599   3.864  17.445  0.00  0.00    +0.000 C 
ENDBRANCH  14  18
ENDBRANCH   5  11
BRANCH   1  23
ATOM     20  C   UNL     1      -1.653  16.594  22.711  0.00  0.00    +0.000 A 
ATOM     21  C   UNL     1      -1.592  16.740  21.321  0.00  0.00    +0.000 A 
ATOM     22  C   UNL     1      -1.346  15.634  20.479  0.00  0.00    +0.000 A 
ATOM     23  C   UNL     1      -1.173  14.356  21.014  0.00  0.00    +0.000 A 
ATOM     24  C   UNL     1      -1.292  14.233  22.413  0.00  0.00    +0.000 A 
ATOM     25  C   UNL     1      -1.490  15.330  23.254  0.00  0.00    +0.000 A 
BRANCH  20  27
ATOM     26  C   UNL     1      -2.191  17.546  24.811  0.00  0.00    +0.000 C 
ATOM     27  O   UNL     1      -1.845  17.737  23.439  0.00  0.00    +0.000 OA
ENDBRANCH  20  27
ENDBRANCH   1  23
BRANCH   2  28
ATOM     28  C   UNL     1       1.727  13.265  20.526  0.00  0.00    +0.000 C 
ATOM     29  C   UNL     1       2.781  13.745  20.800  0.00  0.00    +0.000 C 
BRANCH  29  30
ATOM     30  C   UNL     1       4.044  14.354  21.038  0.00  0.00    +0.000 A 
ATOM     31  C   UNL     1       4.678  15.229  20.117  0.00  0.00    +0.000 A 
ATOM     32  C   UNL     1       5.876  15.701  20.603  0.00  0.00    +0.000 A 
ATOM     33  S   UNL     1       6.245  15.058  22.144  0.00  0.00    +0.000 S 
ATOM     34  C   UNL     1       4.794  14.150  22.176  0.00  0.00    +0.000 A 
ENDBRANCH  29  30
ENDBRANCH   2  28
TORSDOF 6
ENDMDL
MODEL 6
REMARK VINA RESULT:      -6.2      1.660      2.057
REMARK  Name = 
REMARK  9 active torsions:
REMARK  status: ('A' for Active; 'I' for Inactive)
REMARK    1  A    between atoms: C_1  and  O_2
REMARK    2  A    between atoms: O_2  and  C_3
REMARK    3  A    between atoms: C_6  and  C_7
REMARK    4  A    between atoms: C_8  and  C_9
REMARK    5  A    between atoms: C_10  and  C_11
REMARK    6  A    between atoms: C_18  and  C_19
REMARK    7  A    between atoms: C_22  and  O_23
REMARK    8  A    between atoms: O_23  and  C_24
REMARK    9  A    between atoms: N_31  and  C_32
REMARK                            x       y       z     vdW  Elec       q    Type
REMARK                         _______ _______ _______ _____ _____    ______ ____
ROOT
ATOM      1  C   UNL     1      -0.802  13.181  20.189  0.00  0.00    +0.000 A 
ATOM      2  C   UNL     1       0.478  12.654  20.112  0.00  0.00    +0.000 A 
ATOM      3  C   UNL     1       0.448  11.388  19.504  0.00  0.00    +0.000 A 
ATOM      4  C   UNL     1       1.411  10.373  19.357  0.00  0.00    +0.000 A 
ATOM      5  C   UNL     1       1.178   9.267  18.536  0.00  0.00    +0.000 A 
ATOM      6  C   UNL     1      -0.013   9.275  17.790  0.00  0.00    +0.000 A 
ATOM      7  C   UNL     1      -1.026  10.251  17.973  0.00  0.00    +0.000 A 
ATOM      8  C   UNL     1      -0.798  11.278  18.905  0.00  0.00    +0.000 A 
ATOM      9  N   UNL     1      -1.587  12.296  19.445  0.00  0.00    +0.000 N 
ATOM     10  C   UNL     1      -3.034  12.309  19.387  0.00  0.00    +0.000 C 
ENDROOT
BRANCH   5  11
ATOM     11  C   UNL     1       2.162   8.159  18.504  0.00  0.00    +0.000 A 
ATOM     12  C   UNL     1       3.114   8.027  17.484  0.00  0.00    +0.000 A 
ATOM     13  C   UNL     1       4.015   6.949  17.467  0.00  0.00    +0.000 A 
ATOM     14  C   UNL     1       3.999   5.972  18.467  0.00  0.00    +0.000 A 
ATOM     15  C   UNL     1       3.072   6.107  19.496  0.00  0.00    +0.000 A 
ATOM     16  F   UNL     1       3.000   5.219  20.499  0.00  0.00    +0.000 F 
ATOM     17  C   UNL     1       2.173   7.178  19.516  0.00  0.00    +0.000 A 
BRANCH  14  18
ATOM     18  O   UNL     1       4.926   4.979  18.306  0.00  0.00    +0.000 OA
ATOM     19  C   UNL     1       6.144   5.098  19.033  0.00  0.00    +0.000 C 
ENDBRANCH  14  18
ENDBRANCH   5  11
BRANCH   1  23
ATOM     20  C   UNL     1      -2.226  16.789  22.113  0.00  0.00    +0.000 A 
ATOM     21  C   UNL     1      -2.149  15.601  22.847  0.00  0.00    +0.000 A 
ATOM     22  C   UNL     1      -1.654  14.413  22.269  0.00  0.00    +0.000 A 
ATOM     23  C   UNL     1      -1.210  14.396  20.945  0.00  0.00    +0.000 A 
ATOM     24  C   UNL     1      -1.251  15.621  20.248  0.00  0.00    +0.000 A 
ATOM     25  C   UNL     1      -1.782  16.788  20.800  0.00  0.00    +0.000 A 
BRANCH  20  27
ATOM     26  C   UNL     1      -2.353  18.062  24.104  0.00  0.00    +0.000 C 
ATOM     27  O   UNL     1      -2.769  17.870  22.752  0.00  0.00    +0.000 OA
ENDBRANCH  20  27
ENDBRANCH   1  23
BRANCH   2  28
ATOM     28  C   UNL     1       1.691  13.275  20.533  0.00  0.00    +0.000 C 
ATOM     29  C   UNL     1       2.733  13.777  20.811  0.00  0.00    +0.000 C 
BRANCH  29  30
ATOM     30  C   UNL     1       3.961  14.446  21.075  0.00  0.00    +0.000 A 
ATOM     31  C   UNL     1       4.556  14.508  22.363  0.00  0.00    +0.000 A 
ATOM     32  C   UNL     1       5.753  15.189  22.339  0.00  0.00    +0.000 A 
ATOM     33  S   UNL     1       6.128  15.778  20.778  0.00  0.00    +0.000 S 
ATOM     34  C   UNL     1       4.693  15.115  20.120  0.00  0.00    +0.000 A 
ENDBRANCH  29  30
ENDBRANCH   2  28
TORSDOF 6
ENDMDL
MODEL 7
REMARK VINA RESULT:      -6.1      4.259      5.361
REMARK  Name = 
REMARK  9 active torsions:
REMARK  status: ('A' for Active; 'I' for Inactive)
REMARK    1  A    between atoms: C_1  and  O_2
REMARK    2  A    between atoms: O_2  and  C_3
REMARK    3  A    between atoms: C_6  and  C_7
REMARK    4  A    between atoms: C_8  and  C_9
REMARK    5  A    between atoms: C_10  and  C_11
REMARK    6  A    between atoms: C_18  and  C_19
REMARK    7  A    between atoms: C_22  and  O_23
REMARK    8  A    between atoms: O_23  and  C_24
REMARK    9  A    between atoms: N_31  and  C_32
REMARK                            x       y       z     vdW  Elec       q    Type
REMARK                         _______ _______ _______ _____ _____    ______ ____
ROOT
ATOM      1  C   UNL     1      -1.741  11.835  20.665  0.00  0.00    +0.000 A 
ATOM      2  C   UNL     1      -1.388  10.942  19.664  0.00  0.00    +0.000 A 
ATOM      3  C   UNL     1      -0.323  10.130  20.088  0.00  0.00    +0.000 A 
ATOM      4  C   UNL     1       0.513   9.221  19.416  0.00  0.00    +0.000 A 
ATOM      5  C   UNL     1       1.391   8.390  20.118  0.00  0.00    +0.000 A 
ATOM      6  C   UNL     1       1.318   8.437  21.520  0.00  0.00    +0.000 A 
ATOM      7  C   UNL     1       0.534   9.391  22.216  0.00  0.00    +0.000 A 
ATOM      8  C   UNL     1      -0.240  10.292  21.462  0.00  0.00    +0.000 A 
ATOM      9  N   UNL     1      -0.998  11.423  21.775  0.00  0.00    +0.000 N 
ATOM     10  C   UNL     1      -0.873  12.157  23.017  0.00  0.00    +0.000 C 
ENDROOT
BRANCH   5  11
ATOM     11  C   UNL     1       2.344   7.536  19.370  0.00  0.00    +0.000 A 
ATOM     12  C   UNL     1       2.897   7.922  18.142  0.00  0.00    +0.000 A 
ATOM     13  C   UNL     1       3.776   7.077  17.443  0.00  0.00    +0.000 A 
ATOM     14  C   UNL     1       4.135   5.823  17.948  0.00  0.00    +0.000 A 
ATOM     15  C   UNL     1       3.608   5.441  19.178  0.00  0.00    +0.000 A 
ATOM     16  F   UNL     1       3.912   4.260  19.737  0.00  0.00    +0.000 F 
ATOM     17  C   UNL     1       2.732   6.278  19.876  0.00  0.00    +0.000 A 
BRANCH  14  18
ATOM     18  O   UNL     1       4.986   5.112  17.149  0.00  0.00    +0.000 OA
ATOM     19  C   UNL     1       6.344   5.014  17.564  0.00  0.00    +0.000 C 
ENDBRANCH  14  18
ENDBRANCH   5  11
BRANCH   1  23
ATOM     20  C   UNL     1      -4.656  15.033  20.541  0.00  0.00    +0.000 A 
ATOM     21  C   UNL     1      -3.294  15.345  20.610  0.00  0.00    +0.000 A 
ATOM     22  C   UNL     1      -2.310  14.333  20.613  0.00  0.00    +0.000 A 
ATOM     23  C   UNL     1      -2.673  12.987  20.529  0.00  0.00    +0.000 A 
ATOM     24  C   UNL     1      -4.049  12.708  20.409  0.00  0.00    +0.000 A 
ATOM     25  C   UNL     1      -5.029  13.702  20.451  0.00  0.00    +0.000 A 
BRANCH  20  27
ATOM     26  C   UNL     1      -5.234  17.179  19.727  0.00  0.00    +0.000 C 
ATOM     27  O   UNL     1      -5.529  16.086  20.596  0.00  0.00    +0.000 OA
ENDBRANCH  20  27
ENDBRANCH   1  23
BRANCH   2  28
ATOM     28  C   UNL     1      -2.005  10.795  18.386  0.00  0.00    +0.000 C 
ATOM     29  C   UNL     1      -2.445  10.667  17.289  0.00  0.00    +0.000 C 
BRANCH  29  30
ATOM     30  C   UNL     1      -2.933  10.425  15.974  0.00  0.00    +0.000 A 
ATOM     31  C   UNL     1      -2.223   9.673  15.002  0.00  0.00    +0.000 A 
ATOM     32  C   UNL     1      -2.929   9.565  13.825  0.00  0.00    +0.000 A 
ATOM     33  S   UNL     1      -4.420  10.401  13.888  0.00  0.00    +0.000 S 
ATOM     34  C   UNL     1      -4.134  10.905  15.500  0.00  0.00    +0.000 A 
ENDBRANCH  29  30
ENDBRANCH   2  28
TORSDOF 6
ENDMDL
MODEL 8
REMARK VINA RESULT:      -6.1      1.837      2.358
REMARK  Name = 
REMARK  9 active torsions:
REMARK  status: ('A' for Active; 'I' for Inactive)
REMARK    1  A    between atoms: C_1  and  O_2
REMARK    2  A    between atoms: O_2  and  C_3
REMARK    3  A    between atoms: C_6  and  C_7
REMARK    4  A    between atoms: C_8  and  C_9
REMARK    5  A    between atoms: C_10  and  C_11
REMARK    6  A    between atoms: C_18  and  C_19
REMARK    7  A    between atoms: C_22  and  O_23
REMARK    8  A    between atoms: O_23  and  C_24
REMARK    9  A    between atoms: N_31  and  C_32
REMARK                            x       y       z     vdW  Elec       q    Type
REMARK                         _______ _______ _______ _____ _____    ______ ____
ROOT
ATOM      1  C   UNL     1      -0.681  13.149  20.199  0.00  0.00    +0.000 A 
ATOM      2  C   UNL     1       0.592  12.605  20.114  0.00  0.00    +0.000 A 
ATOM      3  C   UNL     1       0.540  11.339  19.506  0.00  0.00    +0.000 A 
ATOM      4  C   UNL     1       1.488  10.312  19.354  0.00  0.00    +0.000 A 
ATOM      5  C   UNL     1       1.235   9.209  18.533  0.00  0.00    +0.000 A 
ATOM      6  C   UNL     1       0.039   9.233  17.795  0.00  0.00    +0.000 A 
ATOM      7  C   UNL     1      -0.959  10.223  17.984  0.00  0.00    +0.000 A 
ATOM      8  C   UNL     1      -0.711  11.247  18.915  0.00  0.00    +0.000 A 
ATOM      9  N   UNL     1      -1.483  12.275  19.460  0.00  0.00    +0.000 N 
ATOM     10  C   UNL     1      -2.930  12.308  19.410  0.00  0.00    +0.000 C 
ENDROOT
BRANCH   5  11
ATOM     11  C   UNL     1       2.204   8.088  18.496  0.00  0.00    +0.000 A 
ATOM     12  C   UNL     1       2.268   7.115  19.502  0.00  0.00    +0.000 A 
ATOM     13  C   UNL     1       3.218   6.080  19.453  0.00  0.00    +0.000 A 
ATOM     14  C   UNL     1       4.129   5.979  18.397  0.00  0.00    +0.000 A 
ATOM     15  C   UNL     1       4.057   6.928  17.381  0.00  0.00    +0.000 A 
ATOM     16  F   UNL     1       4.887   6.895  16.328  0.00  0.00    +0.000 F 
ATOM     17  C   UNL     1       3.115   7.960  17.427  0.00  0.00    +0.000 A 
BRANCH  14  18
ATOM     18  O   UNL     1       4.998   4.929  18.495  0.00  0.00    +0.000 OA
ATOM     19  C   UNL     1       4.514   3.733  19.097  0.00  0.00    +0.000 C 
ENDBRANCH  14  18
ENDBRANCH   5  11
BRANCH   1  23
ATOM     20  C   UNL     1      -2.063  16.761  22.146  0.00  0.00    +0.000 A 
ATOM     21  C   UNL     1      -1.906  15.591  22.896  0.00  0.00    +0.000 A 
ATOM     22  C   UNL     1      -1.421  14.403  22.308  0.00  0.00    +0.000 A 
ATOM     23  C   UNL     1      -1.067  14.370  20.957  0.00  0.00    +0.000 A 
ATOM     24  C   UNL     1      -1.187  15.578  20.241  0.00  0.00    +0.000 A 
ATOM     25  C   UNL     1      -1.708  16.744  20.806  0.00  0.00    +0.000 A 
BRANCH  20  27
ATOM     26  C   UNL     1      -2.538  17.787  24.225  0.00  0.00    +0.000 C 
ATOM     27  O   UNL     1      -2.588  17.842  22.800  0.00  0.00    +0.000 OA
ENDBRANCH  20  27
ENDBRANCH   1  23
BRANCH   2  28
ATOM     28  C   UNL     1       1.815  13.209  20.527  0.00  0.00    +0.000 C 
ATOM     29  C   UNL     1       2.850  13.731  20.795  0.00  0.00    +0.000 C 
BRANCH  29  30
ATOM     30  C   UNL     1       4.050  14.439  21.084  0.00  0.00    +0.000 A 
ATOM     31  C   UNL     1       4.712  14.378  22.338  0.00  0.00    +0.000 A 
ATOM     32  C   UNL     1       5.864  15.132  22.344  0.00  0.00    +0.000 A 
ATOM     33  S   UNL     1       6.117  15.935  20.855  0.00  0.00    +0.000 S 
ATOM     34  C   UNL     1       4.688  15.268  20.188  0.00  0.00    +0.000 A 
ENDBRANCH  29  30
ENDBRANCH   2  28
TORSDOF 6
ENDMDL
MODEL 9
REMARK VINA RESULT:      -6.1      6.893      8.620
REMARK  Name = 
REMARK  9 active torsions:
REMARK  status: ('A' for Active; 'I' for Inactive)
REMARK    1  A    between atoms: C_1  and  O_2
REMARK    2  A    between atoms: O_2  and  C_3
REMARK    3  A    between atoms: C_6  and  C_7
REMARK    4  A    between atoms: C_8  and  C_9
REMARK    5  A    between atoms: C_10  and  C_11
REMARK    6  A    between atoms: C_18  and  C_19
REMARK    7  A    between atoms: C_22  and  O_23
REMARK    8  A    between atoms: O_23  and  C_24
REMARK    9  A    between atoms: N_31  and  C_32
REMARK                            x       y       z     vdW  Elec       q    Type
REMARK                         _______ _______ _______ _____ _____    ______ ____
ROOT
ATOM      1  C   UNL     1       9.849  14.243  21.388  0.00  0.00    +0.000 A 
ATOM      2  C   UNL     1       9.243  13.014  21.597  0.00  0.00    +0.000 A 
ATOM      3  C   UNL     1       9.382  12.203  20.458  0.00  0.00    +0.000 A 
ATOM      4  C   UNL     1       8.808  10.975  20.082  0.00  0.00    +0.000 A 
ATOM      5  C   UNL     1       9.262  10.277  18.960  0.00  0.00    +0.000 A 
ATOM      6  C   UNL     1      10.380  10.810  18.296  0.00  0.00    +0.000 A 
ATOM      7  C   UNL     1      10.930  12.077  18.615  0.00  0.00    +0.000 A 
ATOM      8  C   UNL     1      10.358  12.801  19.676  0.00  0.00    +0.000 A 
ATOM      9  N   UNL     1      10.525  14.095  20.174  0.00  0.00    +0.000 N 
ATOM     10  C   UNL     1      11.153  15.168  19.431  0.00  0.00    +0.000 C 
ENDROOT
BRANCH   5  11
ATOM     11  C   UNL     1       8.551   9.052  18.523  0.00  0.00    +0.000 A 
ATOM     12  C   UNL     1       7.652   9.046  17.449  0.00  0.00    +0.000 A 
ATOM     13  C   UNL     1       6.971   7.874  17.078  0.00  0.00    +0.000 A 
ATOM     14  C   UNL     1       7.169   6.671  17.762  0.00  0.00    +0.000 A 
ATOM     15  C   UNL     1       8.077   6.661  18.817  0.00  0.00    +0.000 A 
ATOM     16  F   UNL     1       8.331   5.546  19.516  0.00  0.00    +0.000 F 
ATOM     17  C   UNL     1       8.755   7.826  19.190  0.00  0.00    +0.000 A 
BRANCH  14  18
ATOM     18  O   UNL     1       6.426   5.622  17.293  0.00  0.00    +0.000 OA
ATOM     19  C   UNL     1       5.010   5.740  17.365  0.00  0.00    +0.000 C 
ENDBRANCH  14  18
ENDBRANCH   5  11
BRANCH   1  23
ATOM     20  C   UNL     1       9.250  17.553  24.114  0.00  0.00    +0.000 A 
ATOM     21  C   UNL     1      10.536  17.034  23.933  0.00  0.00    +0.000 A 
ATOM     22  C   UNL     1      10.780  15.981  23.026  0.00  0.00    +0.000 A 
ATOM     23  C   UNL     1       9.740  15.439  22.267  0.00  0.00    +0.000 A 
ATOM     24  C   UNL     1       8.466  16.018  22.433  0.00  0.00    +0.000 A 
ATOM     25  C   UNL     1       8.210  17.029  23.363  0.00  0.00    +0.000 A 
BRANCH  20  27
ATOM     26  C   UNL     1       7.913  18.490  25.828  0.00  0.00    +0.000 C 
ATOM     27  O   UNL     1       9.113  18.536  25.056  0.00  0.00    +0.000 OA
ENDBRANCH  20  27
ENDBRANCH   1  23
BRANCH   2  28
ATOM     28  C   UNL     1       8.593  12.565  22.784  0.00  0.00    +0.000 C 
ATOM     29  C   UNL     1       8.036  12.269  23.793  0.00  0.00    +0.000 C 
BRANCH  29  30
ATOM     30  C   UNL     1       7.288  11.950  24.960  0.00  0.00    +0.000 A 
ATOM     31  C   UNL     1       6.068  11.225  24.935  0.00  0.00    +0.000 A 
ATOM     32  C   UNL     1       5.565  11.028  26.201  0.00  0.00    +0.000 A 
ATOM     33  S   UNL     1       6.544  11.750  27.403  0.00  0.00    +0.000 S 
ATOM     34  C   UNL     1       7.656  12.323  26.234  0.00  0.00    +0.000 A 
ENDBRANCH  29  30
ENDBRANCH   2  28
TORSDOF 6
ENDMDL
