MODEL 1
REMARK VINA RESULT:      -8.8      0.000      0.000
REMARK  Name = 
REMARK  8 active torsions:
REMARK  status: ('A' for Active; 'I' for Inactive)
REMARK    1  A    between atoms: C_1  and  C_2
REMARK    2  A    between atoms: C_4  and  C_5
REMARK    3  A    between atoms: C_9  and  N_10
REMARK    4  A    between atoms: N_10  and  C_11
REMARK    5  A    between atoms: C_11  and  C_12
REMARK    6  A    between atoms: C_19  and  C_20
REMARK    7  A    between atoms: C_25  and  C_26
REMARK    8  A    between atoms: C_26  and  O_28
REMARK                            x       y       z     vdW  Elec       q    Type
REMARK                         _______ _______ _______ _____ _____    ______ ____
ROOT
ATOM      1  C   UNL     1       1.988   7.181  19.776  0.00  0.00    +0.000 A 
ATOM      2  C   UNL     1       2.557   7.085  18.522  0.00  0.00    +0.000 A 
ATOM      3  C   UNL     1       3.150   5.806  18.402  0.00  0.00    +0.000 A 
ATOM      4  C   UNL     1       3.950   5.199  17.416  0.00  0.00    +0.000 A 
ATOM      5  C   UNL     1       4.451   3.900  17.581  0.00  0.00    +0.000 A 
ATOM      6  C   UNL     1       4.084   3.199  18.732  0.00  0.00    +0.000 A 
ATOM      7  C   UNL     1       3.283   3.779  19.735  0.00  0.00    +0.000 A 
ATOM      8  C   UNL     1       2.844   5.096  19.562  0.00  0.00    +0.000 A 
ATOM      9  N   UNL     1       2.121   5.951  20.376  0.00  0.00    +0.000 N 
ATOM     10  H   UNL     1       1.778   5.735  21.306  0.00  0.00    +0.000 HD
ENDROOT
BRANCH   1  14
ATOM     11  C   UNL     1      -0.085   9.666  23.425  0.00  0.00    +0.000 C 
ATOM     12  C   UNL     1       0.444   9.500  22.042  0.00  0.00    +0.000 A 
ATOM     13  N   UNL     1       0.955   8.257  21.671  0.00  0.00    +0.000 NA
ATOM     14  C   UNL     1       1.383   8.301  20.430  0.00  0.00    +0.000 A 
ATOM     15  S   UNL     1       1.210   9.812  19.644  0.00  0.00    +0.000 S 
ATOM     16  C   UNL     1       0.485  10.468  21.048  0.00  0.00    +0.000 A 
BRANCH  16  17
ATOM     17  C   UNL     1       0.008  11.835  21.094  0.00  0.00    +0.000 C 
ATOM     18  O   UNL     1       0.527  12.747  21.718  0.00  0.00    +0.000 OA
BRANCH  17  19
ATOM     19  O   UNL     1      -1.115  12.036  20.352  0.00  0.00    +0.000 OA
ATOM     20  H   UNL     1      -0.923  12.498  19.511  0.00  0.00    +0.000 HD
ENDBRANCH  17  19
ENDBRANCH  16  17
ENDBRANCH   1  14
BRANCH   5  21
ATOM     21  N   UNL     1       5.344   3.417  16.639  0.00  0.00    +0.000 N 
ATOM     22  H   UNL     1       5.613   2.443  16.731  0.00  0.00    +0.000 HD
BRANCH  21  23
ATOM     23  C   UNL     1       6.326   4.231  15.944  0.00  0.00    +0.000 C 
BRANCH  23  24
ATOM     24  C   UNL     1       7.005   5.184  16.899  0.00  0.00    +0.000 A 
ATOM     25  C   UNL     1       7.059   6.558  16.622  0.00  0.00    +0.000 A 
ATOM     26  C   UNL     1       7.609   7.453  17.540  0.00  0.00    +0.000 A 
ATOM     27  C   UNL     1       8.121   6.986  18.746  0.00  0.00    +0.000 A 
ATOM     28  C   UNL     1       8.098   5.621  19.028  0.00  0.00    +0.000 A 
ATOM     29  C   UNL     1       7.544   4.724  18.111  0.00  0.00    +0.000 A 
ENDBRANCH  23  24
ENDBRANCH  21  23
ENDBRANCH   5  21
BRANCH   7  30
ATOM     30  C   UNL     1       2.953   3.075  20.934  0.00  0.00    +0.000 C 
ATOM     31  N   UNL     1       2.671   2.516  21.909  0.00  0.00    +0.000 NA
ENDBRANCH   7  30
TORSDOF 7
ENDMDL
MODEL 2
REMARK VINA RESULT:      -8.8      0.157      1.093
REMARK  Name = 
REMARK  8 active torsions:
REMARK  status: ('A' for Active; 'I' for Inactive)
REMARK    1  A    between atoms: C_1  and  C_2
REMARK    2  A    between atoms: C_4  and  C_5
REMARK    3  A    between atoms: C_9  and  N_10
REMARK    4  A    between atoms: N_10  and  C_11
REMARK    5  A    between atoms: C_11  and  C_12
REMARK    6  A    between atoms: C_19  and  C_20
REMARK    7  A    between atoms: C_25  and  C_26
REMARK    8  A    between atoms: C_26  and  O_28
REMARK                            x       y       z     vdW  Elec       q    Type
REMARK                         _______ _______ _______ _____ _____    ______ ____
ROOT
ATOM      1  C   UNL     1       1.981   7.225  19.696  0.00  0.00    +0.000 A 
ATOM      2  C   UNL     1       2.545   7.124  18.440  0.00  0.00    +0.000 A 
ATOM      3  C   UNL     1       3.142   5.846  18.326  0.00  0.00    +0.000 A 
ATOM      4  C   UNL     1       3.940   5.235  17.341  0.00  0.00    +0.000 A 
ATOM      5  C   UNL     1       4.447   3.939  17.512  0.00  0.00    +0.000 A 
ATOM      6  C   UNL     1       4.087   3.243  18.669  0.00  0.00    +0.000 A 
ATOM      7  C   UNL     1       3.287   3.827  19.671  0.00  0.00    +0.000 A 
ATOM      8  C   UNL     1       2.842   5.141  19.492  0.00  0.00    +0.000 A 
ATOM      9  N   UNL     1       2.120   5.999  20.303  0.00  0.00    +0.000 N 
ATOM     10  H   UNL     1       1.781   5.788  21.236  0.00  0.00    +0.000 HD
ENDROOT
BRANCH   1  14
ATOM     11  C   UNL     1      -0.160   9.701  23.312  0.00  0.00    +0.000 C 
ATOM     12  C   UNL     1       0.407   9.542  21.942  0.00  0.00    +0.000 A 
ATOM     13  N   UNL     1       0.910   8.295  21.572  0.00  0.00    +0.000 NA
ATOM     14  C   UNL     1       1.375   8.347  20.345  0.00  0.00    +0.000 A 
ATOM     15  S   UNL     1       1.248   9.869  19.572  0.00  0.00    +0.000 S 
ATOM     16  C   UNL     1       0.492  10.521  20.962  0.00  0.00    +0.000 A 
BRANCH  16  17
ATOM     17  C   UNL     1       0.036  11.894  21.010  0.00  0.00    +0.000 C 
ATOM     18  O   UNL     1      -1.080  12.283  20.704  0.00  0.00    +0.000 OA
BRANCH  17  19
ATOM     19  O   UNL     1       0.991  12.761  21.443  0.00  0.00    +0.000 OA
ATOM     20  H   UNL     1       1.143  12.691  22.407  0.00  0.00    +0.000 HD
ENDBRANCH  17  19
ENDBRANCH  16  17
ENDBRANCH   1  14
BRANCH   5  21
ATOM     21  N   UNL     1       5.338   3.453  16.570  0.00  0.00    +0.000 N 
ATOM     22  H   UNL     1       5.522   2.455  16.597  0.00  0.00    +0.000 HD
BRANCH  21  23
ATOM     23  C   UNL     1       6.412   4.230  15.977  0.00  0.00    +0.000 C 
BRANCH  23  24
ATOM     24  C   UNL     1       6.972   5.217  16.973  0.00  0.00    +0.000 A 
ATOM     25  C   UNL     1       7.524   4.776  18.185  0.00  0.00    +0.000 A 
ATOM     26  C   UNL     1       8.120   5.675  19.070  0.00  0.00    +0.000 A 
ATOM     27  C   UNL     1       8.165   7.030  18.761  0.00  0.00    +0.000 A 
ATOM     28  C   UNL     1       7.600   7.491  17.572  0.00  0.00    +0.000 A 
ATOM     29  C   UNL     1       7.007   6.590  16.683  0.00  0.00    +0.000 A 
ENDBRANCH  23  24
ENDBRANCH  21  23
ENDBRANCH   5  21
BRANCH   7  30
ATOM     30  C   UNL     1       2.964   3.130  20.875  0.00  0.00    +0.000 C 
ATOM     31  N   UNL     1       2.715   2.573  21.861  0.00  0.00    +0.000 NA
ENDBRANCH   7  30
TORSDOF 7
ENDMDL
MODEL 3
REMARK VINA RESULT:      -8.7      4.550      8.701
REMARK  Name = 
REMARK  8 active torsions:
REMARK  status: ('A' for Active; 'I' for Inactive)
REMARK    1  A    between atoms: C_1  and  C_2
REMARK    2  A    between atoms: C_4  and  C_5
REMARK    3  A    between atoms: C_9  and  N_10
REMARK    4  A    between atoms: N_10  and  C_11
REMARK    5  A    between atoms: C_11  and  C_12
REMARK    6  A    between atoms: C_19  and  C_20
REMARK    7  A    between atoms: C_25  and  C_26
REMARK    8  A    between atoms: C_26  and  O_28
REMARK                            x       y       z     vdW  Elec       q    Type
REMARK                         _______ _______ _______ _____ _____    ______ ____
ROOT
ATOM      1  C   UNL     1       2.184   6.814  19.856  0.00  0.00    +0.000 A 
ATOM      2  C   UNL     1       2.283   7.650  18.761  0.00  0.00    +0.000 A 
ATOM      3  C   UNL     1       1.708   8.896  19.103  0.00  0.00    +0.000 A 
ATOM      4  C   UNL     1       1.430  10.066  18.372  0.00  0.00    +0.000 A 
ATOM      5  C   UNL     1       0.796  11.166  18.968  0.00  0.00    +0.000 A 
ATOM      6  C   UNL     1       0.498  11.090  20.331  0.00  0.00    +0.000 A 
ATOM      7  C   UNL     1       0.766   9.933  21.089  0.00  0.00    +0.000 A 
ATOM      8  C   UNL     1       1.352   8.835  20.450  0.00  0.00    +0.000 A 
ATOM      9  N   UNL     1       1.668   7.561  20.889  0.00  0.00    +0.000 N 
ATOM     10  H   UNL     1       1.499   7.197  21.821  0.00  0.00    +0.000 HD
ENDROOT
BRANCH   1  14
ATOM     11  C   UNL     1       1.960   2.318  21.733  0.00  0.00    +0.000 C 
ATOM     12  C   UNL     1       2.444   3.354  20.775  0.00  0.00    +0.000 A 
ATOM     13  N   UNL     1       1.976   4.659  20.917  0.00  0.00    +0.000 NA
ATOM     14  C   UNL     1       2.498   5.424  19.985  0.00  0.00    +0.000 A 
ATOM     15  S   UNL     1       3.558   4.640  18.895  0.00  0.00    +0.000 S 
ATOM     16  C   UNL     1       3.337   3.163  19.730  0.00  0.00    +0.000 A 
BRANCH  16  17
ATOM     17  C   UNL     1       4.027   1.952  19.336  0.00  0.00    +0.000 C 
ATOM     18  O   UNL     1       3.670   1.186  18.455  0.00  0.00    +0.000 OA
BRANCH  17  19
ATOM     19  O   UNL     1       5.159   1.723  20.055  0.00  0.00    +0.000 OA
ATOM     20  H   UNL     1       4.967   1.333  20.932  0.00  0.00    +0.000 HD
ENDBRANCH  17  19
ENDBRANCH  16  17
ENDBRANCH   1  14
BRANCH   5  21
ATOM     21  N   UNL     1       0.427  12.229  18.159  0.00  0.00    +0.000 N 
ATOM     22  H   UNL     1       1.181  12.803  17.799  0.00  0.00    +0.000 HD
BRANCH  21  23
ATOM     23  C   UNL     1      -0.847  12.921  18.243  0.00  0.00    +0.000 C 
BRANCH  23  24
ATOM     24  C   UNL     1      -1.993  11.967  17.999  0.00  0.00    +0.000 A 
ATOM     25  C   UNL     1      -3.130  11.990  18.820  0.00  0.00    +0.000 A 
ATOM     26  C   UNL     1      -4.227  11.172  18.548  0.00  0.00    +0.000 A 
ATOM     27  C   UNL     1      -4.199  10.311  17.455  0.00  0.00    +0.000 A 
ATOM     28  C   UNL     1      -3.067  10.257  16.643  0.00  0.00    +0.000 A 
ATOM     29  C   UNL     1      -1.970  11.079  16.912  0.00  0.00    +0.000 A 
ENDBRANCH  23  24
ENDBRANCH  21  23
ENDBRANCH   5  21
BRANCH   7  30
ATOM     30  C   UNL     1       0.413   9.841  22.470  0.00  0.00    +0.000 C 
ATOM     31  N   UNL     1       0.120   9.751  23.588  0.00  0.00    +0.000 NA
ENDBRANCH   7  30
TORSDOF 7
ENDMDL
MODEL 4
REMARK VINA RESULT:      -8.6      4.554      8.658
REMARK  Name = 
REMARK  8 active torsions:
REMARK  status: ('A' for Active; 'I' for Inactive)
REMARK    1  A    between atoms: C_1  and  C_2
REMARK    2  A    between atoms: C_4  and  C_5
REMARK    3  A    between atoms: C_9  and  N_10
REMARK    4  A    between atoms: N_10  and  C_11
REMARK    5  A    between atoms: C_11  and  C_12
REMARK    6  A    between atoms: C_19  and  C_20
REMARK    7  A    between atoms: C_25  and  C_26
REMARK    8  A    between atoms: C_26  and  O_28
REMARK                            x       y       z     vdW  Elec       q    Type
REMARK                         _______ _______ _______ _____ _____    ______ ____
ROOT
ATOM      1  C   UNL     1       2.210   6.819  19.975  0.00  0.00    +0.000 A 
ATOM      2  C   UNL     1       2.300   7.622  18.856  0.00  0.00    +0.000 A 
ATOM      3  C   UNL     1       1.691   8.864  19.153  0.00  0.00    +0.000 A 
ATOM      4  C   UNL     1       1.391  10.003  18.383  0.00  0.00    +0.000 A 
ATOM      5  C   UNL     1       0.724  11.105  18.938  0.00  0.00    +0.000 A 
ATOM      6  C   UNL     1       0.414  11.063  20.300  0.00  0.00    +0.000 A 
ATOM      7  C   UNL     1       0.703   9.938  21.096  0.00  0.00    +0.000 A 
ATOM      8  C   UNL     1       1.323   8.835  20.497  0.00  0.00    +0.000 A 
ATOM      9  N   UNL     1       1.666   7.584  20.980  0.00  0.00    +0.000 N 
ATOM     10  H   UNL     1       1.496   7.245  21.921  0.00  0.00    +0.000 HD
ENDROOT
BRANCH   1  14
ATOM     11  C   UNL     1       1.817   2.276  21.706  0.00  0.00    +0.000 C 
ATOM     12  C   UNL     1       2.440   3.354  20.885  0.00  0.00    +0.000 A 
ATOM     13  N   UNL     1       1.890   4.633  20.941  0.00  0.00    +0.000 NA
ATOM     14  C   UNL     1       2.558   5.442  20.150  0.00  0.00    +0.000 A 
ATOM     15  S   UNL     1       3.861   4.731  19.299  0.00  0.00    +0.000 S 
ATOM     16  C   UNL     1       3.540   3.227  20.050  0.00  0.00    +0.000 A 
BRANCH  16  17
ATOM     17  C   UNL     1       4.356   2.057  19.796  0.00  0.00    +0.000 C 
ATOM     18  O   UNL     1       5.189   1.593  20.559  0.00  0.00    +0.000 OA
BRANCH  17  19
ATOM     19  O   UNL     1       4.113   1.487  18.584  0.00  0.00    +0.000 OA
ATOM     20  H   UNL     1       3.828   0.555  18.666  0.00  0.00    +0.000 HD
ENDBRANCH  17  19
ENDBRANCH  16  17
ENDBRANCH   1  14
BRANCH   5  21
ATOM     21  N   UNL     1       0.337  12.132  18.093  0.00  0.00    +0.000 N 
ATOM     22  H   UNL     1       1.083  12.692  17.695  0.00  0.00    +0.000 HD
BRANCH  21  23
ATOM     23  C   UNL     1      -0.937  12.825  18.173  0.00  0.00    +0.000 C 
BRANCH  23  24
ATOM     24  C   UNL     1      -2.081  11.876  17.906  0.00  0.00    +0.000 A 
ATOM     25  C   UNL     1      -1.970  10.878  16.927  0.00  0.00    +0.000 A 
ATOM     26  C   UNL     1      -2.989   9.945  16.735  0.00  0.00    +0.000 A 
ATOM     27  C   UNL     1      -4.141  10.003  17.514  0.00  0.00    +0.000 A 
ATOM     28  C   UNL     1      -4.280  11.003  18.476  0.00  0.00    +0.000 A 
ATOM     29  C   UNL     1      -3.257  11.934  18.671  0.00  0.00    +0.000 A 
ENDBRANCH  23  24
ENDBRANCH  21  23
ENDBRANCH   5  21
BRANCH   7  30
ATOM     30  C   UNL     1       0.339   9.880  22.476  0.00  0.00    +0.000 C 
ATOM     31  N   UNL     1       0.032   9.819  23.593  0.00  0.00    +0.000 NA
ENDBRANCH   7  30
TORSDOF 7
ENDMDL
MODEL 5
REMARK VINA RESULT:      -8.6      1.082      1.450
REMARK  Name = 
REMARK  8 active torsions:
REMARK  status: ('A' for Active; 'I' for Inactive)
REMARK    1  A    between atoms: C_1  and  C_2
REMARK    2  A    between atoms: C_4  and  C_5
REMARK    3  A    between atoms: C_9  and  N_10
REMARK    4  A    between atoms: N_10  and  C_11
REMARK    5  A    between atoms: C_11  and  C_12
REMARK    6  A    between atoms: C_19  and  C_20
REMARK    7  A    between atoms: C_25  and  C_26
REMARK    8  A    between atoms: C_26  and  O_28
REMARK                            x       y       z     vdW  Elec       q    Type
REMARK                         _______ _______ _______ _____ _____    ______ ____
ROOT
ATOM      1  C   UNL     1       1.987   7.496  19.445  0.00  0.00    +0.000 A 
ATOM      2  C   UNL     1       2.594   7.277  18.224  0.00  0.00    +0.000 A 
ATOM      3  C   UNL     1       3.145   5.973  18.233  0.00  0.00    +0.000 A 
ATOM      4  C   UNL     1       3.956   5.260  17.330  0.00  0.00    +0.000 A 
ATOM      5  C   UNL     1       4.405   3.963  17.621  0.00  0.00    +0.000 A 
ATOM      6  C   UNL     1       3.975   3.374  18.813  0.00  0.00    +0.000 A 
ATOM      7  C   UNL     1       3.162   4.062  19.734  0.00  0.00    +0.000 A 
ATOM      8  C   UNL     1       2.775   5.373  19.436  0.00  0.00    +0.000 A 
ATOM      9  N   UNL     1       2.056   6.317  20.149  0.00  0.00    +0.000 N 
ATOM     10  H   UNL     1       1.675   6.192  21.081  0.00  0.00    +0.000 HD
ENDROOT
BRANCH   1  14
ATOM     11  C   UNL     1       0.274  12.063  19.411  0.00  0.00    +0.000 C 
ATOM     12  C   UNL     1       0.595  10.751  20.043  0.00  0.00    +0.000 A 
ATOM     13  N   UNL     1       1.207   9.770  19.264  0.00  0.00    +0.000 NA
ATOM     14  C   UNL     1       1.401   8.686  19.981  0.00  0.00    +0.000 A 
ATOM     15  S   UNL     1       0.865   8.770  21.604  0.00  0.00    +0.000 S 
ATOM     16  C   UNL     1       0.350  10.384  21.359  0.00  0.00    +0.000 A 
BRANCH  16  17
ATOM     17  C   UNL     1      -0.232  11.169  22.427  0.00  0.00    +0.000 C 
ATOM     18  O   UNL     1      -0.344  12.385  22.435  0.00  0.00    +0.000 OA
BRANCH  17  19
ATOM     19  O   UNL     1      -0.669  10.413  23.471  0.00  0.00    +0.000 OA
ATOM     20  H   UNL     1      -1.554  10.689  23.782  0.00  0.00    +0.000 HD
ENDBRANCH  17  19
ENDBRANCH  16  17
ENDBRANCH   1  14
BRANCH   5  21
ATOM     21  N   UNL     1       5.312   3.374  16.756  0.00  0.00    +0.000 N 
ATOM     22  H   UNL     1       5.531   2.399  16.930  0.00  0.00    +0.000 HD
BRANCH  21  23
ATOM     23  C   UNL     1       6.357   4.091  16.047  0.00  0.00    +0.000 C 
BRANCH  23  24
ATOM     24  C   UNL     1       7.016   5.107  16.949  0.00  0.00    +0.000 A 
ATOM     25  C   UNL     1       7.062   6.462  16.588  0.00  0.00    +0.000 A 
ATOM     26  C   UNL     1       7.593   7.417  17.455  0.00  0.00    +0.000 A 
ATOM     27  C   UNL     1       8.095   7.030  18.694  0.00  0.00    +0.000 A 
ATOM     28  C   UNL     1       8.079   5.685  19.060  0.00  0.00    +0.000 A 
ATOM     29  C   UNL     1       7.543   4.729  18.194  0.00  0.00    +0.000 A 
ENDBRANCH  23  24
ENDBRANCH  21  23
ENDBRANCH   5  21
BRANCH   7  30
ATOM     30  C   UNL     1       2.766   3.473  20.974  0.00  0.00    +0.000 C 
ATOM     31  N   UNL     1       2.429   2.992  21.973  0.00  0.00    +0.000 NA
ENDBRANCH   7  30
TORSDOF 7
ENDMDL
MODEL 6
REMARK VINA RESULT:      -8.6      1.437      2.619
REMARK  Name = 
REMARK  8 active torsions:
REMARK  status: ('A' for Active; 'I' for Inactive)
REMARK    1  A    between atoms: C_1  and  C_2
REMARK    2  A    between atoms: C_4  and  C_5
REMARK    3  A    between atoms: C_9  and  N_10
REMARK    4  A    between atoms: N_10  and  C_11
REMARK    5  A    between atoms: C_11  and  C_12
REMARK    6  A    between atoms: C_19  and  C_20
REMARK    7  A    between atoms: C_25  and  C_26
REMARK    8  A    between atoms: C_26  and  O_28
REMARK                            x       y       z     vdW  Elec       q    Type
REMARK                         _______ _______ _______ _____ _____    ______ ____
ROOT
ATOM      1  C   UNL     1       2.003   7.378  19.785  0.00  0.00    +0.000 A 
ATOM      2  C   UNL     1       2.660   7.347  18.571  0.00  0.00    +0.000 A 
ATOM      3  C   UNL     1       3.302   6.092  18.448  0.00  0.00    +0.000 A 
ATOM      4  C   UNL     1       4.188   5.548  17.499  0.00  0.00    +0.000 A 
ATOM      5  C   UNL     1       4.720   4.259  17.653  0.00  0.00    +0.000 A 
ATOM      6  C   UNL     1       4.297   3.504  18.750  0.00  0.00    +0.000 A 
ATOM      7  C   UNL     1       3.410   4.021  19.714  0.00  0.00    +0.000 A 
ATOM      8  C   UNL     1       2.939   5.329  19.557  0.00  0.00    +0.000 A 
ATOM      9  N   UNL     1       2.134   6.130  20.348  0.00  0.00    +0.000 N 
ATOM     10  H   UNL     1       1.735   5.869  21.243  0.00  0.00    +0.000 HD
ENDROOT
BRANCH   1  14
ATOM     11  C   UNL     1      -0.231   9.728  23.428  0.00  0.00    +0.000 C 
ATOM     12  C   UNL     1       0.299   9.590  22.042  0.00  0.00    +0.000 A 
ATOM     13  N   UNL     1       0.903   8.388  21.678  0.00  0.00    +0.000 NA
ATOM     14  C   UNL     1       1.317   8.454  20.433  0.00  0.00    +0.000 A 
ATOM     15  S   UNL     1       1.020   9.938  19.635  0.00  0.00    +0.000 S 
ATOM     16  C   UNL     1       0.256  10.549  21.039  0.00  0.00    +0.000 A 
BRANCH  16  17
ATOM     17  C   UNL     1      -0.325  11.875  21.076  0.00  0.00    +0.000 C 
ATOM     18  O   UNL     1      -1.380  12.202  20.555  0.00  0.00    +0.000 OA
BRANCH  17  19
ATOM     19  O   UNL     1       0.427  12.771  21.771  0.00  0.00    +0.000 OA
ATOM     20  H   UNL     1       1.298  12.924  21.352  0.00  0.00    +0.000 HD
ENDBRANCH  17  19
ENDBRANCH  16  17
ENDBRANCH   1  14
BRANCH   5  21
ATOM     21  N   UNL     1       5.692   3.839  16.760  0.00  0.00    +0.000 N 
ATOM     22  H   UNL     1       5.963   2.864  16.817  0.00  0.00    +0.000 HD
BRANCH  21  23
ATOM     23  C   UNL     1       6.716   4.701  16.197  0.00  0.00    +0.000 C 
BRANCH  23  24
ATOM     24  C   UNL     1       6.821   4.503  14.703  0.00  0.00    +0.000 A 
ATOM     25  C   UNL     1       5.959   3.620  14.036  0.00  0.00    +0.000 A 
ATOM     26  C   UNL     1       5.994   3.498  12.647  0.00  0.00    +0.000 A 
ATOM     27  C   UNL     1       6.899   4.251  11.904  0.00  0.00    +0.000 A 
ATOM     28  C   UNL     1       7.779   5.116  12.552  0.00  0.00    +0.000 A 
ATOM     29  C   UNL     1       7.742   5.242  13.943  0.00  0.00    +0.000 A 
ENDBRANCH  23  24
ENDBRANCH  21  23
ENDBRANCH   5  21
BRANCH   7  30
ATOM     30  C   UNL     1       3.020   3.263  20.860  0.00  0.00    +0.000 C 
ATOM     31  N   UNL     1       2.722   2.648  21.797  0.00  0.00    +0.000 NA
ENDBRANCH   7  30
TORSDOF 7
ENDMDL
MODEL 7
REMARK VINA RESULT:      -8.6      1.878      2.919
REMARK  Name = 
REMARK  8 active torsions:
REMARK  status: ('A' for Active; 'I' for Inactive)
REMARK    1  A    between atoms: C_1  and  C_2
REMARK    2  A    between atoms: C_4  and  C_5
REMARK    3  A    between atoms: C_9  and  N_10
REMARK    4  A    between atoms: N_10  and  C_11
REMARK    5  A    between atoms: C_11  and  C_12
REMARK    6  A    between atoms: C_19  and  C_20
REMARK    7  A    between atoms: C_25  and  C_26
REMARK    8  A    between atoms: C_26  and  O_28
REMARK                            x       y       z     vdW  Elec       q    Type
REMARK                         _______ _______ _______ _____ _____    ______ ____
ROOT
ATOM      1  C   UNL     1       2.134   7.563  19.464  0.00  0.00    +0.000 A 
ATOM      2  C   UNL     1       2.943   7.554  18.345  0.00  0.00    +0.000 A 
ATOM      3  C   UNL     1       3.602   6.304  18.286  0.00  0.00    +0.000 A 
ATOM      4  C   UNL     1       4.606   5.778  17.451  0.00  0.00    +0.000 A 
ATOM      5  C   UNL     1       5.121   4.489  17.651  0.00  0.00    +0.000 A 
ATOM      6  C   UNL     1       4.565   3.714  18.673  0.00  0.00    +0.000 A 
ATOM      7  C   UNL     1       3.558   4.212  19.522  0.00  0.00    +0.000 A 
ATOM      8  C   UNL     1       3.104   5.521  19.327  0.00  0.00    +0.000 A 
ATOM      9  N   UNL     1       2.199   6.306  20.020  0.00  0.00    +0.000 N 
ATOM     10  H   UNL     1       1.690   6.029  20.852  0.00  0.00    +0.000 HD
ENDROOT
BRANCH   1  14
ATOM     11  C   UNL     1      -0.555  11.631  19.517  0.00  0.00    +0.000 C 
ATOM     12  C   UNL     1       0.128  10.462  20.141  0.00  0.00    +0.000 A 
ATOM     13  N   UNL     1       0.845   9.595  19.318  0.00  0.00    +0.000 NA
ATOM     14  C   UNL     1       1.365   8.625  20.036  0.00  0.00    +0.000 A 
ATOM     15  S   UNL     1       1.027   8.685  21.713  0.00  0.00    +0.000 S 
ATOM     16  C   UNL     1       0.136  10.129  21.488  0.00  0.00    +0.000 A 
BRANCH  16  17
ATOM     17  C   UNL     1      -0.473  10.830  22.600  0.00  0.00    +0.000 C 
ATOM     18  O   UNL     1      -0.385  12.028  22.818  0.00  0.00    +0.000 OA
BRANCH  17  19
ATOM     19  O   UNL     1      -1.187  10.014  23.422  0.00  0.00    +0.000 OA
ATOM     20  H   UNL     1      -0.721   9.839  24.264  0.00  0.00    +0.000 HD
ENDBRANCH  17  19
ENDBRANCH  16  17
ENDBRANCH   1  14
BRANCH   5  21
ATOM     21  N   UNL     1       6.202   4.087  16.884  0.00  0.00    +0.000 N 
ATOM     22  H   UNL     1       6.685   3.250  17.191  0.00  0.00    +0.000 HD
BRANCH  21  23
ATOM     23  C   UNL     1       7.029   4.985  16.097  0.00  0.00    +0.000 C 
BRANCH  23  24
ATOM     24  C   UNL     1       6.889   4.689  14.623  0.00  0.00    +0.000 A 
ATOM     25  C   UNL     1       7.739   5.298  13.687  0.00  0.00    +0.000 A 
ATOM     26  C   UNL     1       7.671   4.964  12.334  0.00  0.00    +0.000 A 
ATOM     27  C   UNL     1       6.747   4.021  11.896  0.00  0.00    +0.000 A 
ATOM     28  C   UNL     1       5.878   3.423  12.807  0.00  0.00    +0.000 A 
ATOM     29  C   UNL     1       5.948   3.754  14.163  0.00  0.00    +0.000 A 
ENDBRANCH  23  24
ENDBRANCH  21  23
ENDBRANCH   5  21
BRANCH   7  30
ATOM     30  C   UNL     1       3.028   3.434  20.597  0.00  0.00    +0.000 C 
ATOM     31  N   UNL     1       2.615   2.803  21.477  0.00  0.00    +0.000 NA
ENDBRANCH   7  30
TORSDOF 7
ENDMDL
MODEL 8
REMARK VINA RESULT:      -8.4      1.517      2.575
REMARK  Name = 
REMARK  8 active torsions:
REMARK  status: ('A' for Active; 'I' for Inactive)
REMARK    1  A    between atoms: C_1  and  C_2
REMARK    2  A    between atoms: C_4  and  C_5
REMARK    3  A    between atoms: C_9  and  N_10
REMARK    4  A    between atoms: N_10  and  C_11
REMARK    5  A    between atoms: C_11  and  C_12
REMARK    6  A    between atoms: C_19  and  C_20
REMARK    7  A    between atoms: C_25  and  C_26
REMARK    8  A    between atoms: C_26  and  O_28
REMARK                            x       y       z     vdW  Elec       q    Type
REMARK                         _______ _______ _______ _____ _____    ______ ____
ROOT
ATOM      1  C   UNL     1       2.115   7.449  19.684  0.00  0.00    +0.000 A 
ATOM      2  C   UNL     1       2.900   7.496  18.549  0.00  0.00    +0.000 A 
ATOM      3  C   UNL     1       3.565   6.254  18.421  0.00  0.00    +0.000 A 
ATOM      4  C   UNL     1       4.555   5.774  17.543  0.00  0.00    +0.000 A 
ATOM      5  C   UNL     1       5.082   4.480  17.675  0.00  0.00    +0.000 A 
ATOM      6  C   UNL     1       4.552   3.657  18.671  0.00  0.00    +0.000 A 
ATOM      7  C   UNL     1       3.560   4.109  19.563  0.00  0.00    +0.000 A 
ATOM      8  C   UNL     1       3.094   5.422  19.436  0.00  0.00    +0.000 A 
ATOM      9  N   UNL     1       2.199   6.169  20.181  0.00  0.00    +0.000 N 
ATOM     10  H   UNL     1       1.708   5.852  21.011  0.00  0.00    +0.000 HD
ENDROOT
BRANCH   1  14
ATOM     11  C   UNL     1      -0.238   9.702  23.314  0.00  0.00    +0.000 C 
ATOM     12  C   UNL     1       0.272   9.570  21.919  0.00  0.00    +0.000 A 
ATOM     13  N   UNL     1       0.972   8.415  21.575  0.00  0.00    +0.000 NA
ATOM     14  C   UNL     1       1.351   8.479  20.319  0.00  0.00    +0.000 A 
ATOM     15  S   UNL     1       0.906   9.907  19.486  0.00  0.00    +0.000 S 
ATOM     16  C   UNL     1       0.122  10.490  20.892  0.00  0.00    +0.000 A 
BRANCH  16  17
ATOM     17  C   UNL     1      -0.573  11.761  20.905  0.00  0.00    +0.000 C 
ATOM     18  O   UNL     1      -0.400  12.656  21.717  0.00  0.00    +0.000 OA
BRANCH  17  19
ATOM     19  O   UNL     1      -1.478  11.887  19.896  0.00  0.00    +0.000 OA
ATOM     20  H   UNL     1      -1.702  11.025  19.491  0.00  0.00    +0.000 HD
ENDBRANCH  17  19
ENDBRANCH  16  17
ENDBRANCH   1  14
BRANCH   5  21
ATOM     21  N   UNL     1       6.149   4.121  16.869  0.00  0.00    +0.000 N 
ATOM     22  H   UNL     1       6.676   3.304  17.157  0.00  0.00    +0.000 HD
BRANCH  21  23
ATOM     23  C   UNL     1       6.911   5.050  16.052  0.00  0.00    +0.000 C 
BRANCH  23  24
ATOM     24  C   UNL     1       6.802   4.692  14.589  0.00  0.00    +0.000 A 
ATOM     25  C   UNL     1       7.696   5.230  13.652  0.00  0.00    +0.000 A 
ATOM     26  C   UNL     1       7.655   4.837  12.314  0.00  0.00    +0.000 A 
ATOM     27  C   UNL     1       6.712   3.906  11.891  0.00  0.00    +0.000 A 
ATOM     28  C   UNL     1       5.800   3.378  12.803  0.00  0.00    +0.000 A 
ATOM     29  C   UNL     1       5.843   3.768  14.144  0.00  0.00    +0.000 A 
ENDBRANCH  23  24
ENDBRANCH  21  23
ENDBRANCH   5  21
BRANCH   7  30
ATOM     30  C   UNL     1       3.057   3.280  20.612  0.00  0.00    +0.000 C 
ATOM     31  N   UNL     1       2.635   2.603  21.453  0.00  0.00    +0.000 NA
ENDBRANCH   7  30
TORSDOF 7
ENDMDL
MODEL 9
REMARK VINA RESULT:      -8.3      1.057      1.718
REMARK  Name = 
REMARK  8 active torsions:
REMARK  status: ('A' for Active; 'I' for Inactive)
REMARK    1  A    between atoms: C_1  and  C_2
REMARK    2  A    between atoms: C_4  and  C_5
REMARK    3  A    between atoms: C_9  and  N_10
REMARK    4  A    between atoms: N_10  and  C_11
REMARK    5  A    between atoms: C_11  and  C_12
REMARK    6  A    between atoms: C_19  and  C_20
REMARK    7  A    between atoms: C_25  and  C_26
REMARK    8  A    between atoms: C_26  and  O_28
REMARK                            x       y       z     vdW  Elec       q    Type
REMARK                         _______ _______ _______ _____ _____    ______ ____
ROOT
ATOM      1  C   UNL     1       1.922   7.520  19.445  0.00  0.00    +0.000 A 
ATOM      2  C   UNL     1       2.523   7.293  18.223  0.00  0.00    +0.000 A 
ATOM      3  C   UNL     1       3.096   6.000  18.246  0.00  0.00    +0.000 A 
ATOM      4  C   UNL     1       3.913   5.288  17.347  0.00  0.00    +0.000 A 
ATOM      5  C   UNL     1       4.387   4.004  17.652  0.00  0.00    +0.000 A 
ATOM      6  C   UNL     1       3.976   3.424  18.855  0.00  0.00    +0.000 A 
ATOM      7  C   UNL     1       3.158   4.111  19.773  0.00  0.00    +0.000 A 
ATOM      8  C   UNL     1       2.746   5.411  19.460  0.00  0.00    +0.000 A 
ATOM      9  N   UNL     1       2.016   6.352  20.165  0.00  0.00    +0.000 N 
ATOM     10  H   UNL     1       1.644   6.233  21.102  0.00  0.00    +0.000 HD
ENDROOT
BRANCH   1  14
ATOM     11  C   UNL     1       0.034  12.016  19.340  0.00  0.00    +0.000 C 
ATOM     12  C   UNL     1       0.438  10.741  20.001  0.00  0.00    +0.000 A 
ATOM     13  N   UNL     1       1.046   9.755  19.225  0.00  0.00    +0.000 NA
ATOM     14  C   UNL     1       1.319   8.707  19.969  0.00  0.00    +0.000 A 
ATOM     15  S   UNL     1       0.866   8.832  21.615  0.00  0.00    +0.000 S 
ATOM     16  C   UNL     1       0.277  10.415  21.340  0.00  0.00    +0.000 A 
BRANCH  16  17
ATOM     17  C   UNL     1      -0.278  11.219  22.409  0.00  0.00    +0.000 C 
ATOM     18  O   UNL     1      -0.930  10.795  23.351  0.00  0.00    +0.000 OA
BRANCH  17  19
ATOM     19  O   UNL     1      -0.005  12.546  22.280  0.00  0.00    +0.000 OA
ATOM     20  H   UNL     1       0.918  12.707  21.995  0.00  0.00    +0.000 HD
ENDBRANCH  17  19
ENDBRANCH  16  17
ENDBRANCH   1  14
BRANCH   5  21
ATOM     21  N   UNL     1       5.297   3.418  16.788  0.00  0.00    +0.000 N 
ATOM     22  H   UNL     1       5.469   2.427  16.921  0.00  0.00    +0.000 HD
BRANCH  21  23
ATOM     23  C   UNL     1       6.394   4.123  16.150  0.00  0.00    +0.000 C 
BRANCH  23  24
ATOM     24  C   UNL     1       6.957   5.183  17.066  0.00  0.00    +0.000 A 
ATOM     25  C   UNL     1       7.506   4.836  18.310  0.00  0.00    +0.000 A 
ATOM     26  C   UNL     1       8.104   5.799  19.123  0.00  0.00    +0.000 A 
ATOM     27  C   UNL     1       8.153   7.126  18.708  0.00  0.00    +0.000 A 
ATOM     28  C   UNL     1       7.592   7.494  17.487  0.00  0.00    +0.000 A 
ATOM     29  C   UNL     1       6.996   6.529  16.670  0.00  0.00    +0.000 A 
ENDBRANCH  23  24
ENDBRANCH  21  23
ENDBRANCH   5  21
BRANCH   7  30
ATOM     30  C   UNL     1       2.782   3.533  21.024  0.00  0.00    +0.000 C 
ATOM     31  N   UNL     1       2.460   3.067  22.036  0.00  0.00    +0.000 NA
ENDBRANCH   7  30
TORSDOF 7
ENDMDL
