MODEL 1
REMARK VINA RESULT:      -7.5      0.000      0.000
REMARK  Name = 
REMARK  9 active torsions:
REMARK  status: ('A' for Active; 'I' for Inactive)
REMARK    1  A    between atoms: C_1  and  C_2
REMARK    2  A    between atoms: C_5  and  C_6
REMARK    3  A    between atoms: C_7  and  N_8
REMARK    4  A    between atoms: N_11  and  C_12
REMARK    5  A    between atoms: C_12  and  C_13
REMARK    6  A    between atoms: C_12  and  C_21
REMARK    7  A    between atoms: N_15  and  C_16
REMARK    8  A    between atoms: C_21  and  C_22
REMARK    9  A    between atoms: C_21  and  C_23
REMARK                            x       y       z     vdW  Elec       q    Type
REMARK                         _______ _______ _______ _____ _____    ______ ____
ROOT
ATOM      1  N   UNL     1       2.388   6.906  19.636  0.00  0.00    +0.000 N 
ATOM      2  C   UNL     1       3.655   6.968  18.892  0.00  0.00    +0.000 C 
ATOM      3  C   UNL     1       4.638   5.855  19.344  0.00  0.00    +0.000 C 
ATOM      4  N   UNL     1       4.084   4.458  19.373  0.00  0.00    +0.000 NA
ATOM      5  C   UNL     1       2.902   4.569  20.264  0.00  0.00    +0.000 C 
ATOM      6  C   UNL     1       1.809   5.565  19.805  0.00  0.00    +0.000 C 
ENDROOT
BRANCH   1  13
ATOM      7  C   UNL     1       0.161   9.399  23.247  0.00  0.00    +0.000 C 
ATOM      8  C   UNL     1       0.600   9.337  21.814  0.00  0.00    +0.000 A 
ATOM      9  C   UNL     1       0.402  10.409  20.956  0.00  0.00    +0.000 A 
ATOM     10  C   UNL     1       0.800  10.305  19.628  0.00  0.00    +0.000 A 
ATOM     11  C   UNL     1       1.408   9.135  19.121  0.00  0.00    +0.000 A 
ATOM     12  C   UNL     1       1.686   9.122  17.640  0.00  0.00    +0.000 C 
ATOM     13  C   UNL     1       1.679   8.048  19.987  0.00  0.00    +0.000 A 
ATOM     14  C   UNL     1       1.234   8.183  21.324  0.00  0.00    +0.000 A 
ENDBRANCH   1  13
BRANCH   4  15
ATOM     15  C   UNL     1       3.786   3.976  17.978  0.00  0.00    +0.000 C 
BRANCH  15  16
ATOM     16  C   UNL     1       5.144   3.929  17.192  0.00  0.00    +0.000 C 
ATOM     17  O   UNL     1       6.230   3.982  17.767  0.00  0.00    +0.000 OA
ATOM     18  N   UNL     1       5.015   3.806  15.824  0.00  0.00    +0.000 N 
ATOM     19  H   UNL     1       4.073   3.738  15.456  0.00  0.00    +0.000 HD
BRANCH  18  20
ATOM     20  C   UNL     1       6.141   3.802  14.915  0.00  0.00    +0.000 C 
ATOM     21  C   UNL     1       5.705   3.652  13.461  0.00  0.00    +0.000 C 
ATOM     22  C   UNL     1       6.892   4.172  12.666  0.00  0.00    +0.000 C 
ATOM     23  C   UNL     1       7.516   5.265  13.530  0.00  0.00    +0.000 C 
ATOM     24  C   UNL     1       6.898   5.131  14.921  0.00  0.00    +0.000 C 
ENDBRANCH  18  20
ENDBRANCH  15  16
BRANCH  15  25
ATOM     25  C   UNL     1       3.115   2.562  17.810  0.00  0.00    +0.000 C 
ATOM     26  C   UNL     1       3.653   1.445  18.710  0.00  0.00    +0.000 C 
ATOM     27  C   UNL     1       1.601   2.658  18.099  0.00  0.00    +0.000 C 
ENDBRANCH  15  25
ENDBRANCH   4  15
TORSDOF 5
ENDMDL
MODEL 2
REMARK VINA RESULT:      -7.5      1.200      1.363
REMARK  Name = 
REMARK  9 active torsions:
REMARK  status: ('A' for Active; 'I' for Inactive)
REMARK    1  A    between atoms: C_1  and  C_2
REMARK    2  A    between atoms: C_5  and  C_6
REMARK    3  A    between atoms: C_7  and  N_8
REMARK    4  A    between atoms: N_11  and  C_12
REMARK    5  A    between atoms: C_12  and  C_13
REMARK    6  A    between atoms: C_12  and  C_21
REMARK    7  A    between atoms: N_15  and  C_16
REMARK    8  A    between atoms: C_21  and  C_22
REMARK    9  A    between atoms: C_21  and  C_23
REMARK                            x       y       z     vdW  Elec       q    Type
REMARK                         _______ _______ _______ _____ _____    ______ ____
ROOT
ATOM      1  N   UNL     1       1.878   7.067  19.986  0.00  0.00    +0.000 N 
ATOM      2  C   UNL     1       2.871   6.828  18.927  0.00  0.00    +0.000 C 
ATOM      3  C   UNL     1       3.940   5.795  19.368  0.00  0.00    +0.000 C 
ATOM      4  N   UNL     1       3.416   4.504  19.934  0.00  0.00    +0.000 NA
ATOM      5  C   UNL     1       2.548   4.940  21.056  0.00  0.00    +0.000 C 
ATOM      6  C   UNL     1       1.372   5.869  20.672  0.00  0.00    +0.000 C 
ENDROOT
BRANCH   1  13
ATOM      7  C   UNL     1      -0.429  10.035  23.163  0.00  0.00    +0.000 C 
ATOM      8  C   UNL     1       0.190   9.837  21.811  0.00  0.00    +0.000 A 
ATOM      9  C   UNL     1       0.277  10.883  20.902  0.00  0.00    +0.000 A 
ATOM     10  C   UNL     1       0.836  10.655  19.649  0.00  0.00    +0.000 A 
ATOM     11  C   UNL     1       1.326   9.386  19.270  0.00  0.00    +0.000 A 
ATOM     12  C   UNL     1       1.801   9.258  17.846  0.00  0.00    +0.000 C 
ATOM     13  C   UNL     1       1.307   8.317  20.198  0.00  0.00    +0.000 A 
ATOM     14  C   UNL     1       0.706   8.581  21.451  0.00  0.00    +0.000 A 
ENDBRANCH   1  13
BRANCH   4  15
ATOM     15  C   UNL     1       2.719   3.702  18.867  0.00  0.00    +0.000 C 
BRANCH  15  16
ATOM     16  C   UNL     1       3.817   3.173  17.877  0.00  0.00    +0.000 C 
ATOM     17  O   UNL     1       4.130   1.985  17.828  0.00  0.00    +0.000 OA
ATOM     18  N   UNL     1       4.377   4.140  17.067  0.00  0.00    +0.000 N 
ATOM     19  H   UNL     1       4.024   5.084  17.167  0.00  0.00    +0.000 HD
BRANCH  18  20
ATOM     20  C   UNL     1       5.445   3.870  16.128  0.00  0.00    +0.000 C 
ATOM     21  C   UNL     1       5.111   4.360  14.723  0.00  0.00    +0.000 C 
ATOM     22  C   UNL     1       6.465   4.469  14.040  0.00  0.00    +0.000 C 
ATOM     23  C   UNL     1       7.449   4.849  15.142  0.00  0.00    +0.000 C 
ATOM     24  C   UNL     1       6.728   4.629  16.471  0.00  0.00    +0.000 C 
ENDBRANCH  18  20
ENDBRANCH  15  16
BRANCH  15  25
ATOM     25  C   UNL     1       1.871   2.453  19.313  0.00  0.00    +0.000 C 
ATOM     26  C   UNL     1       1.759   2.214  20.822  0.00  0.00    +0.000 C 
ATOM     27  C   UNL     1       0.424   2.582  18.788  0.00  0.00    +0.000 C 
ENDBRANCH  15  25
ENDBRANCH   4  15
TORSDOF 5
ENDMDL
MODEL 3
REMARK VINA RESULT:      -7.2      1.866      7.507
REMARK  Name = 
REMARK  9 active torsions:
REMARK  status: ('A' for Active; 'I' for Inactive)
REMARK    1  A    between atoms: C_1  and  C_2
REMARK    2  A    between atoms: C_5  and  C_6
REMARK    3  A    between atoms: C_7  and  N_8
REMARK    4  A    between atoms: N_11  and  C_12
REMARK    5  A    between atoms: C_12  and  C_13
REMARK    6  A    between atoms: C_12  and  C_21
REMARK    7  A    between atoms: N_15  and  C_16
REMARK    8  A    between atoms: C_21  and  C_22
REMARK    9  A    between atoms: C_21  and  C_23
REMARK                            x       y       z     vdW  Elec       q    Type
REMARK                         _______ _______ _______ _____ _____    ______ ____
ROOT
ATOM      1  N   UNL     1       4.534   4.349  16.951  0.00  0.00    +0.000 N 
ATOM      2  C   UNL     1       3.664   5.480  17.308  0.00  0.00    +0.000 C 
ATOM      3  C   UNL     1       2.234   5.006  17.681  0.00  0.00    +0.000 C 
ATOM      4  N   UNL     1       2.150   3.904  18.700  0.00  0.00    +0.000 NA
ATOM      5  C   UNL     1       2.974   2.819  18.110  0.00  0.00    +0.000 C 
ATOM      6  C   UNL     1       4.454   3.176  17.834  0.00  0.00    +0.000 C 
ENDROOT
BRANCH   1  13
ATOM      7  C   UNL     1       5.791   3.306  12.308  0.00  0.00    +0.000 C 
ATOM      8  C   UNL     1       6.130   3.971  13.610  0.00  0.00    +0.000 A 
ATOM      9  C   UNL     1       7.288   4.723  13.751  0.00  0.00    +0.000 A 
ATOM     10  C   UNL     1       7.580   5.303  14.980  0.00  0.00    +0.000 A 
ATOM     11  C   UNL     1       6.728   5.155  16.097  0.00  0.00    +0.000 A 
ATOM     12  C   UNL     1       7.225   5.745  17.392  0.00  0.00    +0.000 C 
ATOM     13  C   UNL     1       5.509   4.447  15.966  0.00  0.00    +0.000 A 
ATOM     14  C   UNL     1       5.262   3.848  14.708  0.00  0.00    +0.000 A 
ENDBRANCH   1  13
BRANCH   4  15
ATOM     15  C   UNL     1       2.612   4.391  20.048  0.00  0.00    +0.000 C 
BRANCH  15  16
ATOM     16  C   UNL     1       1.794   5.685  20.390  0.00  0.00    +0.000 C 
ATOM     17  O   UNL     1       0.601   5.641  20.688  0.00  0.00    +0.000 OA
ATOM     18  N   UNL     1       2.522   6.857  20.349  0.00  0.00    +0.000 N 
ATOM     19  H   UNL     1       3.507   6.777  20.124  0.00  0.00    +0.000 HD
BRANCH  18  20
ATOM     20  C   UNL     1       1.942   8.163  20.576  0.00  0.00    +0.000 C 
ATOM     21  C   UNL     1       1.377   8.771  19.297  0.00  0.00    +0.000 C 
ATOM     22  C   UNL     1       0.402   9.828  19.791  0.00  0.00    +0.000 C 
ATOM     23  C   UNL     1      -0.158   9.285  21.103  0.00  0.00    +0.000 C 
ATOM     24  C   UNL     1       0.730   8.109  21.506  0.00  0.00    +0.000 C 
ENDBRANCH  18  20
ENDBRANCH  15  16
BRANCH  15  25
ATOM     25  C   UNL     1       2.462   3.420  21.278  0.00  0.00    +0.000 C 
ATOM     26  C   UNL     1       1.148   2.638  21.368  0.00  0.00    +0.000 C 
ATOM     27  C   UNL     1       3.591   2.366  21.260  0.00  0.00    +0.000 C 
ENDBRANCH  15  25
ENDBRANCH   4  15
TORSDOF 5
ENDMDL
MODEL 4
REMARK VINA RESULT:      -7.1      2.219      3.695
REMARK  Name = 
REMARK  9 active torsions:
REMARK  status: ('A' for Active; 'I' for Inactive)
REMARK    1  A    between atoms: C_1  and  C_2
REMARK    2  A    between atoms: C_5  and  C_6
REMARK    3  A    between atoms: C_7  and  N_8
REMARK    4  A    between atoms: N_11  and  C_12
REMARK    5  A    between atoms: C_12  and  C_13
REMARK    6  A    between atoms: C_12  and  C_21
REMARK    7  A    between atoms: N_15  and  C_16
REMARK    8  A    between atoms: C_21  and  C_22
REMARK    9  A    between atoms: C_21  and  C_23
REMARK                            x       y       z     vdW  Elec       q    Type
REMARK                         _______ _______ _______ _____ _____    ______ ____
ROOT
ATOM      1  N   UNL     1       0.510   9.253  19.241  0.00  0.00    +0.000 N 
ATOM      2  C   UNL     1       1.184   8.697  18.057  0.00  0.00    +0.000 C 
ATOM      3  C   UNL     1       2.566   8.092  18.419  0.00  0.00    +0.000 C 
ATOM      4  N   UNL     1       2.582   7.123  19.568  0.00  0.00    +0.000 NA
ATOM      5  C   UNL     1       1.990   7.898  20.687  0.00  0.00    +0.000 C 
ATOM      6  C   UNL     1       0.553   8.422  20.453  0.00  0.00    +0.000 C 
ENDROOT
BRANCH   1  13
ATOM      7  C   UNL     1      -3.624  11.277  17.500  0.00  0.00    +0.000 C 
ATOM      8  C   UNL     1      -2.391  11.406  18.344  0.00  0.00    +0.000 A 
ATOM      9  C   UNL     1      -2.147  12.551  19.088  0.00  0.00    +0.000 A 
ATOM     10  C   UNL     1      -0.980  12.644  19.839  0.00  0.00    +0.000 A 
ATOM     11  C   UNL     1      -0.030  11.598  19.873  0.00  0.00    +0.000 A 
ATOM     12  C   UNL     1       1.236  11.880  20.640  0.00  0.00    +0.000 C 
ATOM     13  C   UNL     1      -0.282  10.393  19.174  0.00  0.00    +0.000 A 
ATOM     14  C   UNL     1      -1.466  10.350  18.400  0.00  0.00    +0.000 A 
ENDBRANCH   1  13
BRANCH   4  15
ATOM     15  C   UNL     1       1.844   5.861  19.209  0.00  0.00    +0.000 C 
BRANCH  15  16
ATOM     16  C   UNL     1       2.753   5.042  18.226  0.00  0.00    +0.000 C 
ATOM     17  O   UNL     1       2.282   4.249  17.412  0.00  0.00    +0.000 OA
ATOM     18  N   UNL     1       4.104   5.300  18.340  0.00  0.00    +0.000 N 
ATOM     19  H   UNL     1       4.383   5.995  19.022  0.00  0.00    +0.000 HD
BRANCH  18  20
ATOM     20  C   UNL     1       5.115   4.609  17.567  0.00  0.00    +0.000 C 
ATOM     21  C   UNL     1       5.340   5.260  16.206  0.00  0.00    +0.000 C 
ATOM     22  C   UNL     1       6.713   4.761  15.783  0.00  0.00    +0.000 C 
ATOM     23  C   UNL     1       7.504   4.594  17.078  0.00  0.00    +0.000 C 
ATOM     24  C   UNL     1       6.495   4.674  18.222  0.00  0.00    +0.000 C 
ENDBRANCH  18  20
ENDBRANCH  15  16
BRANCH  15  25
ATOM     25  C   UNL     1       1.437   4.883  20.373  0.00  0.00    +0.000 C 
ATOM     26  C   UNL     1       0.664   3.625  19.962  0.00  0.00    +0.000 C 
ATOM     27  C   UNL     1       2.699   4.390  21.114  0.00  0.00    +0.000 C 
ENDBRANCH  15  25
ENDBRANCH   4  15
TORSDOF 5
ENDMDL
MODEL 5
REMARK VINA RESULT:      -7.0      2.178      3.582
REMARK  Name = 
REMARK  9 active torsions:
REMARK  status: ('A' for Active; 'I' for Inactive)
REMARK    1  A    between atoms: C_1  and  C_2
REMARK    2  A    between atoms: C_5  and  C_6
REMARK    3  A    between atoms: C_7  and  N_8
REMARK    4  A    between atoms: N_11  and  C_12
REMARK    5  A    between atoms: C_12  and  C_13
REMARK    6  A    between atoms: C_12  and  C_21
REMARK    7  A    between atoms: N_15  and  C_16
REMARK    8  A    between atoms: C_21  and  C_22
REMARK    9  A    between atoms: C_21  and  C_23
REMARK                            x       y       z     vdW  Elec       q    Type
REMARK                         _______ _______ _______ _____ _____    ______ ____
ROOT
ATOM      1  N   UNL     1       0.907   9.417  18.945  0.00  0.00    +0.000 N 
ATOM      2  C   UNL     1       1.636   8.732  17.867  0.00  0.00    +0.000 C 
ATOM      3  C   UNL     1       2.870   7.964  18.409  0.00  0.00    +0.000 C 
ATOM      4  N   UNL     1       2.616   7.046  19.572  0.00  0.00    +0.000 NA
ATOM      5  C   UNL     1       2.005   7.934  20.593  0.00  0.00    +0.000 C 
ATOM      6  C   UNL     1       0.691   8.633  20.170  0.00  0.00    +0.000 C 
ENDROOT
BRANCH   1  13
ATOM      7  C   UNL     1       1.384  14.312  19.132  0.00  0.00    +0.000 C 
ATOM      8  C   UNL     1       0.539  13.118  18.797  0.00  0.00    +0.000 A 
ATOM      9  C   UNL     1      -0.719  13.265  18.231  0.00  0.00    +0.000 A 
ATOM     10  C   UNL     1      -1.483  12.135  17.958  0.00  0.00    +0.000 A 
ATOM     11  C   UNL     1      -1.013  10.832  18.236  0.00  0.00    +0.000 A 
ATOM     12  C   UNL     1      -1.990   9.711  17.992  0.00  0.00    +0.000 C 
ATOM     13  C   UNL     1       0.290  10.648  18.756  0.00  0.00    +0.000 A 
ATOM     14  C   UNL     1       1.024  11.823  19.046  0.00  0.00    +0.000 A 
ENDBRANCH   1  13
BRANCH   4  15
ATOM     15  C   UNL     1       1.763   5.880  19.151  0.00  0.00    +0.000 C 
BRANCH  15  16
ATOM     16  C   UNL     1       2.546   5.094  18.042  0.00  0.00    +0.000 C 
ATOM     17  O   UNL     1       1.990   4.281  17.304  0.00  0.00    +0.000 OA
ATOM     18  N   UNL     1       3.888   5.403  17.954  0.00  0.00    +0.000 N 
ATOM     19  H   UNL     1       4.239   6.110  18.588  0.00  0.00    +0.000 HD
BRANCH  18  20
ATOM     20  C   UNL     1       4.798   4.749  17.037  0.00  0.00    +0.000 C 
ATOM     21  C   UNL     1       5.185   5.652  15.871  0.00  0.00    +0.000 C 
ATOM     22  C   UNL     1       6.469   5.037  15.339  0.00  0.00    +0.000 C 
ATOM     23  C   UNL     1       7.168   4.435  16.555  0.00  0.00    +0.000 C 
ATOM     24  C   UNL     1       6.141   4.417  17.687  0.00  0.00    +0.000 C 
ENDBRANCH  18  20
ENDBRANCH  15  16
BRANCH  15  25
ATOM     25  C   UNL     1       1.350   4.828  20.247  0.00  0.00    +0.000 C 
ATOM     26  C   UNL     1       0.675   3.550  19.740  0.00  0.00    +0.000 C 
ATOM     27  C   UNL     1       2.596   4.373  21.038  0.00  0.00    +0.000 C 
ENDBRANCH  15  25
ENDBRANCH   4  15
TORSDOF 5
ENDMDL
MODEL 6
REMARK VINA RESULT:      -7.0      3.282      9.356
REMARK  Name = 
REMARK  9 active torsions:
REMARK  status: ('A' for Active; 'I' for Inactive)
REMARK    1  A    between atoms: C_1  and  C_2
REMARK    2  A    between atoms: C_5  and  C_6
REMARK    3  A    between atoms: C_7  and  N_8
REMARK    4  A    between atoms: N_11  and  C_12
REMARK    5  A    between atoms: C_12  and  C_13
REMARK    6  A    between atoms: C_12  and  C_21
REMARK    7  A    between atoms: N_15  and  C_16
REMARK    8  A    between atoms: C_21  and  C_22
REMARK    9  A    between atoms: C_21  and  C_23
REMARK                            x       y       z     vdW  Elec       q    Type
REMARK                         _______ _______ _______ _____ _____    ______ ____
ROOT
ATOM      1  N   UNL     1       2.012   7.296  18.745  0.00  0.00    +0.000 N 
ATOM      2  C   UNL     1       1.728   7.575  20.161  0.00  0.00    +0.000 C 
ATOM      3  C   UNL     1       1.933   9.076  20.500  0.00  0.00    +0.000 C 
ATOM      4  N   UNL     1       1.240  10.056  19.595  0.00  0.00    +0.000 NA
ATOM      5  C   UNL     1       1.745   9.704  18.245  0.00  0.00    +0.000 C 
ATOM      6  C   UNL     1       1.458   8.256  17.779  0.00  0.00    +0.000 C 
ENDROOT
BRANCH   1  13
ATOM      7  C   UNL     1       1.560   2.406  18.411  0.00  0.00    +0.000 C 
ATOM      8  C   UNL     1       2.351   3.645  18.107  0.00  0.00    +0.000 A 
ATOM      9  C   UNL     1       3.517   3.585  17.358  0.00  0.00    +0.000 A 
ATOM     10  C   UNL     1       4.236   4.751  17.118  0.00  0.00    +0.000 A 
ATOM     11  C   UNL     1       3.812   6.004  17.613  0.00  0.00    +0.000 A 
ATOM     12  C   UNL     1       4.746   7.162  17.371  0.00  0.00    +0.000 C 
ATOM     13  C   UNL     1       2.594   6.105  18.327  0.00  0.00    +0.000 A 
ATOM     14  C   UNL     1       1.907   4.893  18.574  0.00  0.00    +0.000 A 
ENDBRANCH   1  13
BRANCH   4  15
ATOM     15  C   UNL     1      -0.254   9.965  19.759  0.00  0.00    +0.000 C 
BRANCH  15  16
ATOM     16  C   UNL     1      -0.592  10.332  21.247  0.00  0.00    +0.000 C 
ATOM     17  O   UNL     1      -0.663   9.476  22.128  0.00  0.00    +0.000 OA
ATOM     18  N   UNL     1      -0.780  11.679  21.481  0.00  0.00    +0.000 N 
ATOM     19  H   UNL     1      -0.667  12.303  20.691  0.00  0.00    +0.000 HD
BRANCH  18  20
ATOM     20  C   UNL     1      -1.155  12.218  22.771  0.00  0.00    +0.000 C 
ATOM     21  C   UNL     1      -0.850  13.708  22.881  0.00  0.00    +0.000 C 
ATOM     22  C   UNL     1      -1.738  14.183  24.020  0.00  0.00    +0.000 C 
ATOM     23  C   UNL     1      -2.987  13.308  23.955  0.00  0.00    +0.000 C 
ATOM     24  C   UNL     1      -2.663  12.148  23.015  0.00  0.00    +0.000 C 
ENDBRANCH  18  20
ENDBRANCH  15  16
BRANCH  15  25
ATOM     25  C   UNL     1      -1.157  10.879  18.850  0.00  0.00    +0.000 C 
ATOM     26  C   UNL     1      -0.499  12.149  18.299  0.00  0.00    +0.000 C 
ATOM     27  C   UNL     1      -1.649  10.082  17.622  0.00  0.00    +0.000 C 
ENDBRANCH  15  25
ENDBRANCH   4  15
TORSDOF 5
ENDMDL
MODEL 7
REMARK VINA RESULT:      -6.9      3.837      9.603
REMARK  Name = 
REMARK  9 active torsions:
REMARK  status: ('A' for Active; 'I' for Inactive)
REMARK    1  A    between atoms: C_1  and  C_2
REMARK    2  A    between atoms: C_5  and  C_6
REMARK    3  A    between atoms: C_7  and  N_8
REMARK    4  A    between atoms: N_11  and  C_12
REMARK    5  A    between atoms: C_12  and  C_13
REMARK    6  A    between atoms: C_12  and  C_21
REMARK    7  A    between atoms: N_15  and  C_16
REMARK    8  A    between atoms: C_21  and  C_22
REMARK    9  A    between atoms: C_21  and  C_23
REMARK                            x       y       z     vdW  Elec       q    Type
REMARK                         _______ _______ _______ _____ _____    ______ ____
ROOT
ATOM      1  N   UNL     1       1.796   7.843  19.593  0.00  0.00    +0.000 N 
ATOM      2  C   UNL     1       1.307   8.435  20.847  0.00  0.00    +0.000 C 
ATOM      3  C   UNL     1       1.534   9.969  20.882  0.00  0.00    +0.000 C 
ATOM      4  N   UNL     1       1.046  10.736  19.685  0.00  0.00    +0.000 NA
ATOM      5  C   UNL     1       1.739  10.084  18.545  0.00  0.00    +0.000 C 
ATOM      6  C   UNL     1       1.453   8.574  18.363  0.00  0.00    +0.000 C 
ENDROOT
BRANCH   1  13
ATOM      7  C   UNL     1       1.906   3.310  21.506  0.00  0.00    +0.000 C 
ATOM      8  C   UNL     1       2.398   4.277  20.470  0.00  0.00    +0.000 A 
ATOM      9  C   UNL     1       3.279   3.875  19.475  0.00  0.00    +0.000 A 
ATOM     10  C   UNL     1       3.733   4.805  18.547  0.00  0.00    +0.000 A 
ATOM     11  C   UNL     1       3.319   6.156  18.580  0.00  0.00    +0.000 A 
ATOM     12  C   UNL     1       3.976   7.074  17.582  0.00  0.00    +0.000 C 
ATOM     13  C   UNL     1       2.374   6.580  19.545  0.00  0.00    +0.000 A 
ATOM     14  C   UNL     1       1.958   5.611  20.488  0.00  0.00    +0.000 A 
ENDBRANCH   1  13
BRANCH   4  15
ATOM     15  C   UNL     1      -0.458  10.708  19.614  0.00  0.00    +0.000 C 
BRANCH  15  16
ATOM     16  C   UNL     1      -0.997  11.883  20.503  0.00  0.00    +0.000 C 
ATOM     17  O   UNL     1      -0.334  12.898  20.711  0.00  0.00    +0.000 OA
ATOM     18  N   UNL     1      -2.267  11.691  21.006  0.00  0.00    +0.000 N 
ATOM     19  H   UNL     1      -2.739  10.832  20.747  0.00  0.00    +0.000 HD
BRANCH  18  20
ATOM     20  C   UNL     1      -2.923  12.628  21.894  0.00  0.00    +0.000 C 
ATOM     21  C   UNL     1      -4.416  12.741  21.607  0.00  0.00    +0.000 C 
ATOM     22  C   UNL     1      -4.994  13.320  22.889  0.00  0.00    +0.000 C 
ATOM     23  C   UNL     1      -4.119  12.774  24.014  0.00  0.00    +0.000 C 
ATOM     24  C   UNL     1      -2.877  12.176  23.354  0.00  0.00    +0.000 C 
ENDBRANCH  18  20
ENDBRANCH  15  16
BRANCH  15  25
ATOM     25  C   UNL     1      -1.137  10.858  18.202  0.00  0.00    +0.000 C 
ATOM     26  C   UNL     1      -2.441  10.081  17.990  0.00  0.00    +0.000 C 
ATOM     27  C   UNL     1      -1.470  12.341  17.930  0.00  0.00    +0.000 C 
ENDBRANCH  15  25
ENDBRANCH   4  15
TORSDOF 5
ENDMDL
MODEL 8
REMARK VINA RESULT:      -6.9      1.217      2.068
REMARK  Name = 
REMARK  9 active torsions:
REMARK  status: ('A' for Active; 'I' for Inactive)
REMARK    1  A    between atoms: C_1  and  C_2
REMARK    2  A    between atoms: C_5  and  C_6
REMARK    3  A    between atoms: C_7  and  N_8
REMARK    4  A    between atoms: N_11  and  C_12
REMARK    5  A    between atoms: C_12  and  C_13
REMARK    6  A    between atoms: C_12  and  C_21
REMARK    7  A    between atoms: N_15  and  C_16
REMARK    8  A    between atoms: C_21  and  C_22
REMARK    9  A    between atoms: C_21  and  C_23
REMARK                            x       y       z     vdW  Elec       q    Type
REMARK                         _______ _______ _______ _____ _____    ______ ____
ROOT
ATOM      1  N   UNL     1       2.312   7.496  18.823  0.00  0.00    +0.000 N 
ATOM      2  C   UNL     1       3.316   7.704  17.768  0.00  0.00    +0.000 C 
ATOM      3  C   UNL     1       4.669   7.036  18.128  0.00  0.00    +0.000 C 
ATOM      4  N   UNL     1       4.601   5.594  18.547  0.00  0.00    +0.000 NA
ATOM      5  C   UNL     1       3.652   5.605  19.688  0.00  0.00    +0.000 C 
ATOM      6  C   UNL     1       2.232   6.134  19.372  0.00  0.00    +0.000 C 
ENDROOT
BRANCH   1  13
ATOM      7  C   UNL     1      -1.212  10.504  17.161  0.00  0.00    +0.000 C 
ATOM      8  C   UNL     1      -0.448   9.943  18.324  0.00  0.00    +0.000 A 
ATOM      9  C   UNL     1      -0.767  10.295  19.628  0.00  0.00    +0.000 A 
ATOM     10  C   UNL     1      -0.020   9.775  20.679  0.00  0.00    +0.000 A 
ATOM     11  C   UNL     1       1.058   8.888  20.461  0.00  0.00    +0.000 A 
ATOM     12  C   UNL     1       1.846   8.491  21.683  0.00  0.00    +0.000 C 
ATOM     13  C   UNL     1       1.366   8.462  19.146  0.00  0.00    +0.000 A 
ATOM     14  C   UNL     1       0.602   9.036  18.103  0.00  0.00    +0.000 A 
ENDBRANCH   1  13
BRANCH   4  15
ATOM     15  C   UNL     1       4.193   4.723  17.389  0.00  0.00    +0.000 C 
BRANCH  15  16
ATOM     16  C   UNL     1       5.483   4.414  16.550  0.00  0.00    +0.000 C 
ATOM     17  O   UNL     1       6.597   4.356  17.068  0.00  0.00    +0.000 OA
ATOM     18  N   UNL     1       5.259   4.195  15.206  0.00  0.00    +0.000 N 
ATOM     19  H   UNL     1       4.298   4.234  14.888  0.00  0.00    +0.000 HD
BRANCH  18  20
ATOM     20  C   UNL     1       6.319   3.951  14.251  0.00  0.00    +0.000 C 
ATOM     21  C   UNL     1       5.778   3.597  12.870  0.00  0.00    +0.000 C 
ATOM     22  C   UNL     1       6.942   3.881  11.935  0.00  0.00    +0.000 C 
ATOM     23  C   UNL     1       7.695   5.050  12.564  0.00  0.00    +0.000 C 
ATOM     24  C   UNL     1       7.165   5.198  13.989  0.00  0.00    +0.000 C 
ENDBRANCH  18  20
ENDBRANCH  15  16
BRANCH  15  25
ATOM     25  C   UNL     1       3.514   3.339  17.705  0.00  0.00    +0.000 C 
ATOM     26  C   UNL     1       3.802   2.742  19.086  0.00  0.00    +0.000 C 
ATOM     27  C   UNL     1       1.979   3.468  17.603  0.00  0.00    +0.000 C 
ENDBRANCH  15  25
ENDBRANCH   4  15
TORSDOF 5
ENDMDL
MODEL 9
REMARK VINA RESULT:      -6.8      2.077      3.364
REMARK  Name = 
REMARK  9 active torsions:
REMARK  status: ('A' for Active; 'I' for Inactive)
REMARK    1  A    between atoms: C_1  and  C_2
REMARK    2  A    between atoms: C_5  and  C_6
REMARK    3  A    between atoms: C_7  and  N_8
REMARK    4  A    between atoms: N_11  and  C_12
REMARK    5  A    between atoms: C_12  and  C_13
REMARK    6  A    between atoms: C_12  and  C_21
REMARK    7  A    between atoms: N_15  and  C_16
REMARK    8  A    between atoms: C_21  and  C_22
REMARK    9  A    between atoms: C_21  and  C_23
REMARK                            x       y       z     vdW  Elec       q    Type
REMARK                         _______ _______ _______ _____ _____    ______ ____
ROOT
ATOM      1  N   UNL     1       0.529   9.258  19.566  0.00  0.00    +0.000 N 
ATOM      2  C   UNL     1       1.160   8.770  18.331  0.00  0.00    +0.000 C 
ATOM      3  C   UNL     1       2.535   8.108  18.614  0.00  0.00    +0.000 C 
ATOM      4  N   UNL     1       2.552   7.061  19.693  0.00  0.00    +0.000 NA
ATOM      5  C   UNL     1       2.007   7.770  20.878  0.00  0.00    +0.000 C 
ATOM      6  C   UNL     1       0.578   8.343  20.716  0.00  0.00    +0.000 C 
ENDROOT
BRANCH   1  13
ATOM      7  C   UNL     1      -0.413  13.481  21.911  0.00  0.00    +0.000 C 
ATOM      8  C   UNL     1      -0.679  12.575  20.746  0.00  0.00    +0.000 A 
ATOM      9  C   UNL     1      -1.544  12.951  19.728  0.00  0.00    +0.000 A 
ATOM     10  C   UNL     1      -1.786  12.074  18.676  0.00  0.00    +0.000 A 
ATOM     11  C   UNL     1      -1.170  10.804  18.607  0.00  0.00    +0.000 A 
ATOM     12  C   UNL     1      -1.608   9.916  17.471  0.00  0.00    +0.000 C 
ATOM     13  C   UNL     1      -0.235  10.419  19.599  0.00  0.00    +0.000 A 
ATOM     14  C   UNL     1      -0.039  11.327  20.666  0.00  0.00    +0.000 A 
ENDBRANCH   1  13
BRANCH   4  15
ATOM     15  C   UNL     1       1.774   5.845  19.266  0.00  0.00    +0.000 C 
BRANCH  15  16
ATOM     16  C   UNL     1       2.639   5.076  18.206  0.00  0.00    +0.000 C 
ATOM     17  O   UNL     1       2.129   4.345  17.357  0.00  0.00    +0.000 OA
ATOM     18  N   UNL     1       3.997   5.301  18.296  0.00  0.00    +0.000 N 
ATOM     19  H   UNL     1       4.309   5.947  19.012  0.00  0.00    +0.000 HD
BRANCH  18  20
ATOM     20  C   UNL     1       4.971   4.644  17.451  0.00  0.00    +0.000 C 
ATOM     21  C   UNL     1       5.198   5.397  16.144  0.00  0.00    +0.000 C 
ATOM     22  C   UNL     1       6.545   4.891  15.657  0.00  0.00    +0.000 C 
ATOM     23  C   UNL     1       7.350   4.592  16.918  0.00  0.00    +0.000 C 
ATOM     24  C   UNL     1       6.363   4.611  18.084  0.00  0.00    +0.000 C 
ENDBRANCH  18  20
ENDBRANCH  15  16
BRANCH  15  25
ATOM     25  C   UNL     1       1.369   4.798  20.368  0.00  0.00    +0.000 C 
ATOM     26  C   UNL     1       0.674   3.526  19.873  0.00  0.00    +0.000 C 
ATOM     27  C   UNL     1       2.622   4.332  21.141  0.00  0.00    +0.000 C 
ENDBRANCH  15  25
ENDBRANCH   4  15
TORSDOF 5
ENDMDL
