MODEL 1
REMARK VINA RESULT:      -7.7      0.000      0.000
REMARK  Name = 
REMARK  16 active torsions:
REMARK  status: ('A' for Active; 'I' for Inactive)
REMARK    1  A    between atoms: C_1  and  C_2
REMARK    2  A    between atoms: C_2  and  C_3
REMARK    3  A    between atoms: C_3  and  N_4
REMARK    4  A    between atoms: C_9  and  C_10
REMARK    5  A    between atoms: C_13  and  O_14
REMARK    6  A    between atoms: O_14  and  C_15
REMARK    7  A    between atoms: C_15  and  C_16
REMARK    8  A    between atoms: N_18  and  C_19
REMARK    9  A    between atoms: N_18  and  C_20
REMARK   10  A    between atoms: C_20  and  C_21
REMARK   11  A    between atoms: C_21  and  N_22
REMARK   12  A    between atoms: N_22  and  C_23
REMARK   13  A    between atoms: N_22  and  C_24
REMARK   14  A    between atoms: N_29  and  C_30
REMARK   15  A    between atoms: C_30  and  C_31
REMARK   16  A    between atoms: C_31  and  C_32
REMARK                            x       y       z     vdW  Elec       q    Type
REMARK                         _______ _______ _______ _____ _____    ______ ____
ROOT
ATOM      1  N   UNL     1       4.256   4.988  18.072  0.00  0.00    +0.000 N 
ATOM      2  C   UNL     1       3.772   6.303  17.950  0.00  0.00    +0.000 A 
ATOM      3  O   UNL     1       4.058   7.059  17.026  0.00  0.00    +0.000 OA
ATOM      4  C   UNL     1       2.900   6.683  19.040  0.00  0.00    +0.000 A 
ATOM      5  N   UNL     1       2.312   7.898  19.293  0.00  0.00    +0.000 NA
ATOM      6  C   UNL     1       1.619   7.739  20.407  0.00  0.00    +0.000 A 
ATOM      7  N   UNL     1       1.770   6.449  20.882  0.00  0.00    +0.000 N 
ATOM      8  C   UNL     1       2.581   5.782  20.014  0.00  0.00    +0.000 A 
ATOM      9  N   UNL     1       3.025   4.475  20.082  0.00  0.00    +0.000 N 
ATOM     10  C   UNL     1       3.917   4.052  19.074  0.00  0.00    +0.000 A 
ATOM     11  O   UNL     1       4.376   2.912  19.071  0.00  0.00    +0.000 OA
ATOM     12  H   UNL     1       1.380   6.102  21.745  0.00  0.00    +0.000 HD
ENDROOT
BRANCH   6  13
ATOM     13  C   UNL     1       0.830   8.771  21.084  0.00  0.00    +0.000 A 
ATOM     14  C   UNL     1       0.594   8.734  22.463  0.00  0.00    +0.000 A 
ATOM     15  C   UNL     1      -0.168   9.730  23.076  0.00  0.00    +0.000 A 
ATOM     16  C   UNL     1      -0.692  10.780  22.325  0.00  0.00    +0.000 A 
ATOM     17  C   UNL     1      -0.487  10.812  20.948  0.00  0.00    +0.000 A 
ATOM     18  C   UNL     1       0.278   9.817  20.333  0.00  0.00    +0.000 A 
BRANCH  16  19
ATOM     19  O   UNL     1      -1.388  11.708  23.046  0.00  0.00    +0.000 OA
BRANCH  19  20
ATOM     20  C   UNL     1      -2.237  12.584  22.317  0.00  0.00    +0.000 C 
BRANCH  20  21
ATOM     21  C   UNL     1      -3.687  12.685  22.842  0.00  0.00    +0.000 C 
ATOM     22  O   UNL     1      -3.995  12.135  23.906  0.00  0.00    +0.000 OA
ATOM     23  N   UNL     1      -4.645  13.395  22.128  0.00  0.00    +0.000 N 
ATOM     24  C   UNL     1      -4.428  14.140  20.897  0.00  0.00    +0.000 C 
BRANCH  23  25
ATOM     25  C   UNL     1      -6.012  13.413  22.679  0.00  0.00    +0.000 C 
BRANCH  25  26
ATOM     26  C   UNL     1      -7.113  13.605  21.607  0.00  0.00    +0.000 C 
BRANCH  26  27
ATOM     27  N   UNL     1      -7.916  12.393  21.321  0.00  0.00    +0.000 NA
ATOM     28  C   UNL     1      -7.398  11.652  20.165  0.00  0.00    +0.000 C 
ATOM     29  C   UNL     1      -7.916  11.508  22.493  0.00  0.00    +0.000 C 
ENDBRANCH  26  27
ENDBRANCH  25  26
ENDBRANCH  23  25
ENDBRANCH  20  21
ENDBRANCH  19  20
ENDBRANCH  16  19
ENDBRANCH   6  13
BRANCH   1  30
ATOM     30  C   UNL     1       5.151   4.529  17.012  0.00  0.00    +0.000 C 
BRANCH  30  32
ATOM     31  C   UNL     1       7.094   5.795  18.009  0.00  0.00    +0.000 C 
ATOM     32  C   UNL     1       6.600   4.450  17.502  0.00  0.00    +0.000 C 
ENDBRANCH  30  32
ENDBRANCH   1  30
BRANCH   9  33
ATOM     33  C   UNL     1       2.665   3.538  21.151  0.00  0.00    +0.000 C 
BRANCH  33  34
ATOM     34  C   UNL     1       1.506   2.593  20.809  0.00  0.00    +0.000 C 
ATOM     35  C   UNL     1       0.735   2.966  19.553  0.00  0.00    +0.000 C 
ENDBRANCH  33  34
ENDBRANCH   9  33
TORSDOF 11
ENDMDL
MODEL 2
REMARK VINA RESULT:      -7.6      1.086      1.237
REMARK  Name = 
REMARK  16 active torsions:
REMARK  status: ('A' for Active; 'I' for Inactive)
REMARK    1  A    between atoms: C_1  and  C_2
REMARK    2  A    between atoms: C_2  and  C_3
REMARK    3  A    between atoms: C_3  and  N_4
REMARK    4  A    between atoms: C_9  and  C_10
REMARK    5  A    between atoms: C_13  and  O_14
REMARK    6  A    between atoms: O_14  and  C_15
REMARK    7  A    between atoms: C_15  and  C_16
REMARK    8  A    between atoms: N_18  and  C_19
REMARK    9  A    between atoms: N_18  and  C_20
REMARK   10  A    between atoms: C_20  and  C_21
REMARK   11  A    between atoms: C_21  and  N_22
REMARK   12  A    between atoms: N_22  and  C_23
REMARK   13  A    between atoms: N_22  and  C_24
REMARK   14  A    between atoms: N_29  and  C_30
REMARK   15  A    between atoms: C_30  and  C_31
REMARK   16  A    between atoms: C_31  and  C_32
REMARK                            x       y       z     vdW  Elec       q    Type
REMARK                         _______ _______ _______ _____ _____    ______ ____
ROOT
ATOM      1  N   UNL     1       4.254   4.746  18.087  0.00  0.00    +0.000 N 
ATOM      2  C   UNL     1       3.834   6.041  17.734  0.00  0.00    +0.000 A 
ATOM      3  O   UNL     1       4.170   6.617  16.703  0.00  0.00    +0.000 OA
ATOM      4  C   UNL     1       2.961   6.636  18.721  0.00  0.00    +0.000 A 
ATOM      5  N   UNL     1       2.425   7.901  18.752  0.00  0.00    +0.000 NA
ATOM      6  C   UNL     1       1.705   7.962  19.858  0.00  0.00    +0.000 A 
ATOM      7  N   UNL     1       1.787   6.765  20.547  0.00  0.00    +0.000 N 
ATOM      8  C   UNL     1       2.582   5.927  19.824  0.00  0.00    +0.000 A 
ATOM      9  N   UNL     1       2.964   4.633  20.123  0.00  0.00    +0.000 N 
ATOM     10  C   UNL     1       3.854   4.008  19.224  0.00  0.00    +0.000 A 
ATOM     11  O   UNL     1       4.261   2.866  19.424  0.00  0.00    +0.000 OA
ATOM     12  H   UNL     1       1.366   6.586  21.445  0.00  0.00    +0.000 HD
ENDROOT
BRANCH   6  13
ATOM     13  C   UNL     1       0.951   9.125  20.331  0.00  0.00    +0.000 A 
ATOM     14  C   UNL     1       0.636   9.301  21.683  0.00  0.00    +0.000 A 
ATOM     15  C   UNL     1      -0.089  10.419  22.101  0.00  0.00    +0.000 A 
ATOM     16  C   UNL     1      -0.496  11.380  21.178  0.00  0.00    +0.000 A 
ATOM     17  C   UNL     1      -0.211  11.201  19.826  0.00  0.00    +0.000 A 
ATOM     18  C   UNL     1       0.516  10.085  19.408  0.00  0.00    +0.000 A 
BRANCH  16  19
ATOM     19  O   UNL     1      -1.166  12.442  21.715  0.00  0.00    +0.000 OA
BRANCH  19  20
ATOM     20  C   UNL     1      -1.445  12.387  23.107  0.00  0.00    +0.000 C 
BRANCH  20  21
ATOM     21  C   UNL     1      -2.896  12.746  23.503  0.00  0.00    +0.000 C 
ATOM     22  O   UNL     1      -3.670  11.856  23.872  0.00  0.00    +0.000 OA
ATOM     23  N   UNL     1      -3.332  14.064  23.452  0.00  0.00    +0.000 N 
ATOM     24  C   UNL     1      -2.531  15.226  23.097  0.00  0.00    +0.000 C 
BRANCH  23  25
ATOM     25  C   UNL     1      -4.739  14.318  23.812  0.00  0.00    +0.000 C 
BRANCH  25  26
ATOM     26  C   UNL     1      -5.667  14.521  22.590  0.00  0.00    +0.000 C 
BRANCH  26  27
ATOM     27  N   UNL     1      -6.728  13.496  22.442  0.00  0.00    +0.000 NA
ATOM     28  C   UNL     1      -6.302  12.387  21.580  0.00  0.00    +0.000 C 
ATOM     29  C   UNL     1      -7.092  12.962  23.761  0.00  0.00    +0.000 C 
ENDBRANCH  26  27
ENDBRANCH  25  26
ENDBRANCH  23  25
ENDBRANCH  20  21
ENDBRANCH  19  20
ENDBRANCH  16  19
ENDBRANCH   6  13
BRANCH   1  30
ATOM     30  C   UNL     1       5.146   4.078  17.143  0.00  0.00    +0.000 C 
BRANCH  30  32
ATOM     31  C   UNL     1       7.239   5.038  16.111  0.00  0.00    +0.000 C 
ATOM     32  C   UNL     1       6.606   4.481  17.374  0.00  0.00    +0.000 C 
ENDBRANCH  30  32
ENDBRANCH   1  30
BRANCH   9  33
ATOM     33  C   UNL     1       2.542   3.906  21.324  0.00  0.00    +0.000 C 
BRANCH  33  34
ATOM     34  C   UNL     1       1.511   2.799  21.072  0.00  0.00    +0.000 C 
ATOM     35  C   UNL     1       0.517   3.101  19.962  0.00  0.00    +0.000 C 
ENDBRANCH  33  34
ENDBRANCH   9  33
TORSDOF 11
ENDMDL
MODEL 3
REMARK VINA RESULT:      -7.3      3.725      5.483
REMARK  Name = 
REMARK  16 active torsions:
REMARK  status: ('A' for Active; 'I' for Inactive)
REMARK    1  A    between atoms: C_1  and  C_2
REMARK    2  A    between atoms: C_2  and  C_3
REMARK    3  A    between atoms: C_3  and  N_4
REMARK    4  A    between atoms: C_9  and  C_10
REMARK    5  A    between atoms: C_13  and  O_14
REMARK    6  A    between atoms: O_14  and  C_15
REMARK    7  A    between atoms: C_15  and  C_16
REMARK    8  A    between atoms: N_18  and  C_19
REMARK    9  A    between atoms: N_18  and  C_20
REMARK   10  A    between atoms: C_20  and  C_21
REMARK   11  A    between atoms: C_21  and  N_22
REMARK   12  A    between atoms: N_22  and  C_23
REMARK   13  A    between atoms: N_22  and  C_24
REMARK   14  A    between atoms: N_29  and  C_30
REMARK   15  A    between atoms: C_30  and  C_31
REMARK   16  A    between atoms: C_31  and  C_32
REMARK                            x       y       z     vdW  Elec       q    Type
REMARK                         _______ _______ _______ _____ _____    ______ ____
ROOT
ATOM      1  N   UNL     1       5.082   4.850  16.773  0.00  0.00    +0.000 N 
ATOM      2  C   UNL     1       4.888   6.242  16.744  0.00  0.00    +0.000 A 
ATOM      3  O   UNL     1       5.608   7.025  16.130  0.00  0.00    +0.000 OA
ATOM      4  C   UNL     1       3.748   6.667  17.525  0.00  0.00    +0.000 A 
ATOM      5  N   UNL     1       3.306   7.941  17.788  0.00  0.00    +0.000 NA
ATOM      6  C   UNL     1       2.236   7.802  18.551  0.00  0.00    +0.000 A 
ATOM      7  N   UNL     1       1.997   6.462  18.798  0.00  0.00    +0.000 N 
ATOM      8  C   UNL     1       2.956   5.745  18.146  0.00  0.00    +0.000 A 
ATOM      9  N   UNL     1       3.133   4.375  18.114  0.00  0.00    +0.000 N 
ATOM     10  C   UNL     1       4.256   3.895  17.407  0.00  0.00    +0.000 A 
ATOM     11  O   UNL     1       4.500   2.692  17.345  0.00  0.00    +0.000 OA
ATOM     12  H   UNL     1       1.268   6.105  19.396  0.00  0.00    +0.000 HD
ENDROOT
BRANCH   6  13
ATOM     13  C   UNL     1       1.425   8.890  19.102  0.00  0.00    +0.000 A 
ATOM     14  C   UNL     1       1.155   8.990  20.471  0.00  0.00    +0.000 A 
ATOM     15  C   UNL     1       0.373  10.036  20.963  0.00  0.00    +0.000 A 
ATOM     16  C   UNL     1      -0.138  11.002  20.098  0.00  0.00    +0.000 A 
ATOM     17  C   UNL     1       0.101  10.897  18.730  0.00  0.00    +0.000 A 
ATOM     18  C   UNL     1       0.886   9.851  18.237  0.00  0.00    +0.000 A 
BRANCH  16  19
ATOM     19  O   UNL     1      -0.856  11.991  20.706  0.00  0.00    +0.000 OA
BRANCH  19  20
ATOM     20  C   UNL     1      -0.117  13.050  21.298  0.00  0.00    +0.000 C 
BRANCH  20  21
ATOM     21  C   UNL     1       0.342  14.160  20.324  0.00  0.00    +0.000 C 
ATOM     22  O   UNL     1      -0.493  14.925  19.828  0.00  0.00    +0.000 OA
ATOM     23  N   UNL     1       1.687  14.306  20.009  0.00  0.00    +0.000 N 
ATOM     24  C   UNL     1       2.791  13.527  20.550  0.00  0.00    +0.000 C 
BRANCH  23  25
ATOM     25  C   UNL     1       2.037  15.365  19.045  0.00  0.00    +0.000 C 
BRANCH  25  26
ATOM     26  C   UNL     1       2.974  14.888  17.908  0.00  0.00    +0.000 C 
BRANCH  26  27
ATOM     27  N   UNL     1       4.258  15.624  17.816  0.00  0.00    +0.000 NA
ATOM     28  C   UNL     1       4.383  16.643  18.865  0.00  0.00    +0.000 C 
ATOM     29  C   UNL     1       5.380  14.683  17.929  0.00  0.00    +0.000 C 
ENDBRANCH  26  27
ENDBRANCH  25  26
ENDBRANCH  23  25
ENDBRANCH  20  21
ENDBRANCH  19  20
ENDBRANCH  16  19
ENDBRANCH   6  13
BRANCH   1  30
ATOM     30  C   UNL     1       6.220   4.341  16.012  0.00  0.00    +0.000 C 
BRANCH  30  32
ATOM     31  C   UNL     1       6.933   4.587  13.604  0.00  0.00    +0.000 C 
ATOM     32  C   UNL     1       5.847   4.096  14.547  0.00  0.00    +0.000 C 
ENDBRANCH  30  32
ENDBRANCH   1  30
BRANCH   9  33
ATOM     33  C   UNL     1       2.264   3.416  18.802  0.00  0.00    +0.000 C 
BRANCH  33  34
ATOM     34  C   UNL     1       2.565   3.236  20.295  0.00  0.00    +0.000 C 
ATOM     35  C   UNL     1       1.334   3.138  21.182  0.00  0.00    +0.000 C 
ENDBRANCH  33  34
ENDBRANCH   9  33
TORSDOF 11
ENDMDL
MODEL 4
REMARK VINA RESULT:      -7.3      2.362      3.106
REMARK  Name = 
REMARK  16 active torsions:
REMARK  status: ('A' for Active; 'I' for Inactive)
REMARK    1  A    between atoms: C_1  and  C_2
REMARK    2  A    between atoms: C_2  and  C_3
REMARK    3  A    between atoms: C_3  and  N_4
REMARK    4  A    between atoms: C_9  and  C_10
REMARK    5  A    between atoms: C_13  and  O_14
REMARK    6  A    between atoms: O_14  and  C_15
REMARK    7  A    between atoms: C_15  and  C_16
REMARK    8  A    between atoms: N_18  and  C_19
REMARK    9  A    between atoms: N_18  and  C_20
REMARK   10  A    between atoms: C_20  and  C_21
REMARK   11  A    between atoms: C_21  and  N_22
REMARK   12  A    between atoms: N_22  and  C_23
REMARK   13  A    between atoms: N_22  and  C_24
REMARK   14  A    between atoms: N_29  and  C_30
REMARK   15  A    between atoms: C_30  and  C_31
REMARK   16  A    between atoms: C_31  and  C_32
REMARK                            x       y       z     vdW  Elec       q    Type
REMARK                         _______ _______ _______ _____ _____    ______ ____
ROOT
ATOM      1  N   UNL     1       5.238   4.734  16.757  0.00  0.00    +0.000 N 
ATOM      2  C   UNL     1       5.104   6.134  16.784  0.00  0.00    +0.000 A 
ATOM      3  O   UNL     1       5.910   6.912  16.282  0.00  0.00    +0.000 OA
ATOM      4  C   UNL     1       3.912   6.570  17.477  0.00  0.00    +0.000 A 
ATOM      5  N   UNL     1       3.498   7.847  17.765  0.00  0.00    +0.000 NA
ATOM      6  C   UNL     1       2.355   7.719  18.416  0.00  0.00    +0.000 A 
ATOM      7  N   UNL     1       2.041   6.381  18.568  0.00  0.00    +0.000 N 
ATOM      8  C   UNL     1       3.028   5.655  17.972  0.00  0.00    +0.000 A 
ATOM      9  N   UNL     1       3.153   4.282  17.884  0.00  0.00    +0.000 N 
ATOM     10  C   UNL     1       4.318   3.787  17.260  0.00  0.00    +0.000 A 
ATOM     11  O   UNL     1       4.519   2.579  17.158  0.00  0.00    +0.000 OA
ATOM     12  H   UNL     1       1.245   6.028  19.076  0.00  0.00    +0.000 HD
ENDROOT
BRANCH   6  13
ATOM     13  C   UNL     1       1.539   8.814  18.945  0.00  0.00    +0.000 A 
ATOM     14  C   UNL     1       1.161   8.869  20.292  0.00  0.00    +0.000 A 
ATOM     15  C   UNL     1       0.377   9.924  20.763  0.00  0.00    +0.000 A 
ATOM     16  C   UNL     1      -0.028  10.942  19.902  0.00  0.00    +0.000 A 
ATOM     17  C   UNL     1       0.320  10.882  18.554  0.00  0.00    +0.000 A 
ATOM     18  C   UNL     1       1.106   9.829  18.082  0.00  0.00    +0.000 A 
BRANCH  16  19
ATOM     19  O   UNL     1      -0.759  11.932  20.491  0.00  0.00    +0.000 OA
BRANCH  19  20
ATOM     20  C   UNL     1      -0.051  12.856  21.306  0.00  0.00    +0.000 C 
BRANCH  20  21
ATOM     21  C   UNL     1      -0.704  13.165  22.673  0.00  0.00    +0.000 C 
ATOM     22  O   UNL     1      -1.133  12.240  23.371  0.00  0.00    +0.000 OA
ATOM     23  N   UNL     1      -0.806  14.476  23.123  0.00  0.00    +0.000 N 
ATOM     24  C   UNL     1      -0.301  15.662  22.448  0.00  0.00    +0.000 C 
BRANCH  23  25
ATOM     25  C   UNL     1      -1.473  14.688  24.420  0.00  0.00    +0.000 C 
BRANCH  25  26
ATOM     26  C   UNL     1      -2.661  15.678  24.355  0.00  0.00    +0.000 C 
BRANCH  26  27
ATOM     27  N   UNL     1      -3.965  15.058  24.017  0.00  0.00    +0.000 NA
ATOM     28  C   UNL     1      -4.216  15.063  22.571  0.00  0.00    +0.000 C 
ATOM     29  C   UNL     1      -3.998  13.672  24.501  0.00  0.00    +0.000 C 
ENDBRANCH  26  27
ENDBRANCH  25  26
ENDBRANCH  23  25
ENDBRANCH  20  21
ENDBRANCH  19  20
ENDBRANCH  16  19
ENDBRANCH   6  13
BRANCH   1  30
ATOM     30  C   UNL     1       6.423   4.212  16.080  0.00  0.00    +0.000 C 
BRANCH  30  32
ATOM     31  C   UNL     1       7.123   4.748  13.716  0.00  0.00    +0.000 C 
ATOM     32  C   UNL     1       6.154   3.972  14.592  0.00  0.00    +0.000 C 
ENDBRANCH  30  32
ENDBRANCH   1  30
BRANCH   9  33
ATOM     33  C   UNL     1       2.184   3.330  18.436  0.00  0.00    +0.000 C 
BRANCH  33  34
ATOM     34  C   UNL     1       2.364   3.029  19.929  0.00  0.00    +0.000 C 
ATOM     35  C   UNL     1       1.209   3.481  20.809  0.00  0.00    +0.000 C 
ENDBRANCH  33  34
ENDBRANCH   9  33
TORSDOF 11
ENDMDL
MODEL 5
REMARK VINA RESULT:      -7.2      1.846      2.472
REMARK  Name = 
REMARK  16 active torsions:
REMARK  status: ('A' for Active; 'I' for Inactive)
REMARK    1  A    between atoms: C_1  and  C_2
REMARK    2  A    between atoms: C_2  and  C_3
REMARK    3  A    between atoms: C_3  and  N_4
REMARK    4  A    between atoms: C_9  and  C_10
REMARK    5  A    between atoms: C_13  and  O_14
REMARK    6  A    between atoms: O_14  and  C_15
REMARK    7  A    between atoms: C_15  and  C_16
REMARK    8  A    between atoms: N_18  and  C_19
REMARK    9  A    between atoms: N_18  and  C_20
REMARK   10  A    between atoms: C_20  and  C_21
REMARK   11  A    between atoms: C_21  and  N_22
REMARK   12  A    between atoms: N_22  and  C_23
REMARK   13  A    between atoms: N_22  and  C_24
REMARK   14  A    between atoms: N_29  and  C_30
REMARK   15  A    between atoms: C_30  and  C_31
REMARK   16  A    between atoms: C_31  and  C_32
REMARK                            x       y       z     vdW  Elec       q    Type
REMARK                         _______ _______ _______ _____ _____    ______ ____
ROOT
ATOM      1  N   UNL     1       4.937   4.710  16.674  0.00  0.00    +0.000 N 
ATOM      2  C   UNL     1       4.695   6.090  16.793  0.00  0.00    +0.000 A 
ATOM      3  O   UNL     1       5.279   6.950  16.140  0.00  0.00    +0.000 OA
ATOM      4  C   UNL     1       3.682   6.399  17.778  0.00  0.00    +0.000 A 
ATOM      5  N   UNL     1       3.246   7.627  18.213  0.00  0.00    +0.000 NA
ATOM      6  C   UNL     1       2.319   7.380  19.121  0.00  0.00    +0.000 A 
ATOM      7  N   UNL     1       2.168   6.015  19.290  0.00  0.00    +0.000 N 
ATOM      8  C   UNL     1       3.032   5.397  18.437  0.00  0.00    +0.000 A 
ATOM      9  N   UNL     1       3.248   4.043  18.263  0.00  0.00    +0.000 N 
ATOM     10  C   UNL     1       4.256   3.671  17.349  0.00  0.00    +0.000 A 
ATOM     11  O   UNL     1       4.527   2.489  17.149  0.00  0.00    +0.000 OA
ATOM     12  H   UNL     1       1.558   5.581  19.964  0.00  0.00    +0.000 HD
ENDROOT
BRANCH   6  13
ATOM     13  C   UNL     1       1.571   8.384  19.882  0.00  0.00    +0.000 A 
ATOM     14  C   UNL     1       1.303   8.227  21.247  0.00  0.00    +0.000 A 
ATOM     15  C   UNL     1       0.582   9.200  21.942  0.00  0.00    +0.000 A 
ATOM     16  C   UNL     1       0.132  10.345  21.289  0.00  0.00    +0.000 A 
ATOM     17  C   UNL     1       0.370  10.498  19.925  0.00  0.00    +0.000 A 
ATOM     18  C   UNL     1       1.093   9.527  19.229  0.00  0.00    +0.000 A 
BRANCH  16  19
ATOM     19  O   UNL     1      -0.528  11.236  22.086  0.00  0.00    +0.000 OA
BRANCH  19  20
ATOM     20  C   UNL     1      -0.927  12.461  21.486  0.00  0.00    +0.000 C 
BRANCH  20  21
ATOM     21  C   UNL     1      -2.423  12.552  21.106  0.00  0.00    +0.000 C 
ATOM     22  O   UNL     1      -2.752  12.590  19.915  0.00  0.00    +0.000 OA
ATOM     23  N   UNL     1      -3.398  12.587  22.095  0.00  0.00    +0.000 N 
ATOM     24  C   UNL     1      -3.177  12.495  23.530  0.00  0.00    +0.000 C 
BRANCH  23  25
ATOM     25  C   UNL     1      -4.798  12.711  21.650  0.00  0.00    +0.000 C 
BRANCH  25  26
ATOM     26  C   UNL     1      -5.551  13.906  22.284  0.00  0.00    +0.000 C 
BRANCH  26  27
ATOM     27  N   UNL     1      -4.996  15.237  21.945  0.00  0.00    +0.000 NA
ATOM     28  C   UNL     1      -5.181  15.563  20.526  0.00  0.00    +0.000 C 
ATOM     29  C   UNL     1      -5.646  16.271  22.760  0.00  0.00    +0.000 C 
ENDBRANCH  26  27
ENDBRANCH  25  26
ENDBRANCH  23  25
ENDBRANCH  20  21
ENDBRANCH  19  20
ENDBRANCH  16  19
ENDBRANCH   6  13
BRANCH   1  30
ATOM     30  C   UNL     1       5.954   4.314  15.703  0.00  0.00    +0.000 C 
BRANCH  30  32
ATOM     31  C   UNL     1       6.432   3.863  13.267  0.00  0.00    +0.000 C 
ATOM     32  C   UNL     1       5.364   4.196  14.295  0.00  0.00    +0.000 C 
ENDBRANCH  30  32
ENDBRANCH   1  30
BRANCH   9  33
ATOM     33  C   UNL     1       2.533   2.994  18.997  0.00  0.00    +0.000 C 
BRANCH  33  34
ATOM     34  C   UNL     1       3.062   2.732  20.412  0.00  0.00    +0.000 C 
ATOM     35  C   UNL     1       2.063   3.012  21.524  0.00  0.00    +0.000 C 
ENDBRANCH  33  34
ENDBRANCH   9  33
TORSDOF 11
ENDMDL
MODEL 6
REMARK VINA RESULT:      -7.1      3.815      5.420
REMARK  Name = 
REMARK  16 active torsions:
REMARK  status: ('A' for Active; 'I' for Inactive)
REMARK    1  A    between atoms: C_1  and  C_2
REMARK    2  A    between atoms: C_2  and  C_3
REMARK    3  A    between atoms: C_3  and  N_4
REMARK    4  A    between atoms: C_9  and  C_10
REMARK    5  A    between atoms: C_13  and  O_14
REMARK    6  A    between atoms: O_14  and  C_15
REMARK    7  A    between atoms: C_15  and  C_16
REMARK    8  A    between atoms: N_18  and  C_19
REMARK    9  A    between atoms: N_18  and  C_20
REMARK   10  A    between atoms: C_20  and  C_21
REMARK   11  A    between atoms: C_21  and  N_22
REMARK   12  A    between atoms: N_22  and  C_23
REMARK   13  A    between atoms: N_22  and  C_24
REMARK   14  A    between atoms: N_29  and  C_30
REMARK   15  A    between atoms: C_30  and  C_31
REMARK   16  A    between atoms: C_31  and  C_32
REMARK                            x       y       z     vdW  Elec       q    Type
REMARK                         _______ _______ _______ _____ _____    ______ ____
ROOT
ATOM      1  N   UNL     1       5.021   4.703  16.760  0.00  0.00    +0.000 N 
ATOM      2  C   UNL     1       4.858   6.100  16.748  0.00  0.00    +0.000 A 
ATOM      3  O   UNL     1       5.574   6.871  16.117  0.00  0.00    +0.000 OA
ATOM      4  C   UNL     1       3.753   6.542  17.570  0.00  0.00    +0.000 A 
ATOM      5  N   UNL     1       3.348   7.823  17.857  0.00  0.00    +0.000 NA
ATOM      6  C   UNL     1       2.301   7.701  18.653  0.00  0.00    +0.000 A 
ATOM      7  N   UNL     1       2.041   6.365  18.898  0.00  0.00    +0.000 N 
ATOM      8  C   UNL     1       2.962   5.633  18.209  0.00  0.00    +0.000 A 
ATOM      9  N   UNL     1       3.108   4.260  18.161  0.00  0.00    +0.000 N 
ATOM     10  C   UNL     1       4.195   3.761  17.413  0.00  0.00    +0.000 A 
ATOM     11  O   UNL     1       4.411   2.553  17.334  0.00  0.00    +0.000 OA
ATOM     12  H   UNL     1       1.324   6.019  19.517  0.00  0.00    +0.000 HD
ENDROOT
BRANCH   6  13
ATOM     13  C   UNL     1       1.532   8.802  19.239  0.00  0.00    +0.000 A 
ATOM     14  C   UNL     1       1.238   8.852  20.606  0.00  0.00    +0.000 A 
ATOM     15  C   UNL     1       0.498   9.913  21.132  0.00  0.00    +0.000 A 
ATOM     16  C   UNL     1       0.054  10.942  20.304  0.00  0.00    +0.000 A 
ATOM     17  C   UNL     1       0.319  10.888  18.937  0.00  0.00    +0.000 A 
ATOM     18  C   UNL     1       1.062   9.829  18.411  0.00  0.00    +0.000 A 
BRANCH  16  19
ATOM     19  O   UNL     1      -0.627  11.937  20.943  0.00  0.00    +0.000 OA
BRANCH  19  20
ATOM     20  C   UNL     1      -0.526  13.242  20.390  0.00  0.00    +0.000 C 
BRANCH  20  21
ATOM     21  C   UNL     1       0.778  14.002  20.728  0.00  0.00    +0.000 C 
ATOM     22  O   UNL     1       1.482  13.623  21.672  0.00  0.00    +0.000 OA
ATOM     23  N   UNL     1       1.165  15.102  19.974  0.00  0.00    +0.000 N 
ATOM     24  C   UNL     1       0.481  15.633  18.805  0.00  0.00    +0.000 C 
BRANCH  23  25
ATOM     25  C   UNL     1       2.403  15.792  20.383  0.00  0.00    +0.000 C 
BRANCH  25  26
ATOM     26  C   UNL     1       2.555  17.209  19.779  0.00  0.00    +0.000 C 
BRANCH  26  27
ATOM     27  N   UNL     1       3.956  17.667  19.624  0.00  0.00    +0.000 NA
ATOM     28  C   UNL     1       4.592  17.938  20.919  0.00  0.00    +0.000 C 
ATOM     29  C   UNL     1       4.739  16.648  18.914  0.00  0.00    +0.000 C 
ENDBRANCH  26  27
ENDBRANCH  25  26
ENDBRANCH  23  25
ENDBRANCH  20  21
ENDBRANCH  19  20
ENDBRANCH  16  19
ENDBRANCH   6  13
BRANCH   1  30
ATOM     30  C   UNL     1       6.122   4.175  15.958  0.00  0.00    +0.000 C 
BRANCH  30  32
ATOM     31  C   UNL     1       6.856   4.498  13.565  0.00  0.00    +0.000 C 
ATOM     32  C   UNL     1       5.730   4.053  14.483  0.00  0.00    +0.000 C 
ENDBRANCH  30  32
ENDBRANCH   1  30
BRANCH   9  33
ATOM     33  C   UNL     1       2.240   3.314  18.870  0.00  0.00    +0.000 C 
BRANCH  33  34
ATOM     34  C   UNL     1       2.595   3.104  20.347  0.00  0.00    +0.000 C 
ATOM     35  C   UNL     1       1.397   2.955  21.271  0.00  0.00    +0.000 C 
ENDBRANCH  33  34
ENDBRANCH   9  33
TORSDOF 11
ENDMDL
MODEL 7
REMARK VINA RESULT:      -7.1      3.527      5.285
REMARK  Name = 
REMARK  16 active torsions:
REMARK  status: ('A' for Active; 'I' for Inactive)
REMARK    1  A    between atoms: C_1  and  C_2
REMARK    2  A    between atoms: C_2  and  C_3
REMARK    3  A    between atoms: C_3  and  N_4
REMARK    4  A    between atoms: C_9  and  C_10
REMARK    5  A    between atoms: C_13  and  O_14
REMARK    6  A    between atoms: O_14  and  C_15
REMARK    7  A    between atoms: C_15  and  C_16
REMARK    8  A    between atoms: N_18  and  C_19
REMARK    9  A    between atoms: N_18  and  C_20
REMARK   10  A    between atoms: C_20  and  C_21
REMARK   11  A    between atoms: C_21  and  N_22
REMARK   12  A    between atoms: N_22  and  C_23
REMARK   13  A    between atoms: N_22  and  C_24
REMARK   14  A    between atoms: N_29  and  C_30
REMARK   15  A    between atoms: C_30  and  C_31
REMARK   16  A    between atoms: C_31  and  C_32
REMARK                            x       y       z     vdW  Elec       q    Type
REMARK                         _______ _______ _______ _____ _____    ______ ____
ROOT
ATOM      1  N   UNL     1       4.893   5.046  17.926  0.00  0.00    +0.000 N 
ATOM      2  C   UNL     1       4.491   6.307  17.450  0.00  0.00    +0.000 A 
ATOM      3  O   UNL     1       4.993   6.870  16.482  0.00  0.00    +0.000 OA
ATOM      4  C   UNL     1       3.418   6.884  18.230  0.00  0.00    +0.000 A 
ATOM      5  N   UNL     1       2.830   8.120  18.109  0.00  0.00    +0.000 NA
ATOM      6  C   UNL     1       1.909   8.175  19.055  0.00  0.00    +0.000 A 
ATOM      7  N   UNL     1       1.911   7.004  19.791  0.00  0.00    +0.000 N 
ATOM      8  C   UNL     1       2.867   6.188  19.266  0.00  0.00    +0.000 A 
ATOM      9  N   UNL     1       3.242   4.925  19.680  0.00  0.00    +0.000 N 
ATOM     10  C   UNL     1       4.316   4.321  18.992  0.00  0.00    +0.000 A 
ATOM     11  O   UNL     1       4.727   3.207  19.309  0.00  0.00    +0.000 OA
ATOM     12  H   UNL     1       1.333   6.829  20.599  0.00  0.00    +0.000 HD
ENDROOT
BRANCH   6  13
ATOM     13  C   UNL     1       1.027   9.311  19.331  0.00  0.00    +0.000 A 
ATOM     14  C   UNL     1       0.401  10.028  18.304  0.00  0.00    +0.000 A 
ATOM     15  C   UNL     1      -0.430  11.110  18.602  0.00  0.00    +0.000 A 
ATOM     16  C   UNL     1      -0.657  11.481  19.925  0.00  0.00    +0.000 A 
ATOM     17  C   UNL     1      -0.018  10.792  20.954  0.00  0.00    +0.000 A 
ATOM     18  C   UNL     1       0.811   9.708  20.657  0.00  0.00    +0.000 A 
BRANCH  16  19
ATOM     19  O   UNL     1      -1.515  12.531  20.085  0.00  0.00    +0.000 OA
BRANCH  19  20
ATOM     20  C   UNL     1      -1.015  13.672  20.768  0.00  0.00    +0.000 C 
BRANCH  20  21
ATOM     21  C   UNL     1      -0.141  14.620  19.916  0.00  0.00    +0.000 C 
ATOM     22  O   UNL     1      -0.314  14.681  18.693  0.00  0.00    +0.000 OA
ATOM     23  N   UNL     1       0.833  15.407  20.517  0.00  0.00    +0.000 N 
ATOM     24  C   UNL     1       1.119  15.492  21.941  0.00  0.00    +0.000 C 
BRANCH  23  25
ATOM     25  C   UNL     1       1.647  16.258  19.629  0.00  0.00    +0.000 C 
BRANCH  25  26
ATOM     26  C   UNL     1       3.165  16.198  19.928  0.00  0.00    +0.000 C 
BRANCH  26  27
ATOM     27  N   UNL     1       4.018  15.929  18.747  0.00  0.00    +0.000 NA
ATOM     28  C   UNL     1       3.309  16.189  17.488  0.00  0.00    +0.000 C 
ATOM     29  C   UNL     1       5.221  16.769  18.798  0.00  0.00    +0.000 C 
ENDBRANCH  26  27
ENDBRANCH  25  26
ENDBRANCH  23  25
ENDBRANCH  20  21
ENDBRANCH  19  20
ENDBRANCH  16  19
ENDBRANCH   6  13
BRANCH   1  30
ATOM     30  C   UNL     1       5.980   4.398  17.195  0.00  0.00    +0.000 C 
BRANCH  30  32
ATOM     31  C   UNL     1       6.255   4.054  14.710  0.00  0.00    +0.000 C 
ATOM     32  C   UNL     1       5.460   3.675  15.949  0.00  0.00    +0.000 C 
ENDBRANCH  30  32
ENDBRANCH   1  30
BRANCH   9  33
ATOM     33  C   UNL     1       2.630   4.212  20.806  0.00  0.00    +0.000 C 
BRANCH  33  34
ATOM     34  C   UNL     1       1.210   3.697  20.540  0.00  0.00    +0.000 C 
ATOM     35  C   UNL     1       1.057   2.900  19.253  0.00  0.00    +0.000 C 
ENDBRANCH  33  34
ENDBRANCH   9  33
TORSDOF 11
ENDMDL
MODEL 8
REMARK VINA RESULT:      -7.1      2.265      3.007
REMARK  Name = 
REMARK  16 active torsions:
REMARK  status: ('A' for Active; 'I' for Inactive)
REMARK    1  A    between atoms: C_1  and  C_2
REMARK    2  A    between atoms: C_2  and  C_3
REMARK    3  A    between atoms: C_3  and  N_4
REMARK    4  A    between atoms: C_9  and  C_10
REMARK    5  A    between atoms: C_13  and  O_14
REMARK    6  A    between atoms: O_14  and  C_15
REMARK    7  A    between atoms: C_15  and  C_16
REMARK    8  A    between atoms: N_18  and  C_19
REMARK    9  A    between atoms: N_18  and  C_20
REMARK   10  A    between atoms: C_20  and  C_21
REMARK   11  A    between atoms: C_21  and  N_22
REMARK   12  A    between atoms: N_22  and  C_23
REMARK   13  A    between atoms: N_22  and  C_24
REMARK   14  A    between atoms: N_29  and  C_30
REMARK   15  A    between atoms: C_30  and  C_31
REMARK   16  A    between atoms: C_31  and  C_32
REMARK                            x       y       z     vdW  Elec       q    Type
REMARK                         _______ _______ _______ _____ _____    ______ ____
ROOT
ATOM      1  N   UNL     1       4.921   4.714  16.796  0.00  0.00    +0.000 N 
ATOM      2  C   UNL     1       4.782   6.110  16.708  0.00  0.00    +0.000 A 
ATOM      3  O   UNL     1       5.490   6.830  16.009  0.00  0.00    +0.000 OA
ATOM      4  C   UNL     1       3.715   6.621  17.540  0.00  0.00    +0.000 A 
ATOM      5  N   UNL     1       3.344   7.924  17.766  0.00  0.00    +0.000 NA
ATOM      6  C   UNL     1       2.324   7.869  18.604  0.00  0.00    +0.000 A 
ATOM      7  N   UNL     1       2.048   6.554  18.934  0.00  0.00    +0.000 N 
ATOM      8  C   UNL     1       2.931   5.766  18.258  0.00  0.00    +0.000 A 
ATOM      9  N   UNL     1       3.051   4.389  18.285  0.00  0.00    +0.000 N 
ATOM     10  C   UNL     1       4.102   3.827  17.531  0.00  0.00    +0.000 A 
ATOM     11  O   UNL     1       4.293   2.613  17.515  0.00  0.00    +0.000 OA
ATOM     12  H   UNL     1       1.348   6.259  19.597  0.00  0.00    +0.000 HD
ENDROOT
BRANCH   6  13
ATOM     13  C   UNL     1       1.595   9.016  19.150  0.00  0.00    +0.000 A 
ATOM     14  C   UNL     1       1.377  10.178  18.400  0.00  0.00    +0.000 A 
ATOM     15  C   UNL     1       0.684  11.256  18.953  0.00  0.00    +0.000 A 
ATOM     16  C   UNL     1       0.189  11.185  20.253  0.00  0.00    +0.000 A 
ATOM     17  C   UNL     1       0.424  10.044  21.018  0.00  0.00    +0.000 A 
ATOM     18  C   UNL     1       1.115   8.963  20.464  0.00  0.00    +0.000 A 
BRANCH  16  19
ATOM     19  O   UNL     1      -0.501  12.289  20.665  0.00  0.00    +0.000 OA
BRANCH  19  20
ATOM     20  C   UNL     1      -1.892  12.125  20.902  0.00  0.00    +0.000 C 
BRANCH  20  21
ATOM     21  C   UNL     1      -2.386  12.608  22.285  0.00  0.00    +0.000 C 
ATOM     22  O   UNL     1      -2.428  11.814  23.233  0.00  0.00    +0.000 OA
ATOM     23  N   UNL     1      -2.777  13.928  22.471  0.00  0.00    +0.000 N 
ATOM     24  C   UNL     1      -2.732  14.990  21.477  0.00  0.00    +0.000 C 
BRANCH  23  25
ATOM     25  C   UNL     1      -3.269  14.298  23.810  0.00  0.00    +0.000 C 
BRANCH  25  26
ATOM     26  C   UNL     1      -3.567  15.809  23.969  0.00  0.00    +0.000 C 
BRANCH  26  27
ATOM     27  N   UNL     1      -4.913  16.121  24.504  0.00  0.00    +0.000 NA
ATOM     28  C   UNL     1      -4.954  17.435  25.156  0.00  0.00    +0.000 C 
ATOM     29  C   UNL     1      -5.900  16.098  23.417  0.00  0.00    +0.000 C 
ENDBRANCH  26  27
ENDBRANCH  25  26
ENDBRANCH  23  25
ENDBRANCH  20  21
ENDBRANCH  19  20
ENDBRANCH  16  19
ENDBRANCH   6  13
BRANCH   1  30
ATOM     30  C   UNL     1       5.984   4.119  15.989  0.00  0.00    +0.000 C 
BRANCH  30  32
ATOM     31  C   UNL     1       6.722   4.311  13.583  0.00  0.00    +0.000 C 
ATOM     32  C   UNL     1       5.567   3.998  14.520  0.00  0.00    +0.000 C 
ENDBRANCH  30  32
ENDBRANCH   1  30
BRANCH   9  33
ATOM     33  C   UNL     1       2.192   3.504  19.077  0.00  0.00    +0.000 C 
BRANCH  33  34
ATOM     34  C   UNL     1       2.441   3.557  20.589  0.00  0.00    +0.000 C 
ATOM     35  C   UNL     1       1.473   2.728  21.419  0.00  0.00    +0.000 C 
ENDBRANCH  33  34
ENDBRANCH   9  33
TORSDOF 11
ENDMDL
MODEL 9
REMARK VINA RESULT:      -7.1      1.699      2.544
REMARK  Name = 
REMARK  16 active torsions:
REMARK  status: ('A' for Active; 'I' for Inactive)
REMARK    1  A    between atoms: C_1  and  C_2
REMARK    2  A    between atoms: C_2  and  C_3
REMARK    3  A    between atoms: C_3  and  N_4
REMARK    4  A    between atoms: C_9  and  C_10
REMARK    5  A    between atoms: C_13  and  O_14
REMARK    6  A    between atoms: O_14  and  C_15
REMARK    7  A    between atoms: C_15  and  C_16
REMARK    8  A    between atoms: N_18  and  C_19
REMARK    9  A    between atoms: N_18  and  C_20
REMARK   10  A    between atoms: C_20  and  C_21
REMARK   11  A    between atoms: C_21  and  N_22
REMARK   12  A    between atoms: N_22  and  C_23
REMARK   13  A    between atoms: N_22  and  C_24
REMARK   14  A    between atoms: N_29  and  C_30
REMARK   15  A    between atoms: C_30  and  C_31
REMARK   16  A    between atoms: C_31  and  C_32
REMARK                            x       y       z     vdW  Elec       q    Type
REMARK                         _______ _______ _______ _____ _____    ______ ____
ROOT
ATOM      1  N   UNL     1       4.323   4.608  18.162  0.00  0.00    +0.000 N 
ATOM      2  C   UNL     1       3.893   5.902  17.819  0.00  0.00    +0.000 A 
ATOM      3  O   UNL     1       4.223   6.486  16.791  0.00  0.00    +0.000 OA
ATOM      4  C   UNL     1       3.021   6.486  18.814  0.00  0.00    +0.000 A 
ATOM      5  N   UNL     1       2.478   7.747  18.854  0.00  0.00    +0.000 NA
ATOM      6  C   UNL     1       1.763   7.797  19.964  0.00  0.00    +0.000 A 
ATOM      7  N   UNL     1       1.855   6.597  20.645  0.00  0.00    +0.000 N 
ATOM      8  C   UNL     1       2.651   5.768  19.914  0.00  0.00    +0.000 A 
ATOM      9  N   UNL     1       3.042   4.474  20.202  0.00  0.00    +0.000 N 
ATOM     10  C   UNL     1       3.932   3.860  19.296  0.00  0.00    +0.000 A 
ATOM     11  O   UNL     1       4.345   2.719  19.487  0.00  0.00    +0.000 OA
ATOM     12  H   UNL     1       1.438   6.409  21.544  0.00  0.00    +0.000 HD
ENDROOT
BRANCH   6  13
ATOM     13  C   UNL     1       1.005   8.953  20.447  0.00  0.00    +0.000 A 
ATOM     14  C   UNL     1       0.680  10.027  19.610  0.00  0.00    +0.000 A 
ATOM     15  C   UNL     1      -0.039  11.117  20.104  0.00  0.00    +0.000 A 
ATOM     16  C   UNL     1      -0.455  11.143  21.434  0.00  0.00    +0.000 A 
ATOM     17  C   UNL     1      -0.114  10.092  22.283  0.00  0.00    +0.000 A 
ATOM     18  C   UNL     1       0.603   9.000  21.788  0.00  0.00    +0.000 A 
BRANCH  16  19
ATOM     19  O   UNL     1      -1.180  12.245  21.785  0.00  0.00    +0.000 OA
BRANCH  19  20
ATOM     20  C   UNL     1      -1.717  12.268  23.100  0.00  0.00    +0.000 C 
BRANCH  20  21
ATOM     21  C   UNL     1      -2.232  13.645  23.578  0.00  0.00    +0.000 C 
ATOM     22  O   UNL     1      -1.465  14.417  24.166  0.00  0.00    +0.000 OA
ATOM     23  N   UNL     1      -3.549  14.023  23.345  0.00  0.00    +0.000 N 
ATOM     24  C   UNL     1      -4.552  13.257  22.622  0.00  0.00    +0.000 C 
BRANCH  23  25
ATOM     25  C   UNL     1      -3.969  15.337  23.864  0.00  0.00    +0.000 C 
BRANCH  25  26
ATOM     26  C   UNL     1      -4.982  16.072  22.952  0.00  0.00    +0.000 C 
BRANCH  26  27
ATOM     27  N   UNL     1      -4.385  17.105  22.073  0.00  0.00    +0.000 NA
ATOM     28  C   UNL     1      -3.141  17.649  22.631  0.00  0.00    +0.000 C 
ATOM     29  C   UNL     1      -4.103  16.533  20.750  0.00  0.00    +0.000 C 
ENDBRANCH  26  27
ENDBRANCH  25  26
ENDBRANCH  23  25
ENDBRANCH  20  21
ENDBRANCH  19  20
ENDBRANCH  16  19
ENDBRANCH   6  13
BRANCH   1  30
ATOM     30  C   UNL     1       5.215   3.950  17.210  0.00  0.00    +0.000 C 
BRANCH  30  32
ATOM     31  C   UNL     1       7.326   4.700  16.048  0.00  0.00    +0.000 C 
ATOM     32  C   UNL     1       6.662   4.420  17.386  0.00  0.00    +0.000 C 
ENDBRANCH  30  32
ENDBRANCH   1  30
BRANCH   9  33
ATOM     33  C   UNL     1       2.629   3.738  21.401  0.00  0.00    +0.000 C 
BRANCH  33  34
ATOM     34  C   UNL     1       1.447   2.783  21.189  0.00  0.00    +0.000 C 
ATOM     35  C   UNL     1       0.594   3.094  19.970  0.00  0.00    +0.000 C 
ENDBRANCH  33  34
ENDBRANCH   9  33
TORSDOF 11
ENDMDL
