MODEL 1
REMARK VINA RESULT:      -7.6      0.000      0.000
REMARK  Name = 
REMARK  6 active torsions:
REMARK  status: ('A' for Active; 'I' for Inactive)
REMARK    1  A    between atoms: C_1  and  O_2
REMARK    2  A    between atoms: O_2  and  C_3
REMARK    3  A    between atoms: C_5  and  C_6
REMARK    4  A    between atoms: C_6  and  N_7
REMARK    5  A    between atoms: C_23  and  O_24
REMARK    6  A    between atoms: O_24  and  C_25
REMARK                            x       y       z     vdW  Elec       q    Type
REMARK                         _______ _______ _______ _____ _____    ______ ____
ROOT
ATOM      1  N   UNL     1       1.120   9.520  19.400  0.00  0.00    +0.000 N 
ATOM      2  C   UNL     1       0.852   9.020  20.642  0.00  0.00    +0.000 A 
ATOM      3  N   UNL     1       1.396   7.834  20.816  0.00  0.00    +0.000 NA
ATOM      4  C   UNL     1       2.071   7.563  19.635  0.00  0.00    +0.000 A 
ATOM      5  C   UNL     1       2.833   6.457  19.183  0.00  0.00    +0.000 A 
ATOM      6  N   UNL     1       3.006   5.279  19.867  0.00  0.00    +0.000 N 
ATOM      7  C   UNL     1       4.207   4.473  19.661  0.00  0.00    +0.000 C 
ATOM      8  C   UNL     1       3.810   2.994  19.557  0.00  0.00    +0.000 C 
ATOM      9  O   UNL     1       3.042   2.572  20.699  0.00  0.00    +0.000 OA
ATOM     10  C   UNL     1       1.842   3.359  20.813  0.00  0.00    +0.000 C 
ATOM     11  C   UNL     1       2.150   4.860  20.975  0.00  0.00    +0.000 C 
ATOM     12  N   UNL     1       3.399   6.567  17.944  0.00  0.00    +0.000 NA
ATOM     13  C   UNL     1       3.178   7.671  17.204  0.00  0.00    +0.000 A 
ATOM     14  N   UNL     1       2.467   8.759  17.532  0.00  0.00    +0.000 NA
ATOM     15  C   UNL     1       1.938   8.632  18.757  0.00  0.00    +0.000 A 
ENDROOT
BRANCH   1  16
ATOM     16  C   UNL     1       0.675  10.798  18.877  0.00  0.00    +0.000 C 
BRANCH  16  19
ATOM     17  C   UNL     1      -3.019  11.767  18.974  0.00  0.00    +0.000 A 
ATOM     18  C   UNL     1      -1.669  11.644  19.320  0.00  0.00    +0.000 A 
ATOM     19  C   UNL     1      -0.804  10.829  18.575  0.00  0.00    +0.000 A 
ATOM     20  C   UNL     1      -1.337  10.118  17.489  0.00  0.00    +0.000 A 
ATOM     21  C   UNL     1      -2.683  10.238  17.130  0.00  0.00    +0.000 A 
ATOM     22  C   UNL     1      -3.523  11.060  17.879  0.00  0.00    +0.000 A 
BRANCH  17  24
ATOM     23  C   UNL     1      -5.138  12.423  19.837  0.00  0.00    +0.000 C 
ATOM     24  O   UNL     1      -3.732  12.629  19.765  0.00  0.00    +0.000 OA
ENDBRANCH  17  24
BRANCH  21  25
ATOM     25  O   UNL     1      -3.039   9.523  16.020  0.00  0.00    +0.000 OA
ATOM     26  C   UNL     1      -3.013  10.206  14.772  0.00  0.00    +0.000 C 
ENDBRANCH  21  25
ENDBRANCH  16  19
ENDBRANCH   1  16
TORSDOF 4
ENDMDL
MODEL 2
REMARK VINA RESULT:      -7.5      0.382      2.354
REMARK  Name = 
REMARK  6 active torsions:
REMARK  status: ('A' for Active; 'I' for Inactive)
REMARK    1  A    between atoms: C_1  and  O_2
REMARK    2  A    between atoms: O_2  and  C_3
REMARK    3  A    between atoms: C_5  and  C_6
REMARK    4  A    between atoms: C_6  and  N_7
REMARK    5  A    between atoms: C_23  and  O_24
REMARK    6  A    between atoms: O_24  and  C_25
REMARK                            x       y       z     vdW  Elec       q    Type
REMARK                         _______ _______ _______ _____ _____    ______ ____
ROOT
ATOM      1  N   UNL     1       1.136   9.585  19.721  0.00  0.00    +0.000 N 
ATOM      2  C   UNL     1       0.794   9.020  20.916  0.00  0.00    +0.000 A 
ATOM      3  N   UNL     1       1.232   7.783  21.011  0.00  0.00    +0.000 NA
ATOM      4  C   UNL     1       1.914   7.543  19.828  0.00  0.00    +0.000 A 
ATOM      5  C   UNL     1       2.593   6.412  19.309  0.00  0.00    +0.000 A 
ATOM      6  N   UNL     1       2.649   5.176  19.906  0.00  0.00    +0.000 N 
ATOM      7  C   UNL     1       3.784   4.289  19.664  0.00  0.00    +0.000 C 
ATOM      8  C   UNL     1       3.268   2.861  19.441  0.00  0.00    +0.000 C 
ATOM      9  O   UNL     1       2.437   2.423  20.532  0.00  0.00    +0.000 OA
ATOM     10  C   UNL     1       1.305   3.298  20.680  0.00  0.00    +0.000 C 
ATOM     11  C   UNL     1       1.731   4.752  20.961  0.00  0.00    +0.000 C 
ATOM     12  N   UNL     1       3.199   6.565  18.094  0.00  0.00    +0.000 NA
ATOM     13  C   UNL     1       3.091   7.734  17.434  0.00  0.00    +0.000 A 
ATOM     14  N   UNL     1       2.465   8.852  17.829  0.00  0.00    +0.000 NA
ATOM     15  C   UNL     1       1.894   8.681  19.030  0.00  0.00    +0.000 A 
ENDROOT
BRANCH   1  16
ATOM     16  C   UNL     1       0.813  10.932  19.287  0.00  0.00    +0.000 C 
BRANCH  16  19
ATOM     17  C   UNL     1      -2.471  10.402  17.408  0.00  0.00    +0.000 A 
ATOM     18  C   UNL     1      -1.115  10.359  17.751  0.00  0.00    +0.000 A 
ATOM     19  C   UNL     1      -0.624  11.081  18.848  0.00  0.00    +0.000 A 
ATOM     20  C   UNL     1      -1.526  11.870  19.578  0.00  0.00    +0.000 A 
ATOM     21  C   UNL     1      -2.884  11.916  19.249  0.00  0.00    +0.000 A 
ATOM     22  C   UNL     1      -3.352  11.184  18.159  0.00  0.00    +0.000 A 
BRANCH  17  24
ATOM     23  C   UNL     1      -2.905  10.253  15.073  0.00  0.00    +0.000 C 
ATOM     24  O   UNL     1      -2.813   9.614  16.341  0.00  0.00    +0.000 OA
ENDBRANCH  17  24
BRANCH  21  25
ATOM     25  O   UNL     1      -3.644  12.690  20.083  0.00  0.00    +0.000 OA
ATOM     26  C   UNL     1      -5.055  12.636  19.912  0.00  0.00    +0.000 C 
ENDBRANCH  21  25
ENDBRANCH  16  19
ENDBRANCH   1  16
TORSDOF 4
ENDMDL
MODEL 3
REMARK VINA RESULT:      -7.3      3.407      8.747
REMARK  Name = 
REMARK  6 active torsions:
REMARK  status: ('A' for Active; 'I' for Inactive)
REMARK    1  A    between atoms: C_1  and  O_2
REMARK    2  A    between atoms: O_2  and  C_3
REMARK    3  A    between atoms: C_5  and  C_6
REMARK    4  A    between atoms: C_6  and  N_7
REMARK    5  A    between atoms: C_23  and  O_24
REMARK    6  A    between atoms: O_24  and  C_25
REMARK                            x       y       z     vdW  Elec       q    Type
REMARK                         _______ _______ _______ _____ _____    ______ ____
ROOT
ATOM      1  N   UNL     1       3.032   5.752  17.786  0.00  0.00    +0.000 N 
ATOM      2  C   UNL     1       3.239   7.011  17.300  0.00  0.00    +0.000 A 
ATOM      3  N   UNL     1       2.766   7.930  18.115  0.00  0.00    +0.000 NA
ATOM      4  C   UNL     1       2.249   7.231  19.196  0.00  0.00    +0.000 A 
ATOM      5  C   UNL     1       1.591   7.629  20.386  0.00  0.00    +0.000 A 
ATOM      6  N   UNL     1       1.229   8.916  20.701  0.00  0.00    +0.000 N 
ATOM      7  C   UNL     1       1.120   9.333  22.097  0.00  0.00    +0.000 C 
ATOM      8  C   UNL     1      -0.149  10.178  22.272  0.00  0.00    +0.000 C 
ATOM      9  O   UNL     1      -0.178  11.286  21.353  0.00  0.00    +0.000 OA
ATOM     10  C   UNL     1      -0.132  10.809  19.996  0.00  0.00    +0.000 C 
ATOM     11  C   UNL     1       1.142   9.990  19.714  0.00  0.00    +0.000 C 
ATOM     12  N   UNL     1       1.256   6.636  21.263  0.00  0.00    +0.000 NA
ATOM     13  C   UNL     1       1.513   5.352  20.950  0.00  0.00    +0.000 A 
ATOM     14  N   UNL     1       2.115   4.872  19.851  0.00  0.00    +0.000 NA
ATOM     15  C   UNL     1       2.449   5.867  19.017  0.00  0.00    +0.000 A 
ENDROOT
BRANCH   1  16
ATOM     16  C   UNL     1       3.425   4.512  17.143  0.00  0.00    +0.000 C 
BRANCH  16  19
ATOM     17  C   UNL     1       6.629   4.570  15.063  0.00  0.00    +0.000 A 
ATOM     18  C   UNL     1       5.279   4.483  15.421  0.00  0.00    +0.000 A 
ATOM     19  C   UNL     1       4.887   4.480  16.767  0.00  0.00    +0.000 A 
ATOM     20  C   UNL     1       5.889   4.540  17.748  0.00  0.00    +0.000 A 
ATOM     21  C   UNL     1       7.240   4.634  17.403  0.00  0.00    +0.000 A 
ATOM     22  C   UNL     1       7.607   4.644  16.058  0.00  0.00    +0.000 A 
BRANCH  17  24
ATOM     23  C   UNL     1       6.203   3.621  12.923  0.00  0.00    +0.000 C 
ATOM     24  O   UNL     1       6.858   4.606  13.713  0.00  0.00    +0.000 OA
ENDBRANCH  17  24
BRANCH  21  25
ATOM     25  O   UNL     1       8.092   4.734  18.469  0.00  0.00    +0.000 OA
ATOM     26  C   UNL     1       7.752   5.669  19.486  0.00  0.00    +0.000 C 
ENDBRANCH  21  25
ENDBRANCH  16  19
ENDBRANCH   1  16
TORSDOF 4
ENDMDL
MODEL 4
REMARK VINA RESULT:      -7.1      2.251      8.140
REMARK  Name = 
REMARK  6 active torsions:
REMARK  status: ('A' for Active; 'I' for Inactive)
REMARK    1  A    between atoms: C_1  and  O_2
REMARK    2  A    between atoms: O_2  and  C_3
REMARK    3  A    between atoms: C_5  and  C_6
REMARK    4  A    between atoms: C_6  and  N_7
REMARK    5  A    between atoms: C_23  and  O_24
REMARK    6  A    between atoms: O_24  and  C_25
REMARK                            x       y       z     vdW  Elec       q    Type
REMARK                         _______ _______ _______ _____ _____    ______ ____
ROOT
ATOM      1  N   UNL     1       2.215   7.958  19.110  0.00  0.00    +0.000 N 
ATOM      2  C   UNL     1       1.971   8.442  17.856  0.00  0.00    +0.000 A 
ATOM      3  N   UNL     1       0.991   9.321  17.858  0.00  0.00    +0.000 NA
ATOM      4  C   UNL     1       0.598   9.431  19.183  0.00  0.00    +0.000 A 
ATOM      5  C   UNL     1      -0.406  10.185  19.841  0.00  0.00    +0.000 A 
ATOM      6  N   UNL     1      -1.335  10.982  19.219  0.00  0.00    +0.000 N 
ATOM      7  C   UNL     1      -1.908  12.132  19.914  0.00  0.00    +0.000 C 
ATOM      8  C   UNL     1      -3.420  12.176  19.655  0.00  0.00    +0.000 C 
ATOM      9  O   UNL     1      -3.714  12.172  18.245  0.00  0.00    +0.000 OA
ATOM     10  C   UNL     1      -3.180  10.986  17.628  0.00  0.00    +0.000 C 
ATOM     11  C   UNL     1      -1.652  10.886  17.795  0.00  0.00    +0.000 C 
ATOM     12  N   UNL     1      -0.471  10.065  21.200  0.00  0.00    +0.000 NA
ATOM     13  C   UNL     1       0.365   9.225  21.839  0.00  0.00    +0.000 A 
ATOM     14  N   UNL     1       1.333   8.461  21.312  0.00  0.00    +0.000 NA
ATOM     15  C   UNL     1       1.388   8.610  19.981  0.00  0.00    +0.000 A 
ENDROOT
BRANCH   1  16
ATOM     16  C   UNL     1       3.222   6.976  19.467  0.00  0.00    +0.000 C 
BRANCH  16  19
ATOM     17  C   UNL     1       4.473   4.436  16.902  0.00  0.00    +0.000 A 
ATOM     18  C   UNL     1       4.377   5.584  17.697  0.00  0.00    +0.000 A 
ATOM     19  C   UNL     1       3.262   5.801  18.519  0.00  0.00    +0.000 A 
ATOM     20  C   UNL     1       2.232   4.849  18.503  0.00  0.00    +0.000 A 
ATOM     21  C   UNL     1       2.320   3.696  17.718  0.00  0.00    +0.000 A 
ATOM     22  C   UNL     1       3.440   3.495  16.914  0.00  0.00    +0.000 A 
BRANCH  17  24
ATOM     23  C   UNL     1       5.542   4.525  14.777  0.00  0.00    +0.000 C 
ATOM     24  O   UNL     1       5.636   4.338  16.184  0.00  0.00    +0.000 OA
ENDBRANCH  17  24
BRANCH  21  25
ATOM     25  O   UNL     1       1.260   2.840  17.847  0.00  0.00    +0.000 OA
ATOM     26  C   UNL     1       0.739   2.646  19.156  0.00  0.00    +0.000 C 
ENDBRANCH  21  25
ENDBRANCH  16  19
ENDBRANCH   1  16
TORSDOF 4
ENDMDL
MODEL 5
REMARK VINA RESULT:      -7.0      3.261      8.564
REMARK  Name = 
REMARK  6 active torsions:
REMARK  status: ('A' for Active; 'I' for Inactive)
REMARK    1  A    between atoms: C_1  and  O_2
REMARK    2  A    between atoms: O_2  and  C_3
REMARK    3  A    between atoms: C_5  and  C_6
REMARK    4  A    between atoms: C_6  and  N_7
REMARK    5  A    between atoms: C_23  and  O_24
REMARK    6  A    between atoms: O_24  and  C_25
REMARK                            x       y       z     vdW  Elec       q    Type
REMARK                         _______ _______ _______ _____ _____    ______ ____
ROOT
ATOM      1  N   UNL     1       3.014   6.256  17.895  0.00  0.00    +0.000 N 
ATOM      2  C   UNL     1       3.202   7.426  17.217  0.00  0.00    +0.000 A 
ATOM      3  N   UNL     1       2.678   8.449  17.860  0.00  0.00    +0.000 NA
ATOM      4  C   UNL     1       2.146   7.917  19.025  0.00  0.00    +0.000 A 
ATOM      5  C   UNL     1       1.440   8.481  20.117  0.00  0.00    +0.000 A 
ATOM      6  N   UNL     1       1.033   9.789  20.209  0.00  0.00    +0.000 N 
ATOM      7  C   UNL     1       0.869  10.422  21.516  0.00  0.00    +0.000 C 
ATOM      8  C   UNL     1      -0.428  11.243  21.518  0.00  0.00    +0.000 C 
ATOM      9  O   UNL     1      -0.457  12.187  20.431  0.00  0.00    +0.000 OA
ATOM     10  C   UNL     1      -0.355  11.500  19.170  0.00  0.00    +0.000 C 
ATOM     11  C   UNL     1       0.949  10.687  19.060  0.00  0.00    +0.000 C 
ATOM     12  N   UNL     1       1.104   7.632  21.133  0.00  0.00    +0.000 NA
ATOM     13  C   UNL     1       1.406   6.322  21.040  0.00  0.00    +0.000 A 
ATOM     14  N   UNL     1       2.055   5.692  20.050  0.00  0.00    +0.000 NA
ATOM     15  C   UNL     1       2.388   6.549  19.075  0.00  0.00    +0.000 A 
ENDROOT
BRANCH   1  16
ATOM     16  C   UNL     1       3.460   4.941  17.473  0.00  0.00    +0.000 C 
BRANCH  16  19
ATOM     17  C   UNL     1       7.272   4.742  17.627  0.00  0.00    +0.000 A 
ATOM     18  C   UNL     1       5.932   4.879  18.008  0.00  0.00    +0.000 A 
ATOM     19  C   UNL     1       4.909   4.918  17.050  0.00  0.00    +0.000 A 
ATOM     20  C   UNL     1       5.268   4.842  15.696  0.00  0.00    +0.000 A 
ATOM     21  C   UNL     1       6.602   4.698  15.303  0.00  0.00    +0.000 A 
ATOM     22  C   UNL     1       7.602   4.653  16.272  0.00  0.00    +0.000 A 
BRANCH  17  24
ATOM     23  C   UNL     1       7.991   5.627  19.716  0.00  0.00    +0.000 C 
ATOM     24  O   UNL     1       8.156   4.675  18.671  0.00  0.00    +0.000 OA
ENDBRANCH  17  24
BRANCH  21  25
ATOM     25  O   UNL     1       6.786   4.588  13.951  0.00  0.00    +0.000 OA
ATOM     26  C   UNL     1       5.965   3.656  13.258  0.00  0.00    +0.000 C 
ENDBRANCH  21  25
ENDBRANCH  16  19
ENDBRANCH   1  16
TORSDOF 4
ENDMDL
MODEL 6
REMARK VINA RESULT:      -7.0      2.189      7.879
REMARK  Name = 
REMARK  6 active torsions:
REMARK  status: ('A' for Active; 'I' for Inactive)
REMARK    1  A    between atoms: C_1  and  O_2
REMARK    2  A    between atoms: O_2  and  C_3
REMARK    3  A    between atoms: C_5  and  C_6
REMARK    4  A    between atoms: C_6  and  N_7
REMARK    5  A    between atoms: C_23  and  O_24
REMARK    6  A    between atoms: O_24  and  C_25
REMARK                            x       y       z     vdW  Elec       q    Type
REMARK                         _______ _______ _______ _____ _____    ______ ____
ROOT
ATOM      1  N   UNL     1       2.271   7.929  19.087  0.00  0.00    +0.000 N 
ATOM      2  C   UNL     1       2.037   8.401  17.827  0.00  0.00    +0.000 A 
ATOM      3  N   UNL     1       1.046   9.267  17.809  0.00  0.00    +0.000 NA
ATOM      4  C   UNL     1       0.634   9.381  19.129  0.00  0.00    +0.000 A 
ATOM      5  C   UNL     1      -0.387  10.128  19.767  0.00  0.00    +0.000 A 
ATOM      6  N   UNL     1      -1.319  10.908  19.127  0.00  0.00    +0.000 N 
ATOM      7  C   UNL     1      -1.915  12.056  19.806  0.00  0.00    +0.000 C 
ATOM      8  C   UNL     1      -3.424  12.079  19.526  0.00  0.00    +0.000 C 
ATOM      9  O   UNL     1      -3.699  12.060  18.113  0.00  0.00    +0.000 OA
ATOM     10  C   UNL     1      -3.142  10.877  17.512  0.00  0.00    +0.000 C 
ATOM     11  C   UNL     1      -1.615  10.797  17.700  0.00  0.00    +0.000 C 
ATOM     12  N   UNL     1      -0.470  10.017  21.126  0.00  0.00    +0.000 NA
ATOM     13  C   UNL     1       0.368   9.191  21.782  0.00  0.00    +0.000 A 
ATOM     14  N   UNL     1       1.353   8.437  21.274  0.00  0.00    +0.000 NA
ATOM     15  C   UNL     1       1.424   8.576  19.943  0.00  0.00    +0.000 A 
ENDROOT
BRANCH   1  16
ATOM     16  C   UNL     1       3.286   6.963  19.465  0.00  0.00    +0.000 C 
BRANCH  16  19
ATOM     17  C   UNL     1       2.051   3.698  17.912  0.00  0.00    +0.000 A 
ATOM     18  C   UNL     1       2.163   4.808  18.757  0.00  0.00    +0.000 A 
ATOM     19  C   UNL     1       3.237   5.702  18.636  0.00  0.00    +0.000 A 
ATOM     20  C   UNL     1       4.211   5.437  17.661  0.00  0.00    +0.000 A 
ATOM     21  C   UNL     1       4.106   4.335  16.808  0.00  0.00    +0.000 A 
ATOM     22  C   UNL     1       3.026   3.464  16.940  0.00  0.00    +0.000 A 
BRANCH  17  24
ATOM     23  C   UNL     1       0.654   2.547  19.459  0.00  0.00    +0.000 C 
ATOM     24  O   UNL     1       0.929   2.939  18.118  0.00  0.00    +0.000 OA
ENDBRANCH  17  24
BRANCH  21  25
ATOM     25  O   UNL     1       5.106   4.240  15.879  0.00  0.00    +0.000 OA
ATOM     26  C   UNL     1       5.829   5.428  15.580  0.00  0.00    +0.000 C 
ENDBRANCH  21  25
ENDBRANCH  16  19
ENDBRANCH   1  16
TORSDOF 4
ENDMDL
MODEL 7
REMARK VINA RESULT:      -7.0      1.403      2.372
REMARK  Name = 
REMARK  6 active torsions:
REMARK  status: ('A' for Active; 'I' for Inactive)
REMARK    1  A    between atoms: C_1  and  O_2
REMARK    2  A    between atoms: O_2  and  C_3
REMARK    3  A    between atoms: C_5  and  C_6
REMARK    4  A    between atoms: C_6  and  N_7
REMARK    5  A    between atoms: C_23  and  O_24
REMARK    6  A    between atoms: O_24  and  C_25
REMARK                            x       y       z     vdW  Elec       q    Type
REMARK                         _______ _______ _______ _____ _____    ______ ____
ROOT
ATOM      1  N   UNL     1       1.209  10.021  18.965  0.00  0.00    +0.000 N 
ATOM      2  C   UNL     1       1.823   9.990  17.746  0.00  0.00    +0.000 A 
ATOM      3  N   UNL     1       2.449   8.849  17.547  0.00  0.00    +0.000 NA
ATOM      4  C   UNL     1       2.206   8.094  18.683  0.00  0.00    +0.000 A 
ATOM      5  C   UNL     1       2.609   6.799  19.095  0.00  0.00    +0.000 A 
ATOM      6  N   UNL     1       3.474   5.981  18.409  0.00  0.00    +0.000 N 
ATOM      7  C   UNL     1       3.384   4.529  18.545  0.00  0.00    +0.000 C 
ATOM      8  C   UNL     1       4.798   3.948  18.684  0.00  0.00    +0.000 C 
ATOM      9  O   UNL     1       5.647   4.357  17.595  0.00  0.00    +0.000 OA
ATOM     10  C   UNL     1       5.746   5.792  17.552  0.00  0.00    +0.000 C 
ATOM     11  C   UNL     1       4.372   6.461  17.361  0.00  0.00    +0.000 C 
ATOM     12  N   UNL     1       2.126   6.358  20.295  0.00  0.00    +0.000 NA
ATOM     13  C   UNL     1       1.347   7.166  21.040  0.00  0.00    +0.000 A 
ATOM     14  N   UNL     1       0.922   8.404  20.749  0.00  0.00    +0.000 NA
ATOM     15  C   UNL     1       1.395   8.805  19.561  0.00  0.00    +0.000 A 
ENDROOT
BRANCH   1  16
ATOM     16  C   UNL     1       0.435  11.123  19.506  0.00  0.00    +0.000 C 
BRANCH  16  19
ATOM     17  C   UNL     1      -3.266  12.013  19.178  0.00  0.00    +0.000 A 
ATOM     18  C   UNL     1      -1.961  11.920  19.675  0.00  0.00    +0.000 A 
ATOM     19  C   UNL     1      -1.001  11.121  19.039  0.00  0.00    +0.000 A 
ATOM     20  C   UNL     1      -1.392  10.393  17.904  0.00  0.00    +0.000 A 
ATOM     21  C   UNL     1      -2.691  10.482  17.395  0.00  0.00    +0.000 A 
ATOM     22  C   UNL     1      -3.627  11.290  18.038  0.00  0.00    +0.000 A 
BRANCH  17  24
ATOM     23  C   UNL     1      -5.332  12.343  20.313  0.00  0.00    +0.000 C 
ATOM     24  O   UNL     1      -4.081  12.863  19.877  0.00  0.00    +0.000 OA
ENDBRANCH  17  24
BRANCH  21  25
ATOM     25  O   UNL     1      -2.905   9.754  16.257  0.00  0.00    +0.000 OA
ATOM     26  C   UNL     1      -3.342  10.464  15.105  0.00  0.00    +0.000 C 
ENDBRANCH  21  25
ENDBRANCH  16  19
ENDBRANCH   1  16
TORSDOF 4
ENDMDL
MODEL 8
REMARK VINA RESULT:      -6.9      1.800      3.616
REMARK  Name = 
REMARK  6 active torsions:
REMARK  status: ('A' for Active; 'I' for Inactive)
REMARK    1  A    between atoms: C_1  and  O_2
REMARK    2  A    between atoms: O_2  and  C_3
REMARK    3  A    between atoms: C_5  and  C_6
REMARK    4  A    between atoms: C_6  and  N_7
REMARK    5  A    between atoms: C_23  and  O_24
REMARK    6  A    between atoms: O_24  and  C_25
REMARK                            x       y       z     vdW  Elec       q    Type
REMARK                         _______ _______ _______ _____ _____    ______ ____
ROOT
ATOM      1  N   UNL     1       1.453   9.180  19.180  0.00  0.00    +0.000 N 
ATOM      2  C   UNL     1       1.954   9.553  17.965  0.00  0.00    +0.000 A 
ATOM      3  N   UNL     1       2.689   8.602  17.431  0.00  0.00    +0.000 NA
ATOM      4  C   UNL     1       2.641   7.549  18.333  0.00  0.00    +0.000 A 
ATOM      5  C   UNL     1       3.230   6.261  18.355  0.00  0.00    +0.000 A 
ATOM      6  N   UNL     1       4.121   5.778  17.428  0.00  0.00    +0.000 N 
ATOM      7  C   UNL     1       4.216   4.343  17.170  0.00  0.00    +0.000 C 
ATOM      8  C   UNL     1       5.695   3.946  17.069  0.00  0.00    +0.000 C 
ATOM      9  O   UNL     1       6.388   4.738  16.086  0.00  0.00    +0.000 OA
ATOM     10  C   UNL     1       6.313   6.134  16.428  0.00  0.00    +0.000 C 
ATOM     11  C   UNL     1       4.857   6.634  16.500  0.00  0.00    +0.000 C 
ATOM     12  N   UNL     1       2.913   5.460  19.416  0.00  0.00    +0.000 NA
ATOM     13  C   UNL     1       2.114   5.930  20.394  0.00  0.00    +0.000 A 
ATOM     14  N   UNL     1       1.521   7.130  20.473  0.00  0.00    +0.000 NA
ATOM     15  C   UNL     1       1.835   7.888  19.413  0.00  0.00    +0.000 A 
ENDROOT
BRANCH   1  16
ATOM     16  C   UNL     1       0.606   9.985  20.040  0.00  0.00    +0.000 C 
BRANCH  16  19
ATOM     17  C   UNL     1      -2.154  10.505  17.450  0.00  0.00    +0.000 A 
ATOM     18  C   UNL     1      -0.983  10.057  18.072  0.00  0.00    +0.000 A 
ATOM     19  C   UNL     1      -0.589  10.561  19.319  0.00  0.00    +0.000 A 
ATOM     20  C   UNL     1      -1.389  11.548  19.916  0.00  0.00    +0.000 A 
ATOM     21  C   UNL     1      -2.564  11.999  19.307  0.00  0.00    +0.000 A 
ATOM     22  C   UNL     1      -2.941  11.478  18.071  0.00  0.00    +0.000 A 
BRANCH  17  24
ATOM     23  C   UNL     1      -3.060  10.688  15.256  0.00  0.00    +0.000 C 
ATOM     24  O   UNL     1      -2.433   9.893  16.256  0.00  0.00    +0.000 OA
ENDBRANCH  17  24
BRANCH  21  25
ATOM     25  O   UNL     1      -3.260  12.925  20.035  0.00  0.00    +0.000 OA
ATOM     26  C   UNL     1      -4.650  12.691  20.224  0.00  0.00    +0.000 C 
ENDBRANCH  21  25
ENDBRANCH  16  19
ENDBRANCH   1  16
TORSDOF 4
ENDMDL
MODEL 9
REMARK VINA RESULT:      -6.9      3.149      8.428
REMARK  Name = 
REMARK  6 active torsions:
REMARK  status: ('A' for Active; 'I' for Inactive)
REMARK    1  A    between atoms: C_1  and  O_2
REMARK    2  A    between atoms: O_2  and  C_3
REMARK    3  A    between atoms: C_5  and  C_6
REMARK    4  A    between atoms: C_6  and  N_7
REMARK    5  A    between atoms: C_23  and  O_24
REMARK    6  A    between atoms: O_24  and  C_25
REMARK                            x       y       z     vdW  Elec       q    Type
REMARK                         _______ _______ _______ _____ _____    ______ ____
ROOT
ATOM      1  N   UNL     1       2.680   6.974  18.233  0.00  0.00    +0.000 N 
ATOM      2  C   UNL     1       2.779   7.965  17.299  0.00  0.00    +0.000 A 
ATOM      3  N   UNL     1       2.222   9.082  17.716  0.00  0.00    +0.000 NA
ATOM      4  C   UNL     1       1.762   8.809  18.995  0.00  0.00    +0.000 A 
ATOM      5  C   UNL     1       1.065   9.575  19.962  0.00  0.00    +0.000 A 
ATOM      6  N   UNL     1       0.589  10.849  19.773  0.00  0.00    +0.000 N 
ATOM      7  C   UNL     1       0.436  11.758  20.907  0.00  0.00    +0.000 C 
ATOM      8  C   UNL     1      -0.903  12.497  20.783  0.00  0.00    +0.000 C 
ATOM      9  O   UNL     1      -1.023  13.163  19.513  0.00  0.00    +0.000 OA
ATOM     10  C   UNL     1      -0.927  12.210  18.438  0.00  0.00    +0.000 C 
ATOM     11  C   UNL     1       0.415  11.455  18.455  0.00  0.00    +0.000 C 
ATOM     12  N   UNL     1       0.812   8.968  21.159  0.00  0.00    +0.000 NA
ATOM     13  C   UNL     1       1.183   7.687  21.352  0.00  0.00    +0.000 A 
ATOM     14  N   UNL     1       1.831   6.877  20.503  0.00  0.00    +0.000 NA
ATOM     15  C   UNL     1       2.081   7.501  19.343  0.00  0.00    +0.000 A 
ENDROOT
BRANCH   1  16
ATOM     16  C   UNL     1       3.183   5.619  18.101  0.00  0.00    +0.000 C 
BRANCH  16  19
ATOM     17  C   UNL     1       6.916   6.191  17.523  0.00  0.00    +0.000 A 
ATOM     18  C   UNL     1       5.612   6.326  18.011  0.00  0.00    +0.000 A 
ATOM     19  C   UNL     1       4.561   5.560  17.486  0.00  0.00    +0.000 A 
ATOM     20  C   UNL     1       4.849   4.673  16.437  0.00  0.00    +0.000 A 
ATOM     21  C   UNL     1       6.149   4.525  15.946  0.00  0.00    +0.000 A 
ATOM     22  C   UNL     1       7.180   5.291  16.488  0.00  0.00    +0.000 A 
BRANCH  17  24
ATOM     23  C   UNL     1       7.948   8.326  17.735  0.00  0.00    +0.000 C 
ATOM     24  O   UNL     1       7.845   6.971  18.160  0.00  0.00    +0.000 OA
ENDBRANCH  17  24
BRANCH  21  25
ATOM     25  O   UNL     1       6.279   3.587  14.958  0.00  0.00    +0.000 OA
ATOM     26  C   UNL     1       5.861   3.960  13.650  0.00  0.00    +0.000 C 
ENDBRANCH  21  25
ENDBRANCH  16  19
ENDBRANCH   1  16
TORSDOF 4
ENDMDL
