MODEL 1
REMARK VINA RESULT:      -7.9      0.000      0.000
REMARK  Name = 
REMARK  10 active torsions:
REMARK  status: ('A' for Active; 'I' for Inactive)
REMARK    1  A    between atoms: C_1  and  N_2
REMARK    2  A    between atoms: N_2  and  C_3
REMARK    3  A    between atoms: N_2  and  C_4
REMARK    4  A    between atoms: C_7  and  C_8
REMARK    5  A    between atoms: C_9  and  S_10
REMARK    6  A    between atoms: C_9  and  C_19
REMARK    7  A    between atoms: S_10  and  C_11
REMARK    8  A    between atoms: C_11  and  C_12
REMARK    9  A    between atoms: C_19  and  C_21
REMARK   10  A    between atoms: C_24  and  N_25
REMARK                            x       y       z     vdW  Elec       q    Type
REMARK                         _______ _______ _______ _____ _____    ______ ____
ROOT
ATOM      1  C   UNL     1       5.685   6.627  18.457  0.00  0.00    +0.000 C 
ATOM      2  C   UNL     1       6.828   6.537  17.743  0.00  0.00    +0.000 C 
ENDROOT
BRANCH   1   6
ATOM      3  C   UNL     1       2.717   3.584  19.213  0.00  0.00    +0.000 A 
ATOM      4  C   UNL     1       2.478   4.627  18.302  0.00  0.00    +0.000 A 
ATOM      5  C   UNL     1       3.421   5.639  18.054  0.00  0.00    +0.000 A 
ATOM      6  C   UNL     1       4.657   5.610  18.689  0.00  0.00    +0.000 A 
ATOM      7  C   UNL     1       4.961   4.531  19.523  0.00  0.00    +0.000 A 
ATOM      8  C   UNL     1       4.003   3.537  19.779  0.00  0.00    +0.000 A 
BRANCH   3  10
ATOM      9  C   UNL     1       0.580   2.483  18.679  0.00  0.00    +0.000 C 
ATOM     10  N   UNL     1       1.747   2.623  19.549  0.00  0.00    +0.000 N 
ATOM     11  C   UNL     1       1.470   2.493  20.984  0.00  0.00    +0.000 C 
ENDBRANCH   3  10
ENDBRANCH   1   6
BRANCH   2  12
ATOM     12  C   UNL     1       7.306   5.199  17.129  0.00  0.00    +0.000 C 
ATOM     13  O   UNL     1       8.115   4.472  17.703  0.00  0.00    +0.000 OA
BRANCH  12  14
ATOM     14  C   UNL     1       6.780   4.705  15.815  0.00  0.00    +0.000 A 
ATOM     15  C   UNL     1       5.616   3.943  15.686  0.00  0.00    +0.000 A 
ATOM     16  C   UNL     1       5.237   3.393  14.454  0.00  0.00    +0.000 A 
ATOM     17  C   UNL     1       5.972   3.706  13.308  0.00  0.00    +0.000 A 
ATOM     18  C   UNL     1       7.067   4.577  13.386  0.00  0.00    +0.000 A 
ATOM     19  C   UNL     1       7.470   5.066  14.644  0.00  0.00    +0.000 A 
BRANCH  17  20
ATOM     20  N   UNL     1       5.572   3.130  12.021  0.00  0.00    +0.000 N 
ATOM     21  O   UNL     1       6.370   2.361  11.457  0.00  0.00    +0.000 OA
ATOM     22  O   UNL     1       4.466   3.450  11.560  0.00  0.00    +0.000 OA
ENDBRANCH  17  20
ENDBRANCH  12  14
ENDBRANCH   2  12
BRANCH   2  23
ATOM     23  S   UNL     1       7.641   8.024  17.302  0.00  0.00    +0.000 S 
BRANCH  23  24
ATOM     24  C   UNL     1       8.660   8.451  18.746  0.00  0.00    +0.000 C 
BRANCH  24  25
ATOM     25  C   UNL     1       8.925   9.941  18.792  0.00  0.00    +0.000 A 
ATOM     26  C   UNL     1       9.520  10.514  19.930  0.00  0.00    +0.000 A 
ATOM     27  C   UNL     1       9.765  11.889  19.994  0.00  0.00    +0.000 A 
ATOM     28  C   UNL     1       9.412  12.705  18.922  0.00  0.00    +0.000 A 
ATOM     29 CL   UNL     1       9.721  14.394  18.996  0.00  0.00    +0.000 Cl
ATOM     30  C   UNL     1       8.807  12.157  17.791  0.00  0.00    +0.000 A 
ATOM     31  C   UNL     1       8.560  10.781  17.729  0.00  0.00    +0.000 A 
ENDBRANCH  24  25
ENDBRANCH  23  24
ENDBRANCH   2  23
TORSDOF 8
ENDMDL
MODEL 2
REMARK VINA RESULT:      -7.7      0.339      1.245
REMARK  Name = 
REMARK  10 active torsions:
REMARK  status: ('A' for Active; 'I' for Inactive)
REMARK    1  A    between atoms: C_1  and  N_2
REMARK    2  A    between atoms: N_2  and  C_3
REMARK    3  A    between atoms: N_2  and  C_4
REMARK    4  A    between atoms: C_7  and  C_8
REMARK    5  A    between atoms: C_9  and  S_10
REMARK    6  A    between atoms: C_9  and  C_19
REMARK    7  A    between atoms: S_10  and  C_11
REMARK    8  A    between atoms: C_11  and  C_12
REMARK    9  A    between atoms: C_19  and  C_21
REMARK   10  A    between atoms: C_24  and  N_25
REMARK                            x       y       z     vdW  Elec       q    Type
REMARK                         _______ _______ _______ _____ _____    ______ ____
ROOT
ATOM      1  C   UNL     1       5.554   6.868  18.406  0.00  0.00    +0.000 C 
ATOM      2  C   UNL     1       6.719   6.643  17.762  0.00  0.00    +0.000 C 
ENDROOT
BRANCH   1   6
ATOM      3  C   UNL     1       2.307   4.131  19.185  0.00  0.00    +0.000 A 
ATOM      4  C   UNL     1       2.239   5.066  18.137  0.00  0.00    +0.000 A 
ATOM      5  C   UNL     1       3.275   5.980  17.877  0.00  0.00    +0.000 A 
ATOM      6  C   UNL     1       4.435   5.954  18.643  0.00  0.00    +0.000 A 
ATOM      7  C   UNL     1       4.572   4.970  19.625  0.00  0.00    +0.000 A 
ATOM      8  C   UNL     1       3.523   4.076  19.890  0.00  0.00    +0.000 A 
BRANCH   3  10
ATOM      9  C   UNL     1       1.137   2.813  20.904  0.00  0.00    +0.000 C 
ATOM     10  N   UNL     1       1.239   3.281  19.523  0.00  0.00    +0.000 N 
ATOM     11  C   UNL     1       0.887   2.287  18.502  0.00  0.00    +0.000 C 
ENDBRANCH   3  10
ENDBRANCH   1   6
BRANCH   2  12
ATOM     12  C   UNL     1       7.114   5.235  17.254  0.00  0.00    +0.000 C 
ATOM     13  O   UNL     1       7.788   4.464  17.934  0.00  0.00    +0.000 OA
BRANCH  12  14
ATOM     14  C   UNL     1       6.664   4.727  15.917  0.00  0.00    +0.000 A 
ATOM     15  C   UNL     1       5.497   3.983  15.726  0.00  0.00    +0.000 A 
ATOM     16  C   UNL     1       5.188   3.418  14.481  0.00  0.00    +0.000 A 
ATOM     17  C   UNL     1       6.000   3.697  13.380  0.00  0.00    +0.000 A 
ATOM     18  C   UNL     1       7.104   4.550  13.514  0.00  0.00    +0.000 A 
ATOM     19  C   UNL     1       7.434   5.054  14.787  0.00  0.00    +0.000 A 
BRANCH  17  20
ATOM     20  N   UNL     1       5.673   3.106  12.080  0.00  0.00    +0.000 N 
ATOM     21  O   UNL     1       4.557   3.358  11.593  0.00  0.00    +0.000 OA
ATOM     22  O   UNL     1       6.520   2.377  11.544  0.00  0.00    +0.000 OA
ENDBRANCH  17  20
ENDBRANCH  12  14
ENDBRANCH   2  12
BRANCH   2  23
ATOM     23  S   UNL     1       7.673   8.030  17.278  0.00  0.00    +0.000 S 
BRANCH  23  24
ATOM     24  C   UNL     1       8.704   8.420  18.724  0.00  0.00    +0.000 C 
BRANCH  24  25
ATOM     25  C   UNL     1       8.930   9.914  18.832  0.00  0.00    +0.000 A 
ATOM     26  C   UNL     1       8.613  10.752  17.749  0.00  0.00    +0.000 A 
ATOM     27  C   UNL     1       8.823  12.132  17.827  0.00  0.00    +0.000 A 
ATOM     28  C   UNL     1       9.358  12.686  18.987  0.00  0.00    +0.000 A 
ATOM     29 CL   UNL     1       9.608  14.384  19.086  0.00  0.00    +0.000 Cl
ATOM     30  C   UNL     1       9.693  11.868  20.066  0.00  0.00    +0.000 A 
ATOM     31  C   UNL     1       9.485  10.487  19.986  0.00  0.00    +0.000 A 
ENDBRANCH  24  25
ENDBRANCH  23  24
ENDBRANCH   2  23
TORSDOF 8
ENDMDL
MODEL 3
REMARK VINA RESULT:      -7.6      0.422      1.426
REMARK  Name = 
REMARK  10 active torsions:
REMARK  status: ('A' for Active; 'I' for Inactive)
REMARK    1  A    between atoms: C_1  and  N_2
REMARK    2  A    between atoms: N_2  and  C_3
REMARK    3  A    between atoms: N_2  and  C_4
REMARK    4  A    between atoms: C_7  and  C_8
REMARK    5  A    between atoms: C_9  and  S_10
REMARK    6  A    between atoms: C_9  and  C_19
REMARK    7  A    between atoms: S_10  and  C_11
REMARK    8  A    between atoms: C_11  and  C_12
REMARK    9  A    between atoms: C_19  and  C_21
REMARK   10  A    between atoms: C_24  and  N_25
REMARK                            x       y       z     vdW  Elec       q    Type
REMARK                         _______ _______ _______ _____ _____    ______ ____
ROOT
ATOM      1  C   UNL     1       5.491   6.941  18.383  0.00  0.00    +0.000 C 
ATOM      2  C   UNL     1       6.698   6.729  17.816  0.00  0.00    +0.000 C 
ENDROOT
BRANCH   1   6
ATOM      3  C   UNL     1       2.294   4.132  19.108  0.00  0.00    +0.000 A 
ATOM      4  C   UNL     1       2.306   4.944  17.961  0.00  0.00    +0.000 A 
ATOM      5  C   UNL     1       3.325   5.879  17.714  0.00  0.00    +0.000 A 
ATOM      6  C   UNL     1       4.392   5.998  18.598  0.00  0.00    +0.000 A 
ATOM      7  C   UNL     1       4.458   5.133  19.693  0.00  0.00    +0.000 A 
ATOM      8  C   UNL     1       3.423   4.217  19.941  0.00  0.00    +0.000 A 
BRANCH   3  10
ATOM      9  C   UNL     1       1.028   2.897  20.822  0.00  0.00    +0.000 C 
ATOM     10  N   UNL     1       1.231   3.266  19.422  0.00  0.00    +0.000 N 
ATOM     11  C   UNL     1       1.001   2.186  18.455  0.00  0.00    +0.000 C 
ENDBRANCH   3  10
ENDBRANCH   1   6
BRANCH   2  12
ATOM     12  C   UNL     1       7.169   5.316  17.396  0.00  0.00    +0.000 C 
ATOM     13  O   UNL     1       7.798   4.587  18.161  0.00  0.00    +0.000 OA
BRANCH  12  14
ATOM     14  C   UNL     1       6.851   4.751  16.045  0.00  0.00    +0.000 A 
ATOM     15  C   UNL     1       7.557   5.078  14.884  0.00  0.00    +0.000 A 
ATOM     16  C   UNL     1       7.138   4.628  13.624  0.00  0.00    +0.000 A 
ATOM     17  C   UNL     1       6.063   3.741  13.535  0.00  0.00    +0.000 A 
ATOM     18  C   UNL     1       5.420   3.291  14.696  0.00  0.00    +0.000 A 
ATOM     19  C   UNL     1       5.814   3.807  15.946  0.00  0.00    +0.000 A 
BRANCH  17  20
ATOM     20  N   UNL     1       5.629   3.272  12.217  0.00  0.00    +0.000 N 
ATOM     21  O   UNL     1       6.457   2.660  11.518  0.00  0.00    +0.000 OA
ATOM     22  O   UNL     1       4.467   3.521  11.865  0.00  0.00    +0.000 OA
ENDBRANCH  17  20
ENDBRANCH  12  14
ENDBRANCH   2  12
BRANCH   2  23
ATOM     23  S   UNL     1       7.632   8.127  17.324  0.00  0.00    +0.000 S 
BRANCH  23  24
ATOM     24  C   UNL     1       8.714   8.494  18.738  0.00  0.00    +0.000 C 
BRANCH  24  25
ATOM     25  C   UNL     1       8.957   9.984  18.854  0.00  0.00    +0.000 A 
ATOM     26  C   UNL     1       8.707  10.824  17.754  0.00  0.00    +0.000 A 
ATOM     27  C   UNL     1       8.933  12.201  17.839  0.00  0.00    +0.000 A 
ATOM     28  C   UNL     1       9.417  12.750  19.024  0.00  0.00    +0.000 A 
ATOM     29 CL   UNL     1       9.687  14.444  19.132  0.00  0.00    +0.000 Cl
ATOM     30  C   UNL     1       9.686  11.931  20.120  0.00  0.00    +0.000 A 
ATOM     31  C   UNL     1       9.461  10.552  20.033  0.00  0.00    +0.000 A 
ENDBRANCH  24  25
ENDBRANCH  23  24
ENDBRANCH   2  23
TORSDOF 8
ENDMDL
MODEL 4
REMARK VINA RESULT:      -7.5      1.250      1.639
REMARK  Name = 
REMARK  10 active torsions:
REMARK  status: ('A' for Active; 'I' for Inactive)
REMARK    1  A    between atoms: C_1  and  N_2
REMARK    2  A    between atoms: N_2  and  C_3
REMARK    3  A    between atoms: N_2  and  C_4
REMARK    4  A    between atoms: C_7  and  C_8
REMARK    5  A    between atoms: C_9  and  S_10
REMARK    6  A    between atoms: C_9  and  C_19
REMARK    7  A    between atoms: S_10  and  C_11
REMARK    8  A    between atoms: C_11  and  C_12
REMARK    9  A    between atoms: C_19  and  C_21
REMARK   10  A    between atoms: C_24  and  N_25
REMARK                            x       y       z     vdW  Elec       q    Type
REMARK                         _______ _______ _______ _____ _____    ______ ____
ROOT
ATOM      1  C   UNL     1       6.452   5.543  18.991  0.00  0.00    +0.000 C 
ATOM      2  C   UNL     1       6.802   6.290  17.923  0.00  0.00    +0.000 C 
ENDROOT
BRANCH   1   6
ATOM      3  C   UNL     1       2.820   3.328  19.727  0.00  0.00    +0.000 A 
ATOM      4  C   UNL     1       2.869   4.724  19.883  0.00  0.00    +0.000 A 
ATOM      5  C   UNL     1       4.044   5.463  19.668  0.00  0.00    +0.000 A 
ATOM      6  C   UNL     1       5.204   4.822  19.248  0.00  0.00    +0.000 A 
ATOM      7  C   UNL     1       5.158   3.450  18.987  0.00  0.00    +0.000 A 
ATOM      8  C   UNL     1       3.984   2.719  19.225  0.00  0.00    +0.000 A 
BRANCH   3  10
ATOM      9  C   UNL     1       0.644   2.421  19.016  0.00  0.00    +0.000 C 
ATOM     10  N   UNL     1       1.682   2.562  20.036  0.00  0.00    +0.000 N 
ATOM     11  C   UNL     1       1.187   2.709  21.410  0.00  0.00    +0.000 C 
ENDBRANCH   3  10
ENDBRANCH   1   6
BRANCH   2  12
ATOM     12  C   UNL     1       5.904   6.392  16.666  0.00  0.00    +0.000 C 
ATOM     13  O   UNL     1       5.036   7.255  16.555  0.00  0.00    +0.000 OA
BRANCH  12  14
ATOM     14  C   UNL     1       6.074   5.463  15.502  0.00  0.00    +0.000 A 
ATOM     15  C   UNL     1       7.233   5.402  14.724  0.00  0.00    +0.000 A 
ATOM     16  C   UNL     1       7.294   4.613  13.566  0.00  0.00    +0.000 A 
ATOM     17  C   UNL     1       6.219   3.782  13.245  0.00  0.00    +0.000 A 
ATOM     18  C   UNL     1       5.096   3.723  14.082  0.00  0.00    +0.000 A 
ATOM     19  C   UNL     1       5.028   4.572  15.203  0.00  0.00    +0.000 A 
BRANCH  17  20
ATOM     20  N   UNL     1       6.287   2.958  12.036  0.00  0.00    +0.000 N 
ATOM     21  O   UNL     1       5.232   2.446  11.623  0.00  0.00    +0.000 OA
ATOM     22  O   UNL     1       7.394   2.807  11.498  0.00  0.00    +0.000 OA
ENDBRANCH  17  20
ENDBRANCH  12  14
ENDBRANCH   2  12
BRANCH   2  23
ATOM     23  S   UNL     1       8.180   7.359  18.082  0.00  0.00    +0.000 S 
BRANCH  23  24
ATOM     24  C   UNL     1       7.552   9.008  17.645  0.00  0.00    +0.000 C 
BRANCH  24  25
ATOM     25  C   UNL     1       8.435  10.090  18.232  0.00  0.00    +0.000 A 
ATOM     26  C   UNL     1       9.175   9.835  19.400  0.00  0.00    +0.000 A 
ATOM     27  C   UNL     1       9.988  10.824  19.961  0.00  0.00    +0.000 A 
ATOM     28  C   UNL     1      10.065  12.079  19.362  0.00  0.00    +0.000 A 
ATOM     29 CL   UNL     1      11.072  13.292  20.047  0.00  0.00    +0.000 Cl
ATOM     30  C   UNL     1       9.326  12.354  18.211  0.00  0.00    +0.000 A 
ATOM     31  C   UNL     1       8.511  11.365  17.652  0.00  0.00    +0.000 A 
ENDBRANCH  24  25
ENDBRANCH  23  24
ENDBRANCH   2  23
TORSDOF 8
ENDMDL
MODEL 5
REMARK VINA RESULT:      -7.4      9.242     11.303
REMARK  Name = 
REMARK  10 active torsions:
REMARK  status: ('A' for Active; 'I' for Inactive)
REMARK    1  A    between atoms: C_1  and  N_2
REMARK    2  A    between atoms: N_2  and  C_3
REMARK    3  A    between atoms: N_2  and  C_4
REMARK    4  A    between atoms: C_7  and  C_8
REMARK    5  A    between atoms: C_9  and  S_10
REMARK    6  A    between atoms: C_9  and  C_19
REMARK    7  A    between atoms: S_10  and  C_11
REMARK    8  A    between atoms: C_11  and  C_12
REMARK    9  A    between atoms: C_19  and  C_21
REMARK   10  A    between atoms: C_24  and  N_25
REMARK                            x       y       z     vdW  Elec       q    Type
REMARK                         _______ _______ _______ _____ _____    ______ ____
ROOT
ATOM      1  C   UNL     1      -0.595  10.642  22.694  0.00  0.00    +0.000 C 
ATOM      2  C   UNL     1       0.080  10.248  21.593  0.00  0.00    +0.000 C 
ENDROOT
BRANCH   1   6
ATOM      3  C   UNL     1      -2.749  14.301  23.473  0.00  0.00    +0.000 A 
ATOM      4  C   UNL     1      -1.410  14.319  23.046  0.00  0.00    +0.000 A 
ATOM      5  C   UNL     1      -0.683  13.141  22.806  0.00  0.00    +0.000 A 
ATOM      6  C   UNL     1      -1.296  11.902  22.949  0.00  0.00    +0.000 A 
ATOM      7  C   UNL     1      -2.654  11.856  23.274  0.00  0.00    +0.000 A 
ATOM      8  C   UNL     1      -3.365  13.039  23.533  0.00  0.00    +0.000 A 
BRANCH   3  10
ATOM      9  C   UNL     1      -3.282  16.013  25.162  0.00  0.00    +0.000 C 
ATOM     10  N   UNL     1      -3.458  15.466  23.817  0.00  0.00    +0.000 N 
ATOM     11  C   UNL     1      -4.826  15.541  23.291  0.00  0.00    +0.000 C 
ENDBRANCH   3  10
ENDBRANCH   1   6
BRANCH   2  12
ATOM     12  C   UNL     1       0.098  11.095  20.297  0.00  0.00    +0.000 C 
ATOM     13  O   UNL     1       1.044  11.826  20.011  0.00  0.00    +0.000 OA
BRANCH  12  14
ATOM     14  C   UNL     1      -1.026  11.038  19.306  0.00  0.00    +0.000 A 
ATOM     15  C   UNL     1      -1.024  10.209  18.182  0.00  0.00    +0.000 A 
ATOM     16  C   UNL     1      -2.036  10.288  17.215  0.00  0.00    +0.000 A 
ATOM     17  C   UNL     1      -3.128  11.130  17.433  0.00  0.00    +0.000 A 
ATOM     18  C   UNL     1      -3.222  11.875  18.616  0.00  0.00    +0.000 A 
ATOM     19  C   UNL     1      -2.163  11.831  19.544  0.00  0.00    +0.000 A 
BRANCH  17  20
ATOM     20  N   UNL     1      -4.185  11.209  16.420  0.00  0.00    +0.000 N 
ATOM     21  O   UNL     1      -4.023  10.575  15.363  0.00  0.00    +0.000 OA
ATOM     22  O   UNL     1      -5.175  11.913  16.668  0.00  0.00    +0.000 OA
ENDBRANCH  17  20
ENDBRANCH  12  14
ENDBRANCH   2  12
BRANCH   2  23
ATOM     23  S   UNL     1       1.157   8.874  21.735  0.00  0.00    +0.000 S 
BRANCH  23  24
ATOM     24  C   UNL     1       1.665   8.495  20.031  0.00  0.00    +0.000 C 
BRANCH  24  25
ATOM     25  C   UNL     1       2.075   7.042  19.906  0.00  0.00    +0.000 A 
ATOM     26  C   UNL     1       2.882   6.630  18.831  0.00  0.00    +0.000 A 
ATOM     27  C   UNL     1       3.264   5.292  18.695  0.00  0.00    +0.000 A 
ATOM     28  C   UNL     1       2.838   4.353  19.630  0.00  0.00    +0.000 A 
ATOM     29 CL   UNL     1       3.315   2.709  19.468  0.00  0.00    +0.000 Cl
ATOM     30  C   UNL     1       2.025   4.740  20.695  0.00  0.00    +0.000 A 
ATOM     31  C   UNL     1       1.641   6.079  20.829  0.00  0.00    +0.000 A 
ENDBRANCH  24  25
ENDBRANCH  23  24
ENDBRANCH   2  23
TORSDOF 8
ENDMDL
MODEL 6
REMARK VINA RESULT:      -7.4      8.980     11.118
REMARK  Name = 
REMARK  10 active torsions:
REMARK  status: ('A' for Active; 'I' for Inactive)
REMARK    1  A    between atoms: C_1  and  N_2
REMARK    2  A    between atoms: N_2  and  C_3
REMARK    3  A    between atoms: N_2  and  C_4
REMARK    4  A    between atoms: C_7  and  C_8
REMARK    5  A    between atoms: C_9  and  S_10
REMARK    6  A    between atoms: C_9  and  C_19
REMARK    7  A    between atoms: S_10  and  C_11
REMARK    8  A    between atoms: C_11  and  C_12
REMARK    9  A    between atoms: C_19  and  C_21
REMARK   10  A    between atoms: C_24  and  N_25
REMARK                            x       y       z     vdW  Elec       q    Type
REMARK                         _______ _______ _______ _____ _____    ______ ____
ROOT
ATOM      1  C   UNL     1      -0.421  10.365  22.534  0.00  0.00    +0.000 C 
ATOM      2  C   UNL     1       0.264   9.968  21.440  0.00  0.00    +0.000 C 
ENDROOT
BRANCH   1   6
ATOM      3  C   UNL     1      -2.457  14.085  23.348  0.00  0.00    +0.000 A 
ATOM      4  C   UNL     1      -1.150  14.065  22.829  0.00  0.00    +0.000 A 
ATOM      5  C   UNL     1      -0.461  12.867  22.575  0.00  0.00    +0.000 A 
ATOM      6  C   UNL     1      -1.083  11.645  22.798  0.00  0.00    +0.000 A 
ATOM      7  C   UNL     1      -2.416  11.633  23.217  0.00  0.00    +0.000 A 
ATOM      8  C   UNL     1      -3.088  12.836  23.488  0.00  0.00    +0.000 A 
BRANCH   3  10
ATOM      9  C   UNL     1      -4.540  15.195  24.048  0.00  0.00    +0.000 C 
ATOM     10  N   UNL     1      -3.121  15.272  23.704  0.00  0.00    +0.000 N 
ATOM     11  C   UNL     1      -2.732  16.459  22.934  0.00  0.00    +0.000 C 
ENDBRANCH   3  10
ENDBRANCH   1   6
BRANCH   2  12
ATOM     12  C   UNL     1       0.341  10.838  20.162  0.00  0.00    +0.000 C 
ATOM     13  O   UNL     1       1.314  11.549  19.918  0.00  0.00    +0.000 OA
BRANCH  12  14
ATOM     14  C   UNL     1      -0.754  10.830  19.139  0.00  0.00    +0.000 A 
ATOM     15  C   UNL     1      -0.789   9.954  18.051  0.00  0.00    +0.000 A 
ATOM     16  C   UNL     1      -1.762  10.074  17.049  0.00  0.00    +0.000 A 
ATOM     17  C   UNL     1      -2.786  11.011  17.196  0.00  0.00    +0.000 A 
ATOM     18  C   UNL     1      -2.851  11.814  18.343  0.00  0.00    +0.000 A 
ATOM     19  C   UNL     1      -1.827  11.723  19.306  0.00  0.00    +0.000 A 
BRANCH  17  20
ATOM     20  N   UNL     1      -3.802  11.132  16.147  0.00  0.00    +0.000 N 
ATOM     21  O   UNL     1      -4.988  11.264  16.501  0.00  0.00    +0.000 OA
ATOM     22  O   UNL     1      -3.427  11.085  14.966  0.00  0.00    +0.000 OA
ENDBRANCH  17  20
ENDBRANCH  12  14
ENDBRANCH   2  12
BRANCH   2  23
ATOM     23  S   UNL     1       1.287   8.554  21.579  0.00  0.00    +0.000 S 
BRANCH  23  24
ATOM     24  C   UNL     1       1.850   8.210  19.885  0.00  0.00    +0.000 C 
BRANCH  24  25
ATOM     25  C   UNL     1       1.966   6.718  19.651  0.00  0.00    +0.000 A 
ATOM     26  C   UNL     1       1.660   5.819  20.688  0.00  0.00    +0.000 A 
ATOM     27  C   UNL     1       1.769   4.439  20.494  0.00  0.00    +0.000 A 
ATOM     28  C   UNL     1       2.191   3.946  19.262  0.00  0.00    +0.000 A 
ATOM     29 CL   UNL     1       2.317   2.248  19.020  0.00  0.00    +0.000 Cl
ATOM     30  C   UNL     1       2.514   4.822  18.227  0.00  0.00    +0.000 A 
ATOM     31  C   UNL     1       2.406   6.204  18.423  0.00  0.00    +0.000 A 
ENDBRANCH  24  25
ENDBRANCH  23  24
ENDBRANCH   2  23
TORSDOF 8
ENDMDL
MODEL 7
REMARK VINA RESULT:      -7.4      9.193     11.259
REMARK  Name = 
REMARK  10 active torsions:
REMARK  status: ('A' for Active; 'I' for Inactive)
REMARK    1  A    between atoms: C_1  and  N_2
REMARK    2  A    between atoms: N_2  and  C_3
REMARK    3  A    between atoms: N_2  and  C_4
REMARK    4  A    between atoms: C_7  and  C_8
REMARK    5  A    between atoms: C_9  and  S_10
REMARK    6  A    between atoms: C_9  and  C_19
REMARK    7  A    between atoms: S_10  and  C_11
REMARK    8  A    between atoms: C_11  and  C_12
REMARK    9  A    between atoms: C_19  and  C_21
REMARK   10  A    between atoms: C_24  and  N_25
REMARK                            x       y       z     vdW  Elec       q    Type
REMARK                         _______ _______ _______ _____ _____    ______ ____
ROOT
ATOM      1  C   UNL     1      -0.611  10.573  22.657  0.00  0.00    +0.000 C 
ATOM      2  C   UNL     1       0.086  10.208  21.558  0.00  0.00    +0.000 C 
ENDROOT
BRANCH   1   6
ATOM      3  C   UNL     1      -2.692  14.282  23.398  0.00  0.00    +0.000 A 
ATOM      4  C   UNL     1      -3.321  13.039  23.591  0.00  0.00    +0.000 A 
ATOM      5  C   UNL     1      -2.671  11.820  23.337  0.00  0.00    +0.000 A 
ATOM      6  C   UNL     1      -1.345  11.812  22.918  0.00  0.00    +0.000 A 
ATOM      7  C   UNL     1      -0.664  13.027  22.815  0.00  0.00    +0.000 A 
ATOM      8  C   UNL     1      -1.330  14.240  23.050  0.00  0.00    +0.000 A 
BRANCH   3  10
ATOM      9  C   UNL     1      -3.651  15.980  24.901  0.00  0.00    +0.000 C 
ATOM     10  N   UNL     1      -3.360  15.510  23.547  0.00  0.00    +0.000 N 
ATOM     11  C   UNL     1      -4.414  15.770  22.559  0.00  0.00    +0.000 C 
ENDBRANCH   3  10
ENDBRANCH   1   6
BRANCH   2  12
ATOM     12  C   UNL     1       0.097  11.070  20.273  0.00  0.00    +0.000 C 
ATOM     13  O   UNL     1       1.039  11.810  19.994  0.00  0.00    +0.000 OA
BRANCH  12  14
ATOM     14  C   UNL     1      -1.027  11.020  19.283  0.00  0.00    +0.000 A 
ATOM     15  C   UNL     1      -1.040  10.176  18.170  0.00  0.00    +0.000 A 
ATOM     16  C   UNL     1      -2.050  10.260  17.202  0.00  0.00    +0.000 A 
ATOM     17  C   UNL     1      -3.128  11.122  17.409  0.00  0.00    +0.000 A 
ATOM     18  C   UNL     1      -3.209  11.884  18.582  0.00  0.00    +0.000 A 
ATOM     19  C   UNL     1      -2.151  11.833  19.510  0.00  0.00    +0.000 A 
BRANCH  17  20
ATOM     20  N   UNL     1      -4.184  11.206  16.395  0.00  0.00    +0.000 N 
ATOM     21  O   UNL     1      -5.186  11.894  16.658  0.00  0.00    +0.000 OA
ATOM     22  O   UNL     1      -4.025  10.577  15.339  0.00  0.00    +0.000 OA
ENDBRANCH  17  20
ENDBRANCH  12  14
ENDBRANCH   2  12
BRANCH   2  23
ATOM     23  S   UNL     1       1.194   8.859  21.697  0.00  0.00    +0.000 S 
BRANCH  23  24
ATOM     24  C   UNL     1       1.567   8.377  19.984  0.00  0.00    +0.000 C 
BRANCH  24  25
ATOM     25  C   UNL     1       2.117   6.967  19.933  0.00  0.00    +0.000 A 
ATOM     26  C   UNL     1       3.082   6.623  18.970  0.00  0.00    +0.000 A 
ATOM     27  C   UNL     1       3.595   5.325  18.902  0.00  0.00    +0.000 A 
ATOM     28  C   UNL     1       3.144   4.356  19.795  0.00  0.00    +0.000 A 
ATOM     29 CL   UNL     1       3.782   2.761  19.718  0.00  0.00    +0.000 Cl
ATOM     30  C   UNL     1       2.176   4.674  20.747  0.00  0.00    +0.000 A 
ATOM     31  C   UNL     1       1.661   5.973  20.812  0.00  0.00    +0.000 A 
ENDBRANCH  24  25
ENDBRANCH  23  24
ENDBRANCH   2  23
TORSDOF 8
ENDMDL
MODEL 8
REMARK VINA RESULT:      -7.2      2.240      5.352
REMARK  Name = 
REMARK  10 active torsions:
REMARK  status: ('A' for Active; 'I' for Inactive)
REMARK    1  A    between atoms: C_1  and  N_2
REMARK    2  A    between atoms: N_2  and  C_3
REMARK    3  A    between atoms: N_2  and  C_4
REMARK    4  A    between atoms: C_7  and  C_8
REMARK    5  A    between atoms: C_9  and  S_10
REMARK    6  A    between atoms: C_9  and  C_19
REMARK    7  A    between atoms: S_10  and  C_11
REMARK    8  A    between atoms: C_11  and  C_12
REMARK    9  A    between atoms: C_19  and  C_21
REMARK   10  A    between atoms: C_24  and  N_25
REMARK                            x       y       z     vdW  Elec       q    Type
REMARK                         _______ _______ _______ _____ _____    ______ ____
ROOT
ATOM      1  C   UNL     1       7.089   6.633  16.282  0.00  0.00    +0.000 C 
ATOM      2  C   UNL     1       7.249   6.425  17.607  0.00  0.00    +0.000 C 
ENDROOT
BRANCH   1   6
ATOM      3  C   UNL     1       5.989   3.847  13.173  0.00  0.00    +0.000 A 
ATOM      4  C   UNL     1       5.047   4.306  14.110  0.00  0.00    +0.000 A 
ATOM      5  C   UNL     1       5.386   5.196  15.142  0.00  0.00    +0.000 A 
ATOM      6  C   UNL     1       6.682   5.688  15.240  0.00  0.00    +0.000 A 
ATOM      7  C   UNL     1       7.614   5.329  14.263  0.00  0.00    +0.000 A 
ATOM      8  C   UNL     1       7.270   4.422  13.249  0.00  0.00    +0.000 A 
BRANCH   3  10
ATOM      9  C   UNL     1       6.792   2.325  11.412  0.00  0.00    +0.000 C 
ATOM     10  N   UNL     1       5.691   2.878  12.199  0.00  0.00    +0.000 N 
ATOM     11  C   UNL     1       4.448   3.107  11.452  0.00  0.00    +0.000 C 
ENDBRANCH   3  10
ENDBRANCH   1   6
BRANCH   2  12
ATOM     12  C   UNL     1       6.871   5.082  18.277  0.00  0.00    +0.000 C 
ATOM     13  O   UNL     1       7.721   4.254  18.598  0.00  0.00    +0.000 OA
BRANCH  12  14
ATOM     14  C   UNL     1       5.448   4.738  18.600  0.00  0.00    +0.000 A 
ATOM     15  C   UNL     1       5.056   3.522  19.166  0.00  0.00    +0.000 A 
ATOM     16  C   UNL     1       3.702   3.195  19.326  0.00  0.00    +0.000 A 
ATOM     17  C   UNL     1       2.726   4.146  19.023  0.00  0.00    +0.000 A 
ATOM     18  C   UNL     1       3.097   5.423  18.579  0.00  0.00    +0.000 A 
ATOM     19  C   UNL     1       4.459   5.708  18.363  0.00  0.00    +0.000 A 
BRANCH  17  20
ATOM     20  N   UNL     1       1.312   3.801  19.193  0.00  0.00    +0.000 N 
ATOM     21  O   UNL     1       0.745   3.204  18.261  0.00  0.00    +0.000 OA
ATOM     22  O   UNL     1       0.757   4.133  20.251  0.00  0.00    +0.000 OA
ENDBRANCH  17  20
ENDBRANCH  12  14
ENDBRANCH   2  12
BRANCH   2  23
ATOM     23  S   UNL     1       8.137   7.623  18.526  0.00  0.00    +0.000 S 
BRANCH  23  24
ATOM     24  C   UNL     1       8.022   9.150  17.546  0.00  0.00    +0.000 C 
BRANCH  24  25
ATOM     25  C   UNL     1       8.671  10.306  18.278  0.00  0.00    +0.000 A 
ATOM     26  C   UNL     1       8.629  11.599  17.727  0.00  0.00    +0.000 A 
ATOM     27  C   UNL     1       9.230  12.676  18.385  0.00  0.00    +0.000 A 
ATOM     28  C   UNL     1       9.883  12.469  19.597  0.00  0.00    +0.000 A 
ATOM     29 CL   UNL     1      10.614  13.796  20.411  0.00  0.00    +0.000 Cl
ATOM     30  C   UNL     1       9.948  11.191  20.152  0.00  0.00    +0.000 A 
ATOM     31  C   UNL     1       9.348  10.113  19.491  0.00  0.00    +0.000 A 
ENDBRANCH  24  25
ENDBRANCH  23  24
ENDBRANCH   2  23
TORSDOF 8
ENDMDL
MODEL 9
REMARK VINA RESULT:      -7.2      8.857     11.597
REMARK  Name = 
REMARK  10 active torsions:
REMARK  status: ('A' for Active; 'I' for Inactive)
REMARK    1  A    between atoms: C_1  and  N_2
REMARK    2  A    between atoms: N_2  and  C_3
REMARK    3  A    between atoms: N_2  and  C_4
REMARK    4  A    between atoms: C_7  and  C_8
REMARK    5  A    between atoms: C_9  and  S_10
REMARK    6  A    between atoms: C_9  and  C_19
REMARK    7  A    between atoms: S_10  and  C_11
REMARK    8  A    between atoms: C_11  and  C_12
REMARK    9  A    between atoms: C_19  and  C_21
REMARK   10  A    between atoms: C_24  and  N_25
REMARK                            x       y       z     vdW  Elec       q    Type
REMARK                         _______ _______ _______ _____ _____    ______ ____
ROOT
ATOM      1  C   UNL     1      -0.383  10.094  18.228  0.00  0.00    +0.000 C 
ATOM      2  C   UNL     1       0.334   9.736  19.315  0.00  0.00    +0.000 C 
ENDROOT
BRANCH   1   6
ATOM      3  C   UNL     1      -4.562  11.122  17.887  0.00  0.00    +0.000 A 
ATOM      4  C   UNL     1      -3.674  11.911  18.641  0.00  0.00    +0.000 A 
ATOM      5  C   UNL     1      -2.315  11.585  18.782  0.00  0.00    +0.000 A 
ATOM      6  C   UNL     1      -1.794  10.472  18.132  0.00  0.00    +0.000 A 
ATOM      7  C   UNL     1      -2.630   9.728  17.296  0.00  0.00    +0.000 A 
ATOM      8  C   UNL     1      -3.991  10.050  17.179  0.00  0.00    +0.000 A 
BRANCH   3  10
ATOM      9  C   UNL     1      -6.385  12.679  17.325  0.00  0.00    +0.000 C 
ATOM     10  N   UNL     1      -5.943  11.376  17.820  0.00  0.00    +0.000 N 
ATOM     11  C   UNL     1      -6.731  10.836  18.935  0.00  0.00    +0.000 C 
ENDBRANCH   3  10
ENDBRANCH   1   6
BRANCH   2  12
ATOM     12  C   UNL     1      -0.257   9.805  20.744  0.00  0.00    +0.000 C 
ATOM     13  O   UNL     1      -0.623   8.797  21.345  0.00  0.00    +0.000 OA
BRANCH  12  14
ATOM     14  C   UNL     1      -0.381  11.104  21.482  0.00  0.00    +0.000 A 
ATOM     15  C   UNL     1      -1.244  11.300  22.562  0.00  0.00    +0.000 A 
ATOM     16  C   UNL     1      -1.421  12.568  23.134  0.00  0.00    +0.000 A 
ATOM     17  C   UNL     1      -0.636  13.635  22.692  0.00  0.00    +0.000 A 
ATOM     18  C   UNL     1       0.333  13.437  21.700  0.00  0.00    +0.000 A 
ATOM     19  C   UNL     1       0.449  12.171  21.094  0.00  0.00    +0.000 A 
BRANCH  17  20
ATOM     20  N   UNL     1      -0.824  14.958  23.293  0.00  0.00    +0.000 N 
ATOM     21  O   UNL     1      -0.632  15.072  24.516  0.00  0.00    +0.000 OA
ATOM     22  O   UNL     1      -1.175  15.888  22.552  0.00  0.00    +0.000 OA
ENDBRANCH  17  20
ENDBRANCH  12  14
ENDBRANCH   2  12
BRANCH   2  23
ATOM     23  S   UNL     1       1.875   8.944  19.060  0.00  0.00    +0.000 S 
BRANCH  23  24
ATOM     24  C   UNL     1       1.958   7.653  20.337  0.00  0.00    +0.000 C 
BRANCH  24  25
ATOM     25  C   UNL     1       2.046   6.279  19.705  0.00  0.00    +0.000 A 
ATOM     26  C   UNL     1       1.798   5.132  20.479  0.00  0.00    +0.000 A 
ATOM     27  C   UNL     1       1.882   3.856  19.914  0.00  0.00    +0.000 A 
ATOM     28  C   UNL     1       2.222   3.715  18.571  0.00  0.00    +0.000 A 
ATOM     29 CL   UNL     1       2.317   2.147  17.874  0.00  0.00    +0.000 Cl
ATOM     30  C   UNL     1       2.487   4.841  17.791  0.00  0.00    +0.000 A 
ATOM     31  C   UNL     1       2.404   6.118  18.358  0.00  0.00    +0.000 A 
ENDBRANCH  24  25
ENDBRANCH  23  24
ENDBRANCH   2  23
TORSDOF 8
ENDMDL
