MODEL 1
REMARK VINA RESULT:      -7.8      0.000      0.000
REMARK  Name = 
REMARK  7 active torsions:
REMARK  status: ('A' for Active; 'I' for Inactive)
REMARK    1  A    between atoms: C_1  and  O_2
REMARK    2  A    between atoms: O_2  and  C_3
REMARK    3  A    between atoms: C_6  and  O_7
REMARK    4  A    between atoms: O_7  and  C_8
REMARK    5  A    between atoms: C_9  and  C_10
REMARK    6  A    between atoms: C_15  and  C_17
REMARK    7  A    between atoms: C_19  and  N_20
REMARK                            x       y       z     vdW  Elec       q    Type
REMARK                         _______ _______ _______ _____ _____    ______ ____
ROOT
ATOM      1  C   UNL     1       0.810  10.285  20.090  0.00  0.00    +0.000 A 
ATOM      2  C   UNL     1       0.297   9.677  21.221  0.00  0.00    +0.000 A 
ATOM      3  S   UNL     1       0.936   8.080  21.373  0.00  0.00    +0.000 S 
ATOM      4  C   UNL     1       1.753   8.286  19.894  0.00  0.00    +0.000 A 
ATOM      5  N   UNL     1       2.437   7.190  19.436  0.00  0.00    +0.000 N 
ATOM      6  C   UNL     1       2.930   7.139  18.152  0.00  0.00    +0.000 C 
ATOM      7  O   UNL     1       2.835   8.025  17.306  0.00  0.00    +0.000 OA
ATOM      8  N   UNL     1       1.636   9.459  19.336  0.00  0.00    +0.000 NA
ATOM      9  H   UNL     1       2.454   6.385  20.044  0.00  0.00    +0.000 HD
ENDROOT
BRANCH   6  10
ATOM     10  C   UNL     1       3.645   5.894  17.728  0.00  0.00    +0.000 A 
ATOM     11  C   UNL     1       5.023   6.045  17.454  0.00  0.00    +0.000 A 
ATOM     12  C   UNL     1       5.786   4.970  16.980  0.00  0.00    +0.000 A 
ATOM     13  C   UNL     1       5.192   3.719  16.788  0.00  0.00    +0.000 A 
ATOM     14  C   UNL     1       3.831   3.557  17.066  0.00  0.00    +0.000 A 
ATOM     15  C   UNL     1       3.055   4.634  17.527  0.00  0.00    +0.000 A 
ATOM     16 CL   UNL     1       1.375   4.307  17.768  0.00  0.00    +0.000 Cl
BRANCH  12  17
ATOM     17  N   UNL     1       7.209   5.157  16.671  0.00  0.00    +0.000 N 
ATOM     18  O   UNL     1       8.019   4.368  17.175  0.00  0.00    +0.000 OA
ATOM     19  O   UNL     1       7.512   6.096  15.920  0.00  0.00    +0.000 OA
ENDBRANCH  12  17
ENDBRANCH   6  10
BRANCH   1  24
ATOM     20  C   UNL     1       1.381  13.939  19.477  0.00  0.00    +0.000 A 
ATOM     21  C   UNL     1       0.206  14.328  18.846  0.00  0.00    +0.000 A 
ATOM     22  C   UNL     1      -0.806  13.398  18.594  0.00  0.00    +0.000 A 
ATOM     23  C   UNL     1      -0.669  12.056  18.985  0.00  0.00    +0.000 A 
ATOM     24  C   UNL     1       0.527  11.641  19.603  0.00  0.00    +0.000 A 
ATOM     25  C   UNL     1       1.536  12.604  19.840  0.00  0.00    +0.000 A 
BRANCH  20  27
ATOM     26  C   UNL     1       3.618  14.533  20.000  0.00  0.00    +0.000 C 
ATOM     27  O   UNL     1       2.289  14.939  19.686  0.00  0.00    +0.000 OA
ENDBRANCH  20  27
BRANCH  23  28
ATOM     28  O   UNL     1      -1.655  11.127  18.758  0.00  0.00    +0.000 OA
ATOM     29  C   UNL     1      -1.897  10.783  17.395  0.00  0.00    +0.000 C 
ENDBRANCH  23  28
ENDBRANCH   1  24
TORSDOF 5
ENDMDL
MODEL 2
REMARK VINA RESULT:      -7.8      2.640      3.711
REMARK  Name = 
REMARK  7 active torsions:
REMARK  status: ('A' for Active; 'I' for Inactive)
REMARK    1  A    between atoms: C_1  and  O_2
REMARK    2  A    between atoms: O_2  and  C_3
REMARK    3  A    between atoms: C_6  and  O_7
REMARK    4  A    between atoms: O_7  and  C_8
REMARK    5  A    between atoms: C_9  and  C_10
REMARK    6  A    between atoms: C_15  and  C_17
REMARK    7  A    between atoms: C_19  and  N_20
REMARK                            x       y       z     vdW  Elec       q    Type
REMARK                         _______ _______ _______ _____ _____    ______ ____
ROOT
ATOM      1  C   UNL     1       0.275  10.657  19.788  0.00  0.00    +0.000 A 
ATOM      2  C   UNL     1       0.954  11.301  18.770  0.00  0.00    +0.000 A 
ATOM      3  S   UNL     1       2.013  10.193  17.974  0.00  0.00    +0.000 S 
ATOM      4  C   UNL     1       1.565   8.991  19.092  0.00  0.00    +0.000 A 
ATOM      5  N   UNL     1       2.220   7.793  18.970  0.00  0.00    +0.000 N 
ATOM      6  C   UNL     1       2.137   6.829  19.949  0.00  0.00    +0.000 C 
ATOM      7  O   UNL     1       1.490   6.911  20.989  0.00  0.00    +0.000 OA
ATOM      8  N   UNL     1       0.654   9.331  19.962  0.00  0.00    +0.000 NA
ATOM      9  H   UNL     1       2.857   7.707  18.192  0.00  0.00    +0.000 HD
ENDROOT
BRANCH   6  10
ATOM     10  C   UNL     1       2.904   5.560  19.744  0.00  0.00    +0.000 A 
ATOM     11  C   UNL     1       4.257   5.717  19.372  0.00  0.00    +0.000 A 
ATOM     12  C   UNL     1       5.060   4.606  19.083  0.00  0.00    +0.000 A 
ATOM     13  C   UNL     1       4.530   3.314  19.176  0.00  0.00    +0.000 A 
ATOM     14  C   UNL     1       3.194   3.149  19.553  0.00  0.00    +0.000 A 
ATOM     15  C   UNL     1       2.378   4.258  19.832  0.00  0.00    +0.000 A 
ATOM     16 CL   UNL     1       0.732   3.908  20.222  0.00  0.00    +0.000 Cl
BRANCH  12  17
ATOM     17  N   UNL     1       6.455   4.793  18.666  0.00  0.00    +0.000 N 
ATOM     18  O   UNL     1       6.745   4.545  17.488  0.00  0.00    +0.000 OA
ATOM     19  O   UNL     1       7.258   5.192  19.521  0.00  0.00    +0.000 OA
ENDBRANCH  12  17
ENDBRANCH   6  10
BRANCH   1  24
ATOM     20  C   UNL     1      -2.793  12.544  20.827  0.00  0.00    +0.000 A 
ATOM     21  C   UNL     1      -2.719  12.504  22.214  0.00  0.00    +0.000 A 
ATOM     22  C   UNL     1      -1.663  11.846  22.850  0.00  0.00    +0.000 A 
ATOM     23  C   UNL     1      -0.645  11.225  22.107  0.00  0.00    +0.000 A 
ATOM     24  C   UNL     1      -0.719  11.237  20.700  0.00  0.00    +0.000 A 
ATOM     25  C   UNL     1      -1.803  11.906  20.085  0.00  0.00    +0.000 A 
BRANCH  20  27
ATOM     26  C   UNL     1      -5.146  12.850  20.798  0.00  0.00    +0.000 C 
ATOM     27  O   UNL     1      -3.860  13.231  20.320  0.00  0.00    +0.000 OA
ENDBRANCH  20  27
BRANCH  23  28
ATOM     28  O   UNL     1       0.409  10.582  22.709  0.00  0.00    +0.000 OA
ATOM     29  C   UNL     1       0.086   9.426  23.479  0.00  0.00    +0.000 C 
ENDBRANCH  23  28
ENDBRANCH   1  24
TORSDOF 5
ENDMDL
MODEL 3
REMARK VINA RESULT:      -7.7      2.790      9.069
REMARK  Name = 
REMARK  7 active torsions:
REMARK  status: ('A' for Active; 'I' for Inactive)
REMARK    1  A    between atoms: C_1  and  O_2
REMARK    2  A    between atoms: O_2  and  C_3
REMARK    3  A    between atoms: C_6  and  O_7
REMARK    4  A    between atoms: O_7  and  C_8
REMARK    5  A    between atoms: C_9  and  C_10
REMARK    6  A    between atoms: C_15  and  C_17
REMARK    7  A    between atoms: C_19  and  N_20
REMARK                            x       y       z     vdW  Elec       q    Type
REMARK                         _______ _______ _______ _____ _____    ______ ____
ROOT
ATOM      1  C   UNL     1       3.964   5.773  18.496  0.00  0.00    +0.000 A 
ATOM      2  C   UNL     1       3.597   5.239  19.718  0.00  0.00    +0.000 A 
ATOM      3  S   UNL     1       2.276   6.133  20.379  0.00  0.00    +0.000 S 
ATOM      4  C   UNL     1       2.360   7.201  19.057  0.00  0.00    +0.000 A 
ATOM      5  N   UNL     1       1.498   8.265  19.097  0.00  0.00    +0.000 N 
ATOM      6  C   UNL     1       1.629   9.326  18.229  0.00  0.00    +0.000 C 
ATOM      7  O   UNL     1       2.479   9.438  17.350  0.00  0.00    +0.000 OA
ATOM      8  N   UNL     1       3.246   6.909  18.143  0.00  0.00    +0.000 NA
ATOM      9  H   UNL     1       0.846   8.287  19.867  0.00  0.00    +0.000 HD
ENDROOT
BRANCH   6  10
ATOM     10  C   UNL     1       0.657  10.457  18.358  0.00  0.00    +0.000 A 
ATOM     11  C   UNL     1      -0.705  10.110  18.222  0.00  0.00    +0.000 A 
ATOM     12  C   UNL     1      -1.706  11.090  18.252  0.00  0.00    +0.000 A 
ATOM     13  C   UNL     1      -1.366  12.434  18.436  0.00  0.00    +0.000 A 
ATOM     14  C   UNL     1      -0.021  12.786  18.582  0.00  0.00    +0.000 A 
ATOM     15  C   UNL     1       0.990  11.811  18.539  0.00  0.00    +0.000 A 
ATOM     16 CL   UNL     1       2.611  12.396  18.668  0.00  0.00    +0.000 Cl
BRANCH  12  17
ATOM     17  N   UNL     1      -3.114  10.711  18.076  0.00  0.00    +0.000 N 
ATOM     18  O   UNL     1      -3.356   9.597  17.593  0.00  0.00    +0.000 OA
ATOM     19  O   UNL     1      -3.975  11.531  18.424  0.00  0.00    +0.000 OA
ENDBRANCH  12  17
ENDBRANCH   6  10
BRANCH   1  24
ATOM     20  C   UNL     1       5.567   4.600  15.316  0.00  0.00    +0.000 A 
ATOM     21  C   UNL     1       6.871   4.336  15.714  0.00  0.00    +0.000 A 
ATOM     22  C   UNL     1       7.266   4.544  17.037  0.00  0.00    +0.000 A 
ATOM     23  C   UNL     1       6.355   5.009  18.000  0.00  0.00    +0.000 A 
ATOM     24  C   UNL     1       5.035   5.305  17.607  0.00  0.00    +0.000 A 
ATOM     25  C   UNL     1       4.665   5.090  16.258  0.00  0.00    +0.000 A 
BRANCH  20  27
ATOM     26  C   UNL     1       6.362   3.810  13.225  0.00  0.00    +0.000 C 
ATOM     27  O   UNL     1       5.293   4.340  14.003  0.00  0.00    +0.000 OA
ENDBRANCH  20  27
BRANCH  23  28
ATOM     28  O   UNL     1       6.717   5.211  19.309  0.00  0.00    +0.000 OA
ATOM     29  C   UNL     1       7.966   5.866  19.525  0.00  0.00    +0.000 C 
ENDBRANCH  23  28
ENDBRANCH   1  24
TORSDOF 5
ENDMDL
MODEL 4
REMARK VINA RESULT:      -7.7      2.590      8.961
REMARK  Name = 
REMARK  7 active torsions:
REMARK  status: ('A' for Active; 'I' for Inactive)
REMARK    1  A    between atoms: C_1  and  O_2
REMARK    2  A    between atoms: O_2  and  C_3
REMARK    3  A    between atoms: C_6  and  O_7
REMARK    4  A    between atoms: O_7  and  C_8
REMARK    5  A    between atoms: C_9  and  C_10
REMARK    6  A    between atoms: C_15  and  C_17
REMARK    7  A    between atoms: C_19  and  N_20
REMARK                            x       y       z     vdW  Elec       q    Type
REMARK                         _______ _______ _______ _____ _____    ______ ____
ROOT
ATOM      1  C   UNL     1       4.438   5.243  17.868  0.00  0.00    +0.000 A 
ATOM      2  C   UNL     1       4.290   4.357  18.920  0.00  0.00    +0.000 A 
ATOM      3  S   UNL     1       3.049   4.909  19.986  0.00  0.00    +0.000 S 
ATOM      4  C   UNL     1       2.879   6.309  19.033  0.00  0.00    +0.000 A 
ATOM      5  N   UNL     1       1.987   7.239  19.498  0.00  0.00    +0.000 N 
ATOM      6  C   UNL     1       1.934   8.508  18.967  0.00  0.00    +0.000 C 
ATOM      7  O   UNL     1       2.631   8.938  18.052  0.00  0.00    +0.000 OA
ATOM      8  N   UNL     1       3.624   6.365  17.962  0.00  0.00    +0.000 NA
ATOM      9  H   UNL     1       1.462   6.986  20.322  0.00  0.00    +0.000 HD
ENDROOT
BRANCH   6  10
ATOM     10  C   UNL     1       0.944   9.468  19.551  0.00  0.00    +0.000 A 
ATOM     11  C   UNL     1       0.281  10.302  18.624  0.00  0.00    +0.000 A 
ATOM     12  C   UNL     1      -0.615  11.290  19.053  0.00  0.00    +0.000 A 
ATOM     13  C   UNL     1      -0.879  11.452  20.417  0.00  0.00    +0.000 A 
ATOM     14  C   UNL     1      -0.235  10.625  21.341  0.00  0.00    +0.000 A 
ATOM     15  C   UNL     1       0.675   9.641  20.921  0.00  0.00    +0.000 A 
ATOM     16 CL   UNL     1       1.445   8.736  22.176  0.00  0.00    +0.000 Cl
BRANCH  12  17
ATOM     17  N   UNL     1      -1.268  12.167  18.073  0.00  0.00    +0.000 N 
ATOM     18  O   UNL     1      -2.309  11.763  17.540  0.00  0.00    +0.000 OA
ATOM     19  O   UNL     1      -0.735  13.262  17.843  0.00  0.00    +0.000 OA
ENDBRANCH  12  17
ENDBRANCH   6  10
BRANCH   1  24
ATOM     20  C   UNL     1       5.679   4.289  14.462  0.00  0.00    +0.000 A 
ATOM     21  C   UNL     1       6.993   4.741  14.480  0.00  0.00    +0.000 A 
ATOM     22  C   UNL     1       7.508   5.382  15.609  0.00  0.00    +0.000 A 
ATOM     23  C   UNL     1       6.719   5.571  16.757  0.00  0.00    +0.000 A 
ATOM     24  C   UNL     1       5.378   5.140  16.744  0.00  0.00    +0.000 A 
ATOM     25  C   UNL     1       4.883   4.500  15.584  0.00  0.00    +0.000 A 
BRANCH  20  27
ATOM     26  C   UNL     1       6.310   3.445  12.335  0.00  0.00    +0.000 C 
ATOM     27  O   UNL     1       5.294   3.661  13.310  0.00  0.00    +0.000 OA
ENDBRANCH  20  27
BRANCH  23  28
ATOM     28  O   UNL     1       7.207   6.188  17.883  0.00  0.00    +0.000 OA
ATOM     29  C   UNL     1       7.672   7.526  17.718  0.00  0.00    +0.000 C 
ENDBRANCH  23  28
ENDBRANCH   1  24
TORSDOF 5
ENDMDL
MODEL 5
REMARK VINA RESULT:      -7.6      2.383      8.484
REMARK  Name = 
REMARK  7 active torsions:
REMARK  status: ('A' for Active; 'I' for Inactive)
REMARK    1  A    between atoms: C_1  and  O_2
REMARK    2  A    between atoms: O_2  and  C_3
REMARK    3  A    between atoms: C_6  and  O_7
REMARK    4  A    between atoms: O_7  and  C_8
REMARK    5  A    between atoms: C_9  and  C_10
REMARK    6  A    between atoms: C_15  and  C_17
REMARK    7  A    between atoms: C_19  and  N_20
REMARK                            x       y       z     vdW  Elec       q    Type
REMARK                         _______ _______ _______ _____ _____    ______ ____
ROOT
ATOM      1  C   UNL     1       3.420   5.987  18.777  0.00  0.00    +0.000 A 
ATOM      2  C   UNL     1       3.047   5.333  19.937  0.00  0.00    +0.000 A 
ATOM      3  S   UNL     1       1.806   6.224  20.743  0.00  0.00    +0.000 S 
ATOM      4  C   UNL     1       1.932   7.437  19.556  0.00  0.00    +0.000 A 
ATOM      5  N   UNL     1       1.146   8.543  19.752  0.00  0.00    +0.000 N 
ATOM      6  C   UNL     1       1.328   9.691  19.014  0.00  0.00    +0.000 C 
ATOM      7  O   UNL     1       2.163   9.854  18.128  0.00  0.00    +0.000 OA
ATOM      8  N   UNL     1       2.773   7.202  18.586  0.00  0.00    +0.000 NA
ATOM      9  H   UNL     1       0.516   8.513  20.539  0.00  0.00    +0.000 HD
ENDROOT
BRANCH   6  10
ATOM     10  C   UNL     1       0.440  10.858  19.310  0.00  0.00    +0.000 A 
ATOM     11  C   UNL     1       0.904  11.741  20.311  0.00  0.00    +0.000 A 
ATOM     12  C   UNL     1       0.129  12.831  20.728  0.00  0.00    +0.000 A 
ATOM     13  C   UNL     1      -1.118  13.071  20.140  0.00  0.00    +0.000 A 
ATOM     14  C   UNL     1      -1.580  12.209  19.141  0.00  0.00    +0.000 A 
ATOM     15  C   UNL     1      -0.816  11.105  18.728  0.00  0.00    +0.000 A 
ATOM     16 CL   UNL     1      -1.540  10.089  17.531  0.00  0.00    +0.000 Cl
BRANCH  12  17
ATOM     17  N   UNL     1       0.616  13.716  21.793  0.00  0.00    +0.000 N 
ATOM     18  O   UNL     1       1.794  14.092  21.738  0.00  0.00    +0.000 OA
ATOM     19  O   UNL     1      -0.186  14.035  22.682  0.00  0.00    +0.000 OA
ENDBRANCH  12  17
ENDBRANCH   6  10
BRANCH   1  24
ATOM     20  C   UNL     1       6.577   6.154  16.763  0.00  0.00    +0.000 A 
ATOM     21  C   UNL     1       6.484   5.026  15.958  0.00  0.00    +0.000 A 
ATOM     22  C   UNL     1       5.385   4.170  16.060  0.00  0.00    +0.000 A 
ATOM     23  C   UNL     1       4.342   4.436  16.964  0.00  0.00    +0.000 A 
ATOM     24  C   UNL     1       4.434   5.563  17.803  0.00  0.00    +0.000 A 
ATOM     25  C   UNL     1       5.562   6.408  17.681  0.00  0.00    +0.000 A 
BRANCH  20  27
ATOM     26  C   UNL     1       7.908   7.979  17.494  0.00  0.00    +0.000 C 
ATOM     27  O   UNL     1       7.687   6.926  16.560  0.00  0.00    +0.000 OA
ENDBRANCH  20  27
BRANCH  23  28
ATOM     28  O   UNL     1       3.247   3.615  17.074  0.00  0.00    +0.000 OA
ATOM     29  C   UNL     1       3.462   2.356  17.709  0.00  0.00    +0.000 C 
ENDBRANCH  23  28
ENDBRANCH   1  24
TORSDOF 5
ENDMDL
MODEL 6
REMARK VINA RESULT:      -7.5      2.566      8.912
REMARK  Name = 
REMARK  7 active torsions:
REMARK  status: ('A' for Active; 'I' for Inactive)
REMARK    1  A    between atoms: C_1  and  O_2
REMARK    2  A    between atoms: O_2  and  C_3
REMARK    3  A    between atoms: C_6  and  O_7
REMARK    4  A    between atoms: O_7  and  C_8
REMARK    5  A    between atoms: C_9  and  C_10
REMARK    6  A    between atoms: C_15  and  C_17
REMARK    7  A    between atoms: C_19  and  N_20
REMARK                            x       y       z     vdW  Elec       q    Type
REMARK                         _______ _______ _______ _____ _____    ______ ____
ROOT
ATOM      1  C   UNL     1       3.849   5.534  18.773  0.00  0.00    +0.000 A 
ATOM      2  C   UNL     1       3.440   4.832  19.892  0.00  0.00    +0.000 A 
ATOM      3  S   UNL     1       2.090   5.621  20.623  0.00  0.00    +0.000 S 
ATOM      4  C   UNL     1       2.217   6.867  19.470  0.00  0.00    +0.000 A 
ATOM      5  N   UNL     1       1.348   7.914  19.628  0.00  0.00    +0.000 N 
ATOM      6  C   UNL     1       1.505   9.087  18.926  0.00  0.00    +0.000 C 
ATOM      7  O   UNL     1       2.387   9.325  18.105  0.00  0.00    +0.000 OA
ATOM      8  N   UNL     1       3.138   6.708  18.558  0.00  0.00    +0.000 NA
ATOM      9  H   UNL     1       0.668   7.825  20.368  0.00  0.00    +0.000 HD
ENDROOT
BRANCH   6  10
ATOM     10  C   UNL     1       0.522  10.188  19.178  0.00  0.00    +0.000 A 
ATOM     11  C   UNL     1       0.773  10.981  20.320  0.00  0.00    +0.000 A 
ATOM     12  C   UNL     1      -0.113  11.997  20.702  0.00  0.00    +0.000 A 
ATOM     13  C   UNL     1      -1.259  12.251  19.941  0.00  0.00    +0.000 A 
ATOM     14  C   UNL     1      -1.510  11.477  18.804  0.00  0.00    +0.000 A 
ATOM     15  C   UNL     1      -0.634  10.448  18.422  0.00  0.00    +0.000 A 
ATOM     16 CL   UNL     1      -1.103   9.532  17.033  0.00  0.00    +0.000 Cl
BRANCH  12  17
ATOM     17  N   UNL     1       0.150  12.787  21.911  0.00  0.00    +0.000 N 
ATOM     18  O   UNL     1      -0.445  12.471  22.949  0.00  0.00    +0.000 OA
ATOM     19  O   UNL     1       0.955  13.724  21.817  0.00  0.00    +0.000 OA
ENDBRANCH  12  17
ENDBRANCH   6  10
BRANCH   1  24
ATOM     20  C   UNL     1       5.539   4.596  15.561  0.00  0.00    +0.000 A 
ATOM     21  C   UNL     1       6.867   4.463  15.944  0.00  0.00    +0.000 A 
ATOM     22  C   UNL     1       7.250   4.688  17.269  0.00  0.00    +0.000 A 
ATOM     23  C   UNL     1       6.303   5.036  18.246  0.00  0.00    +0.000 A 
ATOM     24  C   UNL     1       4.956   5.199  17.867  0.00  0.00    +0.000 A 
ATOM     25  C   UNL     1       4.599   4.970  16.518  0.00  0.00    +0.000 A 
BRANCH  20  27
ATOM     26  C   UNL     1       6.385   3.887  13.460  0.00  0.00    +0.000 C 
ATOM     27  O   UNL     1       5.282   4.333  14.244  0.00  0.00    +0.000 OA
ENDBRANCH  20  27
BRANCH  23  28
ATOM     28  O   UNL     1       6.654   5.251  19.557  0.00  0.00    +0.000 OA
ATOM     29  C   UNL     1       7.986   5.704  19.788  0.00  0.00    +0.000 C 
ENDBRANCH  23  28
ENDBRANCH   1  24
TORSDOF 5
ENDMDL
MODEL 7
REMARK VINA RESULT:      -7.4      1.109      1.284
REMARK  Name = 
REMARK  7 active torsions:
REMARK  status: ('A' for Active; 'I' for Inactive)
REMARK    1  A    between atoms: C_1  and  O_2
REMARK    2  A    between atoms: O_2  and  C_3
REMARK    3  A    between atoms: C_6  and  O_7
REMARK    4  A    between atoms: O_7  and  C_8
REMARK    5  A    between atoms: C_9  and  C_10
REMARK    6  A    between atoms: C_15  and  C_17
REMARK    7  A    between atoms: C_19  and  N_20
REMARK                            x       y       z     vdW  Elec       q    Type
REMARK                         _______ _______ _______ _____ _____    ______ ____
ROOT
ATOM      1  C   UNL     1       0.564  10.172  20.420  0.00  0.00    +0.000 A 
ATOM      2  C   UNL     1       0.099   9.447  21.501  0.00  0.00    +0.000 A 
ATOM      3  S   UNL     1       0.829   7.882  21.519  0.00  0.00    +0.000 S 
ATOM      4  C   UNL     1       1.617   8.253  20.056  0.00  0.00    +0.000 A 
ATOM      5  N   UNL     1       2.357   7.239  19.506  0.00  0.00    +0.000 N 
ATOM      6  C   UNL     1       2.837   7.320  18.219  0.00  0.00    +0.000 C 
ATOM      7  O   UNL     1       2.683   8.264  17.449  0.00  0.00    +0.000 OA
ATOM      8  N   UNL     1       1.427   9.459  19.596  0.00  0.00    +0.000 NA
ATOM      9  H   UNL     1       2.426   6.389  20.046  0.00  0.00    +0.000 HD
ENDROOT
BRANCH   6  10
ATOM     10  C   UNL     1       3.617   6.157  17.691  0.00  0.00    +0.000 A 
ATOM     11  C   UNL     1       4.915   6.455  17.220  0.00  0.00    +0.000 A 
ATOM     12  C   UNL     1       5.717   5.465  16.636  0.00  0.00    +0.000 A 
ATOM     13  C   UNL     1       5.243   4.153  16.528  0.00  0.00    +0.000 A 
ATOM     14  C   UNL     1       3.964   3.846  17.001  0.00  0.00    +0.000 A 
ATOM     15  C   UNL     1       3.148   4.836  17.574  0.00  0.00    +0.000 A 
ATOM     16 CL   UNL     1       1.568   4.329  18.056  0.00  0.00    +0.000 Cl
BRANCH  12  17
ATOM     17  N   UNL     1       7.050   5.804  16.123  0.00  0.00    +0.000 N 
ATOM     18  O   UNL     1       7.670   6.716  16.686  0.00  0.00    +0.000 OA
ATOM     19  O   UNL     1       7.473   5.154  15.157  0.00  0.00    +0.000 OA
ENDBRANCH  12  17
ENDBRANCH   6  10
BRANCH   1  24
ATOM     20  C   UNL     1       0.295  13.898  20.739  0.00  0.00    +0.000 A 
ATOM     21  C   UNL     1      -0.437  14.247  19.612  0.00  0.00    +0.000 A 
ATOM     22  C   UNL     1      -0.856  13.269  18.706  0.00  0.00    +0.000 A 
ATOM     23  C   UNL     1      -0.563  11.912  18.920  0.00  0.00    +0.000 A 
ATOM     24  C   UNL     1       0.199  11.545  20.046  0.00  0.00    +0.000 A 
ATOM     25  C   UNL     1       0.614  12.558  20.943  0.00  0.00    +0.000 A 
BRANCH  20  27
ATOM     26  C   UNL     1      -0.246  15.192  22.654  0.00  0.00    +0.000 C 
ATOM     27  O   UNL     1       0.631  14.937  21.561  0.00  0.00    +0.000 OA
ENDBRANCH  20  27
BRANCH  23  28
ATOM     28  O   UNL     1      -0.974  10.932  18.050  0.00  0.00    +0.000 OA
ATOM     29  C   UNL     1      -2.268  11.099  17.475  0.00  0.00    +0.000 C 
ENDBRANCH  23  28
ENDBRANCH   1  24
TORSDOF 5
ENDMDL
MODEL 8
REMARK VINA RESULT:      -7.4      2.742      8.605
REMARK  Name = 
REMARK  7 active torsions:
REMARK  status: ('A' for Active; 'I' for Inactive)
REMARK    1  A    between atoms: C_1  and  O_2
REMARK    2  A    between atoms: O_2  and  C_3
REMARK    3  A    between atoms: C_6  and  O_7
REMARK    4  A    between atoms: O_7  and  C_8
REMARK    5  A    between atoms: C_9  and  C_10
REMARK    6  A    between atoms: C_15  and  C_17
REMARK    7  A    between atoms: C_19  and  N_20
REMARK                            x       y       z     vdW  Elec       q    Type
REMARK                         _______ _______ _______ _____ _____    ______ ____
ROOT
ATOM      1  C   UNL     1       3.550   5.959  18.688  0.00  0.00    +0.000 A 
ATOM      2  C   UNL     1       3.230   5.397  19.910  0.00  0.00    +0.000 A 
ATOM      3  S   UNL     1       1.894   6.235  20.613  0.00  0.00    +0.000 S 
ATOM      4  C   UNL     1       1.911   7.323  19.304  0.00  0.00    +0.000 A 
ATOM      5  N   UNL     1       1.014   8.357  19.379  0.00  0.00    +0.000 N 
ATOM      6  C   UNL     1       1.089   9.433  18.524  0.00  0.00    +0.000 C 
ATOM      7  O   UNL     1       1.914   9.587  17.628  0.00  0.00    +0.000 OA
ATOM      8  N   UNL     1       2.785   7.075  18.367  0.00  0.00    +0.000 NA
ATOM      9  H   UNL     1       0.380   8.345  20.163  0.00  0.00    +0.000 HD
ENDROOT
BRANCH   6  10
ATOM     10  C   UNL     1       0.082  10.528  18.691  0.00  0.00    +0.000 A 
ATOM     11  C   UNL     1      -1.048  10.453  17.846  0.00  0.00    +0.000 A 
ATOM     12  C   UNL     1      -2.025  11.456  17.857  0.00  0.00    +0.000 A 
ATOM     13  C   UNL     1      -1.901  12.546  18.725  0.00  0.00    +0.000 A 
ATOM     14  C   UNL     1      -0.792  12.624  19.572  0.00  0.00    +0.000 A 
ATOM     15  C   UNL     1       0.200  11.629  19.557  0.00  0.00    +0.000 A 
ATOM     16 CL   UNL     1       1.547  11.887  20.610  0.00  0.00    +0.000 Cl
BRANCH  12  17
ATOM     17  N   UNL     1      -3.175  11.375  16.948  0.00  0.00    +0.000 N 
ATOM     18  O   UNL     1      -2.955  11.092  15.763  0.00  0.00    +0.000 OA
ATOM     19  O   UNL     1      -4.297  11.594  17.424  0.00  0.00    +0.000 OA
ENDBRANCH  12  17
ENDBRANCH   6  10
BRANCH   1  24
ATOM     20  C   UNL     1       6.791   6.162  16.814  0.00  0.00    +0.000 A 
ATOM     21  C   UNL     1       6.757   5.019  16.025  0.00  0.00    +0.000 A 
ATOM     22  C   UNL     1       5.672   4.141  16.093  0.00  0.00    +0.000 A 
ATOM     23  C   UNL     1       4.585   4.399  16.944  0.00  0.00    +0.000 A 
ATOM     24  C   UNL     1       4.616   5.542  17.768  0.00  0.00    +0.000 A 
ATOM     25  C   UNL     1       5.730   6.409  17.682  0.00  0.00    +0.000 A 
BRANCH  20  27
ATOM     26  C   UNL     1       7.995   8.087  17.504  0.00  0.00    +0.000 C 
ATOM     27  O   UNL     1       7.893   6.953  16.648  0.00  0.00    +0.000 OA
ENDBRANCH  20  27
BRANCH  23  28
ATOM     28  O   UNL     1       3.502   3.557  17.019  0.00  0.00    +0.000 OA
ATOM     29  C   UNL     1       3.666   2.388  17.820  0.00  0.00    +0.000 C 
ENDBRANCH  23  28
ENDBRANCH   1  24
TORSDOF 5
ENDMDL
MODEL 9
REMARK VINA RESULT:      -7.4      2.615      8.734
REMARK  Name = 
REMARK  7 active torsions:
REMARK  status: ('A' for Active; 'I' for Inactive)
REMARK    1  A    between atoms: C_1  and  O_2
REMARK    2  A    between atoms: O_2  and  C_3
REMARK    3  A    between atoms: C_6  and  O_7
REMARK    4  A    between atoms: O_7  and  C_8
REMARK    5  A    between atoms: C_9  and  C_10
REMARK    6  A    between atoms: C_15  and  C_17
REMARK    7  A    between atoms: C_19  and  N_20
REMARK                            x       y       z     vdW  Elec       q    Type
REMARK                         _______ _______ _______ _____ _____    ______ ____
ROOT
ATOM      1  C   UNL     1       3.230   6.168  18.756  0.00  0.00    +0.000 A 
ATOM      2  C   UNL     1       2.827   5.674  19.983  0.00  0.00    +0.000 A 
ATOM      3  S   UNL     1       1.658   6.731  20.689  0.00  0.00    +0.000 S 
ATOM      4  C   UNL     1       1.851   7.793  19.374  0.00  0.00    +0.000 A 
ATOM      5  N   UNL     1       1.143   8.964  19.447  0.00  0.00    +0.000 N 
ATOM      6  C   UNL     1       1.393  10.008  18.585  0.00  0.00    +0.000 C 
ATOM      7  O   UNL     1       2.227  10.015  17.683  0.00  0.00    +0.000 OA
ATOM      8  N   UNL     1       2.663   7.395  18.433  0.00  0.00    +0.000 NA
ATOM      9  H   UNL     1       0.521   9.065  20.235  0.00  0.00    +0.000 HD
ENDROOT
BRANCH   6  10
ATOM     10  C   UNL     1       0.588  11.258  18.751  0.00  0.00    +0.000 A 
ATOM     11  C   UNL     1      -0.806  11.074  18.892  0.00  0.00    +0.000 A 
ATOM     12  C   UNL     1      -1.674  12.170  18.983  0.00  0.00    +0.000 A 
ATOM     13  C   UNL     1      -1.164  13.472  18.952  0.00  0.00    +0.000 A 
ATOM     14  C   UNL     1       0.214  13.665  18.823  0.00  0.00    +0.000 A 
ATOM     15  C   UNL     1       1.090  12.571  18.717  0.00  0.00    +0.000 A 
ATOM     16 CL   UNL     1       2.760  12.959  18.498  0.00  0.00    +0.000 Cl
BRANCH  12  17
ATOM     17  N   UNL     1      -3.122  11.955  19.096  0.00  0.00    +0.000 N 
ATOM     18  O   UNL     1      -3.659  11.198  18.277  0.00  0.00    +0.000 OA
ATOM     19  O   UNL     1      -3.718  12.545  20.007  0.00  0.00    +0.000 OA
ENDBRANCH  12  17
ENDBRANCH   6  10
BRANCH   1  24
ATOM     20  C   UNL     1       6.389   5.877  16.758  0.00  0.00    +0.000 A 
ATOM     21  C   UNL     1       6.197   4.692  16.059  0.00  0.00    +0.000 A 
ATOM     22  C   UNL     1       5.028   3.947  16.231  0.00  0.00    +0.000 A 
ATOM     23  C   UNL     1       4.013   4.383  17.099  0.00  0.00    +0.000 A 
ATOM     24  C   UNL     1       4.203   5.570  17.833  0.00  0.00    +0.000 A 
ATOM     25  C   UNL     1       5.400   6.300  17.643  0.00  0.00    +0.000 A 
BRANCH  20  27
ATOM     26  C   UNL     1       7.850   7.666  17.299  0.00  0.00    +0.000 C 
ATOM     27  O   UNL     1       7.561   6.527  16.494  0.00  0.00    +0.000 OA
ENDBRANCH  20  27
BRANCH  23  28
ATOM     28  O   UNL     1       2.850   3.674  17.275  0.00  0.00    +0.000 OA
ATOM     29  C   UNL     1       2.986   2.365  17.826  0.00  0.00    +0.000 C 
ENDBRANCH  23  28
ENDBRANCH   1  24
TORSDOF 5
ENDMDL
