MODEL 1
REMARK VINA RESULT:      -8.4      0.000      0.000
REMARK  Name = 
REMARK  4 active torsions:
REMARK  status: ('A' for Active; 'I' for Inactive)
REMARK    1  A    between atoms: C_4  and  C_5
REMARK    2  A    between atoms: C_5  and  N_6
REMARK    3  A    between atoms: N_6  and  C_7
REMARK    4  A    between atoms: C_9  and  C_10
REMARK                            x       y       z     vdW  Elec       q    Type
REMARK                         _______ _______ _______ _____ _____    ______ ____
ROOT
ATOM      1  C   UNL     1       2.761   6.372  19.702  0.00  0.00    +0.000 A 
ATOM      2  N   UNL     1       3.684   5.818  18.883  0.00  0.00    +0.000 NA
ATOM      3  C   UNL     1       4.044   6.456  17.747  0.00  0.00    +0.000 A 
ATOM      4  N   UNL     1       3.574   7.639  17.333  0.00  0.00    +0.000 NA
ATOM      5  C   UNL     1       2.654   8.204  18.144  0.00  0.00    +0.000 A 
ATOM      6  C   UNL     1       2.017   9.458  17.908  0.00  0.00    +0.000 A 
ATOM      7  C   UNL     1       1.127   9.789  18.903  0.00  0.00    +0.000 A 
ATOM      8  S   UNL     1       1.051   8.589  20.116  0.00  0.00    +0.000 S 
ATOM      9  C   UNL     1       2.224   7.608  19.322  0.00  0.00    +0.000 A 
ENDROOT
BRANCH   3  10
ATOM     10  C   UNL     1       5.055   5.809  16.896  0.00  0.00    +0.000 A 
ATOM     11  C   UNL     1       4.833   4.583  16.250  0.00  0.00    +0.000 A 
ATOM     12  C   UNL     1       5.828   3.999  15.467  0.00  0.00    +0.000 A 
ATOM     13  C   UNL     1       7.037   4.659  15.341  0.00  0.00    +0.000 A 
ATOM     14  N   UNL     1       7.305   5.841  15.930  0.00  0.00    +0.000 NA
ATOM     15  C   UNL     1       6.312   6.382  16.685  0.00  0.00    +0.000 A 
ENDBRANCH   3  10
BRANCH   1  16
ATOM     16  N   UNL     1       2.345   5.722  20.861  0.00  0.00    +0.000 N 
ATOM     17  H   UNL     1       3.113   5.558  21.505  0.00  0.00    +0.000 HD
BRANCH  16  18
ATOM     18  C   UNL     1       1.455   4.587  20.703  0.00  0.00    +0.000 C 
BRANCH  18  22
ATOM     19  C   UNL     1       3.424   1.609  18.257  0.00  0.00    +0.000 A 
ATOM     20  C   UNL     1       3.938   1.936  19.509  0.00  0.00    +0.000 A 
ATOM     21  C   UNL     1       3.295   2.894  20.298  0.00  0.00    +0.000 A 
ATOM     22  C   UNL     1       2.135   3.540  19.842  0.00  0.00    +0.000 A 
ATOM     23  C   UNL     1       1.624   3.192  18.583  0.00  0.00    +0.000 A 
ATOM     24  C   UNL     1       2.266   2.230  17.796  0.00  0.00    +0.000 A 
ENDBRANCH  18  22
ENDBRANCH  16  18
ENDBRANCH   1  16
TORSDOF 4
ENDMDL
MODEL 2
REMARK VINA RESULT:      -8.4      0.049      1.007
REMARK  Name = 
REMARK  4 active torsions:
REMARK  status: ('A' for Active; 'I' for Inactive)
REMARK    1  A    between atoms: C_4  and  C_5
REMARK    2  A    between atoms: C_5  and  N_6
REMARK    3  A    between atoms: N_6  and  C_7
REMARK    4  A    between atoms: C_9  and  C_10
REMARK                            x       y       z     vdW  Elec       q    Type
REMARK                         _______ _______ _______ _____ _____    ______ ____
ROOT
ATOM      1  C   UNL     1       2.761   6.343  19.727  0.00  0.00    +0.000 A 
ATOM      2  N   UNL     1       3.683   5.795  18.903  0.00  0.00    +0.000 NA
ATOM      3  C   UNL     1       4.037   6.439  17.769  0.00  0.00    +0.000 A 
ATOM      4  N   UNL     1       3.560   7.622  17.360  0.00  0.00    +0.000 NA
ATOM      5  C   UNL     1       2.641   8.180  18.177  0.00  0.00    +0.000 A 
ATOM      6  C   UNL     1       1.998   9.432  17.947  0.00  0.00    +0.000 A 
ATOM      7  C   UNL     1       1.110   9.756  18.947  0.00  0.00    +0.000 A 
ATOM      8  S   UNL     1       1.043   8.551  20.156  0.00  0.00    +0.000 S 
ATOM      9  C   UNL     1       2.218   7.578  19.354  0.00  0.00    +0.000 A 
ENDROOT
BRANCH   3  10
ATOM     10  C   UNL     1       5.048   5.800  16.912  0.00  0.00    +0.000 A 
ATOM     11  C   UNL     1       4.837   4.564  16.281  0.00  0.00    +0.000 A 
ATOM     12  C   UNL     1       5.832   3.987  15.491  0.00  0.00    +0.000 A 
ATOM     13  C   UNL     1       7.028   4.665  15.344  0.00  0.00    +0.000 A 
ATOM     14  N   UNL     1       7.284   5.857  15.917  0.00  0.00    +0.000 NA
ATOM     15  C   UNL     1       6.292   6.390  16.679  0.00  0.00    +0.000 A 
ENDBRANCH   3  10
BRANCH   1  16
ATOM     16  N   UNL     1       2.351   5.687  20.886  0.00  0.00    +0.000 N 
ATOM     17  H   UNL     1       3.121   5.532  21.530  0.00  0.00    +0.000 HD
BRANCH  16  18
ATOM     18  C   UNL     1       1.477   4.540  20.726  0.00  0.00    +0.000 C 
BRANCH  18  22
ATOM     19  C   UNL     1       3.444   1.552  18.291  0.00  0.00    +0.000 A 
ATOM     20  C   UNL     1       2.281   2.167  17.838  0.00  0.00    +0.000 A 
ATOM     21  C   UNL     1       1.652   3.136  18.625  0.00  0.00    +0.000 A 
ATOM     22  C   UNL     1       2.177   3.496  19.876  0.00  0.00    +0.000 A 
ATOM     23  C   UNL     1       3.355   2.875  20.315  0.00  0.00    +0.000 A 
ATOM     24  C   UNL     1       3.986   1.908  19.524  0.00  0.00    +0.000 A 
ENDBRANCH  18  22
ENDBRANCH  16  18
ENDBRANCH   1  16
TORSDOF 4
ENDMDL
MODEL 3
REMARK VINA RESULT:      -8.2      1.919      5.092
REMARK  Name = 
REMARK  4 active torsions:
REMARK  status: ('A' for Active; 'I' for Inactive)
REMARK    1  A    between atoms: C_4  and  C_5
REMARK    2  A    between atoms: C_5  and  N_6
REMARK    3  A    between atoms: N_6  and  C_7
REMARK    4  A    between atoms: C_9  and  C_10
REMARK                            x       y       z     vdW  Elec       q    Type
REMARK                         _______ _______ _______ _____ _____    ______ ____
ROOT
ATOM      1  C   UNL     1       2.971   5.722  19.029  0.00  0.00    +0.000 A 
ATOM      2  N   UNL     1       3.924   5.776  18.071  0.00  0.00    +0.000 NA
ATOM      3  C   UNL     1       4.215   4.671  17.350  0.00  0.00    +0.000 A 
ATOM      4  N   UNL     1       3.626   3.475  17.479  0.00  0.00    +0.000 NA
ATOM      5  C   UNL     1       2.670   3.411  18.431  0.00  0.00    +0.000 A 
ATOM      6  C   UNL     1       1.909   2.245  18.745  0.00  0.00    +0.000 A 
ATOM      7  C   UNL     1       1.002   2.470  19.755  0.00  0.00    +0.000 A 
ATOM      8  S   UNL     1       1.070   4.076  20.330  0.00  0.00    +0.000 S 
ATOM      9  C   UNL     1       2.319   4.497  19.219  0.00  0.00    +0.000 A 
ENDROOT
BRANCH   3  10
ATOM     10  C   UNL     1       5.257   4.788  16.318  0.00  0.00    +0.000 A 
ATOM     11  C   UNL     1       5.195   4.105  15.094  0.00  0.00    +0.000 A 
ATOM     12  C   UNL     1       6.216   4.232  14.152  0.00  0.00    +0.000 A 
ATOM     13  C   UNL     1       7.289   5.050  14.455  0.00  0.00    +0.000 A 
ATOM     14  N   UNL     1       7.400   5.737  15.609  0.00  0.00    +0.000 NA
ATOM     15  C   UNL     1       6.387   5.589  16.503  0.00  0.00    +0.000 A 
ENDBRANCH   3  10
BRANCH   1  16
ATOM     16  N   UNL     1       2.673   6.835  19.812  0.00  0.00    +0.000 N 
ATOM     17  H   UNL     1       2.218   6.579  20.683  0.00  0.00    +0.000 HD
BRANCH  16  18
ATOM     18  C   UNL     1       2.069   7.974  19.144  0.00  0.00    +0.000 C 
BRANCH  18  22
ATOM     19  C   UNL     1      -0.256  10.255  21.992  0.00  0.00    +0.000 A 
ATOM     20  C   UNL     1      -0.307  10.569  20.637  0.00  0.00    +0.000 A 
ATOM     21  C   UNL     1       0.441   9.825  19.720  0.00  0.00    +0.000 A 
ATOM     22  C   UNL     1       1.253   8.764  20.149  0.00  0.00    +0.000 A 
ATOM     23  C   UNL     1       1.287   8.453  21.516  0.00  0.00    +0.000 A 
ATOM     24  C   UNL     1       0.534   9.196  22.433  0.00  0.00    +0.000 A 
ENDBRANCH  18  22
ENDBRANCH  16  18
ENDBRANCH   1  16
TORSDOF 4
ENDMDL
MODEL 4
REMARK VINA RESULT:      -8.1      1.895      5.042
REMARK  Name = 
REMARK  4 active torsions:
REMARK  status: ('A' for Active; 'I' for Inactive)
REMARK    1  A    between atoms: C_4  and  C_5
REMARK    2  A    between atoms: C_5  and  N_6
REMARK    3  A    between atoms: N_6  and  C_7
REMARK    4  A    between atoms: C_9  and  C_10
REMARK                            x       y       z     vdW  Elec       q    Type
REMARK                         _______ _______ _______ _____ _____    ______ ____
ROOT
ATOM      1  C   UNL     1       2.943   5.803  19.121  0.00  0.00    +0.000 A 
ATOM      2  N   UNL     1       3.910   5.859  18.177  0.00  0.00    +0.000 NA
ATOM      3  C   UNL     1       4.254   4.741  17.500  0.00  0.00    +0.000 A 
ATOM      4  N   UNL     1       3.707   3.530  17.663  0.00  0.00    +0.000 NA
ATOM      5  C   UNL     1       2.738   3.462  18.602  0.00  0.00    +0.000 A 
ATOM      6  C   UNL     1       2.016   2.281  18.945  0.00  0.00    +0.000 A 
ATOM      7  C   UNL     1       1.085   2.507  19.932  0.00  0.00    +0.000 A 
ATOM      8  S   UNL     1       1.083   4.134  20.450  0.00  0.00    +0.000 S 
ATOM      9  C   UNL     1       2.335   4.562  19.345  0.00  0.00    +0.000 A 
ENDROOT
BRANCH   3  10
ATOM     10  C   UNL     1       5.308   4.861  16.480  0.00  0.00    +0.000 A 
ATOM     11  C   UNL     1       5.274   4.159  15.266  0.00  0.00    +0.000 A 
ATOM     12  C   UNL     1       6.306   4.290  14.336  0.00  0.00    +0.000 A 
ATOM     13  C   UNL     1       7.360   5.130  14.641  0.00  0.00    +0.000 A 
ATOM     14  N   UNL     1       7.444   5.835  15.786  0.00  0.00    +0.000 NA
ATOM     15  C   UNL     1       6.421   5.684  16.669  0.00  0.00    +0.000 A 
ENDBRANCH   3  10
BRANCH   1  16
ATOM     16  N   UNL     1       2.591   6.931  19.858  0.00  0.00    +0.000 N 
ATOM     17  H   UNL     1       2.115   6.690  20.722  0.00  0.00    +0.000 HD
BRANCH  16  18
ATOM     18  C   UNL     1       1.981   8.032  19.136  0.00  0.00    +0.000 C 
BRANCH  18  22
ATOM     19  C   UNL     1      -0.382  10.372  21.905  0.00  0.00    +0.000 A 
ATOM     20  C   UNL     1       0.317   9.255  22.354  0.00  0.00    +0.000 A 
ATOM     21  C   UNL     1       1.084   8.506  21.457  0.00  0.00    +0.000 A 
ATOM     22  C   UNL     1       1.155   8.862  20.101  0.00  0.00    +0.000 A 
ATOM     23  C   UNL     1       0.453   9.996  19.667  0.00  0.00    +0.000 A 
ATOM     24  C   UNL     1      -0.311  10.747  20.566  0.00  0.00    +0.000 A 
ENDBRANCH  18  22
ENDBRANCH  16  18
ENDBRANCH   1  16
TORSDOF 4
ENDMDL
MODEL 5
REMARK VINA RESULT:      -8.1      2.162      5.086
REMARK  Name = 
REMARK  4 active torsions:
REMARK  status: ('A' for Active; 'I' for Inactive)
REMARK    1  A    between atoms: C_4  and  C_5
REMARK    2  A    between atoms: C_5  and  N_6
REMARK    3  A    between atoms: N_6  and  C_7
REMARK    4  A    between atoms: C_9  and  C_10
REMARK                            x       y       z     vdW  Elec       q    Type
REMARK                         _______ _______ _______ _____ _____    ______ ____
ROOT
ATOM      1  C   UNL     1       3.516   4.408  17.089  0.00  0.00    +0.000 A 
ATOM      2  N   UNL     1       2.782   5.366  17.699  0.00  0.00    +0.000 NA
ATOM      3  C   UNL     1       3.304   6.599  17.880  0.00  0.00    +0.000 A 
ATOM      4  N   UNL     1       4.522   6.997  17.491  0.00  0.00    +0.000 NA
ATOM      5  C   UNL     1       5.263   6.049  16.878  0.00  0.00    +0.000 A 
ATOM      6  C   UNL     1       6.585   6.244  16.379  0.00  0.00    +0.000 A 
ATOM      7  C   UNL     1       7.097   5.107  15.797  0.00  0.00    +0.000 A 
ATOM      8  S   UNL     1       5.993   3.806  15.858  0.00  0.00    +0.000 S 
ATOM      9  C   UNL     1       4.803   4.758  16.663  0.00  0.00    +0.000 A 
ENDROOT
BRANCH   3  10
ATOM     10  C   UNL     1       2.459   7.604  18.545  0.00  0.00    +0.000 A 
ATOM     11  C   UNL     1       1.958   8.734  17.882  0.00  0.00    +0.000 A 
ATOM     12  C   UNL     1       1.175   9.670  18.559  0.00  0.00    +0.000 A 
ATOM     13  C   UNL     1       0.904   9.453  19.897  0.00  0.00    +0.000 A 
ATOM     14  N   UNL     1       1.351   8.384  20.584  0.00  0.00    +0.000 NA
ATOM     15  C   UNL     1       2.110   7.492  19.893  0.00  0.00    +0.000 A 
ENDBRANCH   3  10
BRANCH   1  16
ATOM     16  N   UNL     1       3.018   3.118  16.918  0.00  0.00    +0.000 N 
ATOM     17  H   UNL     1       2.027   3.117  16.698  0.00  0.00    +0.000 HD
BRANCH  16  18
ATOM     18  C   UNL     1       3.404   2.122  17.900  0.00  0.00    +0.000 C 
BRANCH  18  22
ATOM     19  C   UNL     1       1.331   2.949  21.607  0.00  0.00    +0.000 A 
ATOM     20  C   UNL     1       0.621   2.867  20.412  0.00  0.00    +0.000 A 
ATOM     21  C   UNL     1       1.294   2.594  19.218  0.00  0.00    +0.000 A 
ATOM     22  C   UNL     1       2.685   2.405  19.205  0.00  0.00    +0.000 A 
ATOM     23  C   UNL     1       3.385   2.482  20.418  0.00  0.00    +0.000 A 
ATOM     24  C   UNL     1       2.710   2.751  21.613  0.00  0.00    +0.000 A 
ENDBRANCH  18  22
ENDBRANCH  16  18
ENDBRANCH   1  16
TORSDOF 4
ENDMDL
MODEL 6
REMARK VINA RESULT:      -8.1      2.164      4.990
REMARK  Name = 
REMARK  4 active torsions:
REMARK  status: ('A' for Active; 'I' for Inactive)
REMARK    1  A    between atoms: C_4  and  C_5
REMARK    2  A    between atoms: C_5  and  N_6
REMARK    3  A    between atoms: N_6  and  C_7
REMARK    4  A    between atoms: C_9  and  C_10
REMARK                            x       y       z     vdW  Elec       q    Type
REMARK                         _______ _______ _______ _____ _____    ______ ____
ROOT
ATOM      1  C   UNL     1       3.491   4.426  17.090  0.00  0.00    +0.000 A 
ATOM      2  N   UNL     1       2.760   5.388  17.698  0.00  0.00    +0.000 NA
ATOM      3  C   UNL     1       3.290   6.617  17.884  0.00  0.00    +0.000 A 
ATOM      4  N   UNL     1       4.514   7.007  17.503  0.00  0.00    +0.000 NA
ATOM      5  C   UNL     1       5.251   6.055  16.892  0.00  0.00    +0.000 A 
ATOM      6  C   UNL     1       6.578   6.241  16.401  0.00  0.00    +0.000 A 
ATOM      7  C   UNL     1       7.084   5.101  15.819  0.00  0.00    +0.000 A 
ATOM      8  S   UNL     1       5.970   3.808  15.872  0.00  0.00    +0.000 S 
ATOM      9  C   UNL     1       4.783   4.768  16.672  0.00  0.00    +0.000 A 
ENDROOT
BRANCH   3  10
ATOM     10  C   UNL     1       2.450   7.627  18.547  0.00  0.00    +0.000 A 
ATOM     11  C   UNL     1       1.955   8.759  17.882  0.00  0.00    +0.000 A 
ATOM     12  C   UNL     1       1.176   9.699  18.557  0.00  0.00    +0.000 A 
ATOM     13  C   UNL     1       0.902   9.486  19.895  0.00  0.00    +0.000 A 
ATOM     14  N   UNL     1       1.343   8.415  20.584  0.00  0.00    +0.000 NA
ATOM     15  C   UNL     1       2.098   7.519  19.895  0.00  0.00    +0.000 A 
ENDBRANCH   3  10
BRANCH   1  16
ATOM     16  N   UNL     1       2.984   3.140  16.915  0.00  0.00    +0.000 N 
ATOM     17  H   UNL     1       1.993   3.147  16.694  0.00  0.00    +0.000 HD
BRANCH  16  18
ATOM     18  C   UNL     1       3.364   2.138  17.892  0.00  0.00    +0.000 C 
BRANCH  18  22
ATOM     19  C   UNL     1       1.329   2.915  21.630  0.00  0.00    +0.000 A 
ATOM     20  C   UNL     1       2.710   2.744  21.609  0.00  0.00    +0.000 A 
ATOM     21  C   UNL     1       3.364   2.499  20.398  0.00  0.00    +0.000 A 
ATOM     22  C   UNL     1       2.643   2.417  19.197  0.00  0.00    +0.000 A 
ATOM     23  C   UNL     1       1.253   2.601  19.233  0.00  0.00    +0.000 A 
ATOM     24  C   UNL     1       0.600   2.850  20.445  0.00  0.00    +0.000 A 
ENDBRANCH  18  22
ENDBRANCH  16  18
ENDBRANCH   1  16
TORSDOF 4
ENDMDL
MODEL 7
REMARK VINA RESULT:      -8.0      2.224      5.065
REMARK  Name = 
REMARK  4 active torsions:
REMARK  status: ('A' for Active; 'I' for Inactive)
REMARK    1  A    between atoms: C_4  and  C_5
REMARK    2  A    between atoms: C_5  and  N_6
REMARK    3  A    between atoms: N_6  and  C_7
REMARK    4  A    between atoms: C_9  and  C_10
REMARK                            x       y       z     vdW  Elec       q    Type
REMARK                         _______ _______ _______ _____ _____    ______ ____
ROOT
ATOM      1  C   UNL     1       3.480   4.391  17.078  0.00  0.00    +0.000 A 
ATOM      2  N   UNL     1       2.770   5.325  17.752  0.00  0.00    +0.000 NA
ATOM      3  C   UNL     1       3.310   6.543  17.981  0.00  0.00    +0.000 A 
ATOM      4  N   UNL     1       4.523   6.948  17.584  0.00  0.00    +0.000 NA
ATOM      5  C   UNL     1       5.240   6.024  16.908  0.00  0.00    +0.000 A 
ATOM      6  C   UNL     1       6.552   6.230  16.388  0.00  0.00    +0.000 A 
ATOM      7  C   UNL     1       7.038   5.119  15.739  0.00  0.00    +0.000 A 
ATOM      8  S   UNL     1       5.922   3.827  15.762  0.00  0.00    +0.000 S 
ATOM      9  C   UNL     1       4.761   4.750  16.640  0.00  0.00    +0.000 A 
ENDROOT
BRANCH   3  10
ATOM     10  C   UNL     1       2.492   7.522  18.715  0.00  0.00    +0.000 A 
ATOM     11  C   UNL     1       2.073   7.321  20.039  0.00  0.00    +0.000 A 
ATOM     12  C   UNL     1       1.282   8.269  20.689  0.00  0.00    +0.000 A 
ATOM     13  C   UNL     1       0.925   9.411  19.996  0.00  0.00    +0.000 A 
ATOM     14  N   UNL     1       1.304   9.663  18.728  0.00  0.00    +0.000 NA
ATOM     15  C   UNL     1       2.074   8.717  18.126  0.00  0.00    +0.000 A 
ENDBRANCH   3  10
BRANCH   1  16
ATOM     16  N   UNL     1       2.964   3.117  16.856  0.00  0.00    +0.000 N 
ATOM     17  H   UNL     1       1.983   3.142  16.596  0.00  0.00    +0.000 HD
BRANCH  16  18
ATOM     18  C   UNL     1       3.291   2.090  17.828  0.00  0.00    +0.000 C 
BRANCH  18  22
ATOM     19  C   UNL     1       1.353   3.057  21.574  0.00  0.00    +0.000 A 
ATOM     20  C   UNL     1       0.608   2.987  20.400  0.00  0.00    +0.000 A 
ATOM     21  C   UNL     1       1.238   2.668  19.193  0.00  0.00    +0.000 A 
ATOM     22  C   UNL     1       2.619   2.422  19.147  0.00  0.00    +0.000 A 
ATOM     23  C   UNL     1       3.353   2.487  20.340  0.00  0.00    +0.000 A 
ATOM     24  C   UNL     1       2.722   2.802  21.547  0.00  0.00    +0.000 A 
ENDBRANCH  18  22
ENDBRANCH  16  18
ENDBRANCH   1  16
TORSDOF 4
ENDMDL
MODEL 8
REMARK VINA RESULT:      -8.0      2.141      4.970
REMARK  Name = 
REMARK  4 active torsions:
REMARK  status: ('A' for Active; 'I' for Inactive)
REMARK    1  A    between atoms: C_4  and  C_5
REMARK    2  A    between atoms: C_5  and  N_6
REMARK    3  A    between atoms: N_6  and  C_7
REMARK    4  A    between atoms: C_9  and  C_10
REMARK                            x       y       z     vdW  Elec       q    Type
REMARK                         _______ _______ _______ _____ _____    ______ ____
ROOT
ATOM      1  C   UNL     1       4.881   4.806  18.482  0.00  0.00    +0.000 A 
ATOM      2  N   UNL     1       3.973   5.712  18.913  0.00  0.00    +0.000 NA
ATOM      3  C   UNL     1       3.592   6.721  18.099  0.00  0.00    +0.000 A 
ATOM      4  N   UNL     1       4.029   6.924  16.849  0.00  0.00    +0.000 NA
ATOM      5  C   UNL     1       4.934   6.024  16.407  0.00  0.00    +0.000 A 
ATOM      6  C   UNL     1       5.534   6.039  15.113  0.00  0.00    +0.000 A 
ATOM      7  C   UNL     1       6.416   4.999  14.934  0.00  0.00    +0.000 A 
ATOM      8  S   UNL     1       6.529   4.010  16.322  0.00  0.00    +0.000 S 
ATOM      9  C   UNL     1       5.382   4.966  17.184  0.00  0.00    +0.000 A 
ENDROOT
BRANCH   3  10
ATOM     10  C   UNL     1       2.599   7.674  18.617  0.00  0.00    +0.000 A 
ATOM     11  C   UNL     1       2.067   8.716  17.840  0.00  0.00    +0.000 A 
ATOM     12  C   UNL     1       1.140   9.607  18.380  0.00  0.00    +0.000 A 
ATOM     13  C   UNL     1       0.757   9.437  19.698  0.00  0.00    +0.000 A 
ATOM     14  N   UNL     1       1.226   8.453  20.489  0.00  0.00    +0.000 NA
ATOM     15  C   UNL     1       2.127   7.602  19.930  0.00  0.00    +0.000 A 
ENDBRANCH   3  10
BRANCH   1  16
ATOM     16  N   UNL     1       5.318   3.775  19.310  0.00  0.00    +0.000 N 
ATOM     17  H   UNL     1       6.331   3.708  19.335  0.00  0.00    +0.000 HD
BRANCH  16  18
ATOM     18  C   UNL     1       4.645   2.495  19.187  0.00  0.00    +0.000 C 
BRANCH  18  22
ATOM     19  C   UNL     1       0.473   2.987  20.225  0.00  0.00    +0.000 A 
ATOM     20  C   UNL     1       0.836   2.679  18.917  0.00  0.00    +0.000 A 
ATOM     21  C   UNL     1       2.185   2.515  18.588  0.00  0.00    +0.000 A 
ATOM     22  C   UNL     1       3.185   2.663  19.562  0.00  0.00    +0.000 A 
ATOM     23  C   UNL     1       2.802   2.965  20.877  0.00  0.00    +0.000 A 
ATOM     24  C   UNL     1       1.452   3.125  21.206  0.00  0.00    +0.000 A 
ENDBRANCH  18  22
ENDBRANCH  16  18
ENDBRANCH   1  16
TORSDOF 4
ENDMDL
MODEL 9
REMARK VINA RESULT:      -8.0      1.777      5.060
REMARK  Name = 
REMARK  4 active torsions:
REMARK  status: ('A' for Active; 'I' for Inactive)
REMARK    1  A    between atoms: C_4  and  C_5
REMARK    2  A    between atoms: C_5  and  N_6
REMARK    3  A    between atoms: N_6  and  C_7
REMARK    4  A    between atoms: C_9  and  C_10
REMARK                            x       y       z     vdW  Elec       q    Type
REMARK                         _______ _______ _______ _____ _____    ______ ____
ROOT
ATOM      1  C   UNL     1       3.249   5.598  18.325  0.00  0.00    +0.000 A 
ATOM      2  N   UNL     1       4.162   5.624  17.327  0.00  0.00    +0.000 NA
ATOM      3  C   UNL     1       4.526   4.473  16.721  0.00  0.00    +0.000 A 
ATOM      4  N   UNL     1       4.051   3.254  17.006  0.00  0.00    +0.000 NA
ATOM      5  C   UNL     1       3.136   3.217  17.999  0.00  0.00    +0.000 A 
ATOM      6  C   UNL     1       2.493   2.034  18.472  0.00  0.00    +0.000 A 
ATOM      7  C   UNL     1       1.604   2.294  19.488  0.00  0.00    +0.000 A 
ATOM      8  S   UNL     1       1.547   3.955  19.879  0.00  0.00    +0.000 S 
ATOM      9  C   UNL     1       2.716   4.352  18.677  0.00  0.00    +0.000 A 
ENDROOT
BRANCH   3  10
ATOM     10  C   UNL     1       5.519   4.560  15.638  0.00  0.00    +0.000 A 
ATOM     11  C   UNL     1       5.324   3.973  14.379  0.00  0.00    +0.000 A 
ATOM     12  C   UNL     1       6.302   4.066  13.388  0.00  0.00    +0.000 A 
ATOM     13  C   UNL     1       7.467   4.753  13.679  0.00  0.00    +0.000 A 
ATOM     14  N   UNL     1       7.707   5.343  14.866  0.00  0.00    +0.000 NA
ATOM     15  C   UNL     1       6.732   5.233  15.807  0.00  0.00    +0.000 A 
ENDBRANCH   3  10
BRANCH   1  16
ATOM     16  N   UNL     1       2.878   6.764  18.992  0.00  0.00    +0.000 N 
ATOM     17  H   UNL     1       2.196   6.586  19.722  0.00  0.00    +0.000 HD
BRANCH  16  18
ATOM     18  C   UNL     1       2.581   7.928  18.178  0.00  0.00    +0.000 C 
BRANCH  18  22
ATOM     19  C   UNL     1      -0.513  10.234  20.136  0.00  0.00    +0.000 A 
ATOM     20  C   UNL     1       0.290   9.371  20.877  0.00  0.00    +0.000 A 
ATOM     21  C   UNL     1       1.292   8.633  20.241  0.00  0.00    +0.000 A 
ATOM     22  C   UNL     1       1.498   8.745  18.857  0.00  0.00    +0.000 A 
ATOM     23  C   UNL     1       0.688   9.626  18.126  0.00  0.00    +0.000 A 
ATOM     24  C   UNL     1      -0.312  10.368  18.764  0.00  0.00    +0.000 A 
ENDBRANCH  18  22
ENDBRANCH  16  18
ENDBRANCH   1  16
TORSDOF 4
ENDMDL
