MODEL 1
REMARK VINA RESULT:      -7.1      0.000      0.000
REMARK  Name = 
REMARK  11 active torsions:
REMARK  status: ('A' for Active; 'I' for Inactive)
REMARK    1  A    between atoms: C_1  and  C_2
REMARK    2  A    between atoms: C_2  and  O_3
REMARK    3  A    between atoms: O_3  and  C_4
REMARK    4  A    between atoms: C_4  and  C_6
REMARK    5  A    between atoms: C_7  and  C_8
REMARK    6  A    between atoms: C_15  and  N_16
REMARK    7  A    between atoms: C_17  and  C_19
REMARK    8  A    between atoms: C_19  and  N_20
REMARK    9  A    between atoms: N_20  and  C_21
REMARK   10  A    between atoms: C_21  and  C_22
REMARK   11  A    between atoms: C_22  and  N_23
REMARK                            x       y       z     vdW  Elec       q    Type
REMARK                         _______ _______ _______ _____ _____    ______ ____
ROOT
ATOM      1  C   UNL     1       4.646   5.651  17.540  0.00  0.00    +0.000 A 
ATOM      2  C   UNL     1       4.344   4.271  17.228  0.00  0.00    +0.000 A 
ATOM      3  C   UNL     1       5.138   3.786  16.204  0.00  0.00    +0.000 A 
ATOM      4  S   UNL     1       6.233   4.957  15.619  0.00  0.00    +0.000 S 
ATOM      5  C   UNL     1       5.733   6.071  16.795  0.00  0.00    +0.000 A 
ENDROOT
BRANCH   2   6
ATOM      6  C   UNL     1       3.262   3.441  17.863  0.00  0.00    +0.000 A 
ATOM      7  C   UNL     1       3.483   2.293  18.595  0.00  0.00    +0.000 A 
ATOM      8  C   UNL     1       2.298   1.811  19.222  0.00  0.00    +0.000 A 
ATOM      9  C   UNL     1       1.201   2.574  18.895  0.00  0.00    +0.000 A 
ATOM     10  S   UNL     1       1.594   3.816  17.786  0.00  0.00    +0.000 S 
ENDBRANCH   2   6
BRANCH   5  11
ATOM     11  N   UNL     1       6.418   7.264  16.744  0.00  0.00    +0.000 N 
ATOM     12  C   UNL     1       7.441   7.473  17.658  0.00  0.00    +0.000 C 
ATOM     13  O   UNL     1       7.870   6.643  18.459  0.00  0.00    +0.000 OA
ATOM     14  H   UNL     1       6.598   7.616  15.812  0.00  0.00    +0.000 HD
BRANCH  12  15
ATOM     15  C   UNL     1       8.116   8.834  17.501  0.00  0.00    +0.000 C 
BRANCH  15  16
ATOM     16  N   UNL     1       8.722   9.254  18.776  0.00  0.00    +0.000 NA
ATOM     17  H   UNL     1       9.634   8.787  18.824  0.00  0.00    +0.000 HD
BRANCH  16  18
ATOM     18  C   UNL     1       8.985  10.701  18.837  0.00  0.00    +0.000 C 
BRANCH  18  19
ATOM     19  C   UNL     1      10.207  11.096  19.698  0.00  0.00    +0.000 C 
BRANCH  19  20
ATOM     20  N   UNL     1      11.371  11.477  18.879  0.00  0.00    +0.000 NA
ATOM     21  C   UNL     1      12.333  12.330  19.612  0.00  0.00    +0.000 C 
ATOM     22  C   UNL     1      11.799  13.744  19.883  0.00  0.00    +0.000 C 
ATOM     23  O   UNL     1      11.483  14.406  18.653  0.00  0.00    +0.000 OA
ATOM     24  C   UNL     1      10.517  13.662  17.900  0.00  0.00    +0.000 C 
ATOM     25  C   UNL     1      10.964  12.207  17.656  0.00  0.00    +0.000 C 
ENDBRANCH  19  20
ENDBRANCH  18  19
ENDBRANCH  16  18
ENDBRANCH  15  16
ENDBRANCH  12  15
ENDBRANCH   5  11
BRANCH   1  26
ATOM     26  C   UNL     1       3.816   6.557  18.337  0.00  0.00    +0.000 C 
ATOM     27  O   UNL     1       3.402   6.271  19.456  0.00  0.00    +0.000 OA
BRANCH  26  28
ATOM     28  O   UNL     1       3.452   7.685  17.673  0.00  0.00    +0.000 OA
BRANCH  28  30
ATOM     29  C   UNL     1       2.041   9.594  17.909  0.00  0.00    +0.000 C 
ATOM     30  C   UNL     1       2.081   8.083  17.769  0.00  0.00    +0.000 C 
ENDBRANCH  28  30
ENDBRANCH  26  28
ENDBRANCH   1  26
TORSDOF 10
ENDMDL
MODEL 2
REMARK VINA RESULT:      -7.0      1.566      1.949
REMARK  Name = 
REMARK  11 active torsions:
REMARK  status: ('A' for Active; 'I' for Inactive)
REMARK    1  A    between atoms: C_1  and  C_2
REMARK    2  A    between atoms: C_2  and  O_3
REMARK    3  A    between atoms: O_3  and  C_4
REMARK    4  A    between atoms: C_4  and  C_6
REMARK    5  A    between atoms: C_7  and  C_8
REMARK    6  A    between atoms: C_15  and  N_16
REMARK    7  A    between atoms: C_17  and  C_19
REMARK    8  A    between atoms: C_19  and  N_20
REMARK    9  A    between atoms: N_20  and  C_21
REMARK   10  A    between atoms: C_21  and  C_22
REMARK   11  A    between atoms: C_22  and  N_23
REMARK                            x       y       z     vdW  Elec       q    Type
REMARK                         _______ _______ _______ _____ _____    ______ ____
ROOT
ATOM      1  C   UNL     1       4.943   5.688  17.458  0.00  0.00    +0.000 A 
ATOM      2  C   UNL     1       4.743   4.298  17.109  0.00  0.00    +0.000 A 
ATOM      3  C   UNL     1       5.666   3.860  16.176  0.00  0.00    +0.000 A 
ATOM      4  S   UNL     1       6.761   5.087  15.718  0.00  0.00    +0.000 S 
ATOM      5  C   UNL     1       6.084   6.165  16.837  0.00  0.00    +0.000 A 
ENDROOT
BRANCH   2   6
ATOM      6  C   UNL     1       3.639   3.414  17.620  0.00  0.00    +0.000 A 
ATOM      7  C   UNL     1       3.828   2.317  18.436  0.00  0.00    +0.000 A 
ATOM      8  C   UNL     1       2.599   1.770  18.905  0.00  0.00    +0.000 A 
ATOM      9  C   UNL     1       1.513   2.431  18.380  0.00  0.00    +0.000 A 
ATOM     10  S   UNL     1       1.980   3.653  17.278  0.00  0.00    +0.000 S 
ENDBRANCH   2   6
BRANCH   5  11
ATOM     11  N   UNL     1       6.713   7.390  16.866  0.00  0.00    +0.000 N 
ATOM     12  C   UNL     1       7.655   7.621  17.856  0.00  0.00    +0.000 C 
ATOM     13  O   UNL     1       8.065   6.790  18.667  0.00  0.00    +0.000 OA
ATOM     14  H   UNL     1       6.943   7.775  15.958  0.00  0.00    +0.000 HD
BRANCH  12  15
ATOM     15  C   UNL     1       8.274   9.014  17.782  0.00  0.00    +0.000 C 
BRANCH  15  16
ATOM     16  N   UNL     1       8.916   9.358  19.063  0.00  0.00    +0.000 NA
ATOM     17  H   UNL     1       9.654   8.659  19.207  0.00  0.00    +0.000 HD
BRANCH  16  18
ATOM     18  C   UNL     1       9.578  10.672  19.039  0.00  0.00    +0.000 C 
BRANCH  18  19
ATOM     19  C   UNL     1       9.412  11.500  20.335  0.00  0.00    +0.000 C 
BRANCH  19  20
ATOM     20  N   UNL     1      10.087  12.807  20.256  0.00  0.00    +0.000 NA
ATOM     21  C   UNL     1       9.740  13.699  21.385  0.00  0.00    +0.000 C 
ATOM     22  C   UNL     1       8.293  14.209  21.328  0.00  0.00    +0.000 C 
ATOM     23  O   UNL     1       8.063  14.935  20.116  0.00  0.00    +0.000 OA
ATOM     24  C   UNL     1       8.334  14.122  18.968  0.00  0.00    +0.000 C 
ATOM     25  C   UNL     1       9.752  13.520  19.001  0.00  0.00    +0.000 C 
ENDBRANCH  19  20
ENDBRANCH  18  19
ENDBRANCH  16  18
ENDBRANCH  15  16
ENDBRANCH  12  15
ENDBRANCH   5  11
BRANCH   1  26
ATOM     26  C   UNL     1       3.990   6.548  18.163  0.00  0.00    +0.000 C 
ATOM     27  O   UNL     1       3.612   7.628  17.720  0.00  0.00    +0.000 OA
BRANCH  26  28
ATOM     28  O   UNL     1       3.663   6.094  19.401  0.00  0.00    +0.000 OA
BRANCH  28  30
ATOM     29  C   UNL     1       1.880   5.233  20.731  0.00  0.00    +0.000 C 
ATOM     30  C   UNL     1       2.350   6.398  19.879  0.00  0.00    +0.000 C 
ENDBRANCH  28  30
ENDBRANCH  26  28
ENDBRANCH   1  26
TORSDOF 10
ENDMDL
MODEL 3
REMARK VINA RESULT:      -7.0      1.010      1.405
REMARK  Name = 
REMARK  11 active torsions:
REMARK  status: ('A' for Active; 'I' for Inactive)
REMARK    1  A    between atoms: C_1  and  C_2
REMARK    2  A    between atoms: C_2  and  O_3
REMARK    3  A    between atoms: O_3  and  C_4
REMARK    4  A    between atoms: C_4  and  C_6
REMARK    5  A    between atoms: C_7  and  C_8
REMARK    6  A    between atoms: C_15  and  N_16
REMARK    7  A    between atoms: C_17  and  C_19
REMARK    8  A    between atoms: C_19  and  N_20
REMARK    9  A    between atoms: N_20  and  C_21
REMARK   10  A    between atoms: C_21  and  C_22
REMARK   11  A    between atoms: C_22  and  N_23
REMARK                            x       y       z     vdW  Elec       q    Type
REMARK                         _______ _______ _______ _____ _____    ______ ____
ROOT
ATOM      1  C   UNL     1       4.760   5.765  17.532  0.00  0.00    +0.000 A 
ATOM      2  C   UNL     1       4.512   4.390  17.152  0.00  0.00    +0.000 A 
ATOM      3  C   UNL     1       5.387   3.957  16.173  0.00  0.00    +0.000 A 
ATOM      4  S   UNL     1       6.495   5.170  15.707  0.00  0.00    +0.000 S 
ATOM      5  C   UNL     1       5.888   6.231  16.880  0.00  0.00    +0.000 A 
ENDROOT
BRANCH   2   6
ATOM      6  C   UNL     1       3.406   3.519  17.681  0.00  0.00    +0.000 A 
ATOM      7  C   UNL     1       3.596   2.294  18.288  0.00  0.00    +0.000 A 
ATOM      8  C   UNL     1       2.393   1.770  18.844  0.00  0.00    +0.000 A 
ATOM      9  C   UNL     1       1.315   2.585  18.587  0.00  0.00    +0.000 A 
ATOM     10  S   UNL     1       1.746   3.931  17.624  0.00  0.00    +0.000 S 
ENDBRANCH   2   6
BRANCH   5  11
ATOM     11  N   UNL     1       6.548   7.440  16.919  0.00  0.00    +0.000 N 
ATOM     12  C   UNL     1       7.557   7.607  17.856  0.00  0.00    +0.000 C 
ATOM     13  O   UNL     1       7.995   6.734  18.604  0.00  0.00    +0.000 OA
ATOM     14  H   UNL     1       6.730   7.857  16.014  0.00  0.00    +0.000 HD
BRANCH  12  15
ATOM     15  C   UNL     1       8.204   8.988  17.799  0.00  0.00    +0.000 C 
BRANCH  15  16
ATOM     16  N   UNL     1       8.900   9.279  19.064  0.00  0.00    +0.000 NA
ATOM     17  H   UNL     1       9.529   8.486  19.232  0.00  0.00    +0.000 HD
BRANCH  16  18
ATOM     18  C   UNL     1       9.747  10.481  18.991  0.00  0.00    +0.000 C 
BRANCH  18  19
ATOM     19  C   UNL     1       9.002  11.769  18.573  0.00  0.00    +0.000 C 
BRANCH  19  20
ATOM     20  N   UNL     1       9.289  12.901  19.472  0.00  0.00    +0.000 NA
ATOM     21  C   UNL     1       8.332  14.018  19.310  0.00  0.00    +0.000 C 
ATOM     22  C   UNL     1       8.497  14.764  17.978  0.00  0.00    +0.000 C 
ATOM     23  O   UNL     1       9.818  15.305  17.866  0.00  0.00    +0.000 OA
ATOM     24  C   UNL     1      10.808  14.275  17.967  0.00  0.00    +0.000 C 
ATOM     25  C   UNL     1      10.652  13.441  19.253  0.00  0.00    +0.000 C 
ENDBRANCH  19  20
ENDBRANCH  18  19
ENDBRANCH  16  18
ENDBRANCH  15  16
ENDBRANCH  12  15
ENDBRANCH   5  11
BRANCH   1  26
ATOM     26  C   UNL     1       3.857   6.626  18.297  0.00  0.00    +0.000 C 
ATOM     27  O   UNL     1       3.515   6.378  19.449  0.00  0.00    +0.000 OA
BRANCH  26  28
ATOM     28  O   UNL     1       3.342   7.653  17.571  0.00  0.00    +0.000 OA
BRANCH  28  30
ATOM     29  C   UNL     1       2.031   9.618  17.911  0.00  0.00    +0.000 C 
ATOM     30  C   UNL     1       2.027   8.099  17.917  0.00  0.00    +0.000 C 
ENDBRANCH  28  30
ENDBRANCH  26  28
ENDBRANCH   1  26
TORSDOF 10
ENDMDL
MODEL 4
REMARK VINA RESULT:      -6.9      1.007      1.370
REMARK  Name = 
REMARK  11 active torsions:
REMARK  status: ('A' for Active; 'I' for Inactive)
REMARK    1  A    between atoms: C_1  and  C_2
REMARK    2  A    between atoms: C_2  and  O_3
REMARK    3  A    between atoms: O_3  and  C_4
REMARK    4  A    between atoms: C_4  and  C_6
REMARK    5  A    between atoms: C_7  and  C_8
REMARK    6  A    between atoms: C_15  and  N_16
REMARK    7  A    between atoms: C_17  and  C_19
REMARK    8  A    between atoms: C_19  and  N_20
REMARK    9  A    between atoms: N_20  and  C_21
REMARK   10  A    between atoms: C_21  and  C_22
REMARK   11  A    between atoms: C_22  and  N_23
REMARK                            x       y       z     vdW  Elec       q    Type
REMARK                         _______ _______ _______ _____ _____    ______ ____
ROOT
ATOM      1  C   UNL     1       4.968   5.670  17.420  0.00  0.00    +0.000 A 
ATOM      2  C   UNL     1       4.769   4.254  17.199  0.00  0.00    +0.000 A 
ATOM      3  C   UNL     1       5.686   3.737  16.301  0.00  0.00    +0.000 A 
ATOM      4  S   UNL     1       6.774   4.919  15.727  0.00  0.00    +0.000 S 
ATOM      5  C   UNL     1       6.103   6.092  16.750  0.00  0.00    +0.000 A 
ENDROOT
BRANCH   2   6
ATOM      6  C   UNL     1       3.671   3.417  17.795  0.00  0.00    +0.000 A 
ATOM      7  C   UNL     1       3.849   2.500  18.811  0.00  0.00    +0.000 A 
ATOM      8  C   UNL     1       2.615   1.979  19.296  0.00  0.00    +0.000 A 
ATOM      9  C   UNL     1       1.541   2.470  18.590  0.00  0.00    +0.000 A 
ATOM     10  S   UNL     1       2.031   3.495  17.312  0.00  0.00    +0.000 S 
ENDBRANCH   2   6
BRANCH   5  11
ATOM     11  N   UNL     1       6.729   7.316  16.664  0.00  0.00    +0.000 N 
ATOM     12  C   UNL     1       7.636   7.660  17.655  0.00  0.00    +0.000 C 
ATOM     13  O   UNL     1       8.019   6.925  18.566  0.00  0.00    +0.000 OA
ATOM     14  H   UNL     1       6.989   7.599  15.728  0.00  0.00    +0.000 HD
BRANCH  12  15
ATOM     15  C   UNL     1       8.255   9.039  17.448  0.00  0.00    +0.000 C 
BRANCH  15  16
ATOM     16  N   UNL     1       8.180   9.825  18.692  0.00  0.00    +0.000 NA
ATOM     17  H   UNL     1       7.561   9.302  19.322  0.00  0.00    +0.000 HD
BRANCH  16  18
ATOM     18  C   UNL     1       9.478   9.941  19.377  0.00  0.00    +0.000 C 
BRANCH  18  19
ATOM     19  C   UNL     1       9.815  11.365  19.878  0.00  0.00    +0.000 C 
BRANCH  19  20
ATOM     20  N   UNL     1      11.135  11.825  19.413  0.00  0.00    +0.000 NA
ATOM     21  C   UNL     1      11.468  13.186  19.892  0.00  0.00    +0.000 C 
ATOM     22  C   UNL     1      10.621  14.282  19.228  0.00  0.00    +0.000 C 
ATOM     23  O   UNL     1      10.802  14.266  17.808  0.00  0.00    +0.000 OA
ATOM     24  C   UNL     1      10.454  12.989  17.258  0.00  0.00    +0.000 C 
ATOM     25  C   UNL     1      11.221  11.835  17.934  0.00  0.00    +0.000 C 
ENDBRANCH  19  20
ENDBRANCH  18  19
ENDBRANCH  16  18
ENDBRANCH  15  16
ENDBRANCH  12  15
ENDBRANCH   5  11
BRANCH   1  26
ATOM     26  C   UNL     1       4.018   6.587  18.054  0.00  0.00    +0.000 C 
ATOM     27  O   UNL     1       3.677   7.650  17.544  0.00  0.00    +0.000 OA
BRANCH  26  28
ATOM     28  O   UNL     1       3.649   6.208  19.305  0.00  0.00    +0.000 OA
BRANCH  28  30
ATOM     29  C   UNL     1       1.807   5.451  20.618  0.00  0.00    +0.000 C 
ATOM     30  C   UNL     1       2.332   6.566  19.731  0.00  0.00    +0.000 C 
ENDBRANCH  28  30
ENDBRANCH  26  28
ENDBRANCH   1  26
TORSDOF 10
ENDMDL
MODEL 5
REMARK VINA RESULT:      -6.8      4.320      7.354
REMARK  Name = 
REMARK  11 active torsions:
REMARK  status: ('A' for Active; 'I' for Inactive)
REMARK    1  A    between atoms: C_1  and  C_2
REMARK    2  A    between atoms: C_2  and  O_3
REMARK    3  A    between atoms: O_3  and  C_4
REMARK    4  A    between atoms: C_4  and  C_6
REMARK    5  A    between atoms: C_7  and  C_8
REMARK    6  A    between atoms: C_15  and  N_16
REMARK    7  A    between atoms: C_17  and  C_19
REMARK    8  A    between atoms: C_19  and  N_20
REMARK    9  A    between atoms: N_20  and  C_21
REMARK   10  A    between atoms: C_21  and  C_22
REMARK   11  A    between atoms: C_22  and  N_23
REMARK                            x       y       z     vdW  Elec       q    Type
REMARK                         _______ _______ _______ _____ _____    ______ ____
ROOT
ATOM      1  C   UNL     1       1.432   8.527  19.949  0.00  0.00    +0.000 A 
ATOM      2  C   UNL     1       1.314   9.528  18.910  0.00  0.00    +0.000 A 
ATOM      3  C   UNL     1       2.022   9.179  17.774  0.00  0.00    +0.000 A 
ATOM      4  S   UNL     1       2.820   7.679  17.937  0.00  0.00    +0.000 S 
ATOM      5  C   UNL     1       2.137   7.438  19.470  0.00  0.00    +0.000 A 
ENDROOT
BRANCH   2   6
ATOM      6  C   UNL     1       0.577  10.834  19.026  0.00  0.00    +0.000 A 
ATOM      7  C   UNL     1      -0.763  11.006  18.747  0.00  0.00    +0.000 A 
ATOM      8  C   UNL     1      -1.231  12.302  19.108  0.00  0.00    +0.000 A 
ATOM      9  C   UNL     1      -0.217  13.095  19.593  0.00  0.00    +0.000 A 
ATOM     10  S   UNL     1       1.296  12.299  19.544  0.00  0.00    +0.000 S 
ENDBRANCH   2   6
BRANCH   5  11
ATOM     11  N   UNL     1       2.490   6.236  20.043  0.00  0.00    +0.000 N 
ATOM     12  C   UNL     1       2.137   5.068  19.386  0.00  0.00    +0.000 C 
ATOM     13  O   UNL     1       1.617   4.998  18.272  0.00  0.00    +0.000 OA
ATOM     14  H   UNL     1       3.403   6.222  20.481  0.00  0.00    +0.000 HD
BRANCH  12  15
ATOM     15  C   UNL     1       2.580   3.807  20.124  0.00  0.00    +0.000 C 
BRANCH  15  16
ATOM     16  N   UNL     1       4.026   3.858  20.400  0.00  0.00    +0.000 NA
ATOM     17  H   UNL     1       4.265   2.956  20.829  0.00  0.00    +0.000 HD
BRANCH  16  18
ATOM     18  C   UNL     1       4.840   3.972  19.179  0.00  0.00    +0.000 C 
BRANCH  18  19
ATOM     19  C   UNL     1       5.656   5.281  19.070  0.00  0.00    +0.000 C 
BRANCH  19  20
ATOM     20  N   UNL     1       7.055   5.040  18.675  0.00  0.00    +0.000 NA
ATOM     21  C   UNL     1       7.879   6.269  18.709  0.00  0.00    +0.000 C 
ATOM     22  C   UNL     1       7.519   7.266  17.598  0.00  0.00    +0.000 C 
ATOM     23  O   UNL     1       7.689   6.666  16.309  0.00  0.00    +0.000 OA
ATOM     24  C   UNL     1       6.883   5.488  16.179  0.00  0.00    +0.000 C 
ATOM     25  C   UNL     1       7.147   4.474  17.309  0.00  0.00    +0.000 C 
ENDBRANCH  19  20
ENDBRANCH  18  19
ENDBRANCH  16  18
ENDBRANCH  15  16
ENDBRANCH  12  15
ENDBRANCH   5  11
BRANCH   1  26
ATOM     26  C   UNL     1       1.078   8.701  21.359  0.00  0.00    +0.000 C 
ATOM     27  O   UNL     1       1.892   8.587  22.270  0.00  0.00    +0.000 OA
BRANCH  26  28
ATOM     28  O   UNL     1      -0.253   8.879  21.567  0.00  0.00    +0.000 OA
BRANCH  28  30
ATOM     29  C   UNL     1      -0.803  10.945  22.625  0.00  0.00    +0.000 C 
ATOM     30  C   UNL     1      -0.646   9.448  22.819  0.00  0.00    +0.000 C 
ENDBRANCH  28  30
ENDBRANCH  26  28
ENDBRANCH   1  26
TORSDOF 10
ENDMDL
MODEL 6
REMARK VINA RESULT:      -6.8      1.159      1.537
REMARK  Name = 
REMARK  11 active torsions:
REMARK  status: ('A' for Active; 'I' for Inactive)
REMARK    1  A    between atoms: C_1  and  C_2
REMARK    2  A    between atoms: C_2  and  O_3
REMARK    3  A    between atoms: O_3  and  C_4
REMARK    4  A    between atoms: C_4  and  C_6
REMARK    5  A    between atoms: C_7  and  C_8
REMARK    6  A    between atoms: C_15  and  N_16
REMARK    7  A    between atoms: C_17  and  C_19
REMARK    8  A    between atoms: C_19  and  N_20
REMARK    9  A    between atoms: N_20  and  C_21
REMARK   10  A    between atoms: C_21  and  C_22
REMARK   11  A    between atoms: C_22  and  N_23
REMARK                            x       y       z     vdW  Elec       q    Type
REMARK                         _______ _______ _______ _____ _____    ______ ____
ROOT
ATOM      1  C   UNL     1       4.921   5.838  17.636  0.00  0.00    +0.000 A 
ATOM      2  C   UNL     1       4.736   4.416  17.443  0.00  0.00    +0.000 A 
ATOM      3  C   UNL     1       5.680   3.882  16.584  0.00  0.00    +0.000 A 
ATOM      4  S   UNL     1       6.777   5.058  16.012  0.00  0.00    +0.000 S 
ATOM      5  C   UNL     1       6.071   6.250  16.987  0.00  0.00    +0.000 A 
ENDROOT
BRANCH   2   6
ATOM      6  C   UNL     1       3.627   3.586  18.030  0.00  0.00    +0.000 A 
ATOM      7  C   UNL     1       2.322   3.591  17.581  0.00  0.00    +0.000 A 
ATOM      8  C   UNL     1       1.529   2.585  18.204  0.00  0.00    +0.000 A 
ATOM      9  C   UNL     1       2.240   1.889  19.154  0.00  0.00    +0.000 A 
ATOM     10  S   UNL     1       3.829   2.496  19.334  0.00  0.00    +0.000 S 
ENDBRANCH   2   6
BRANCH   5  11
ATOM     11  N   UNL     1       6.692   7.476  16.889  0.00  0.00    +0.000 N 
ATOM     12  C   UNL     1       7.711   7.769  17.784  0.00  0.00    +0.000 C 
ATOM     13  O   UNL     1       8.190   6.990  18.608  0.00  0.00    +0.000 OA
ATOM     14  H   UNL     1       6.845   7.804  15.944  0.00  0.00    +0.000 HD
BRANCH  12  15
ATOM     15  C   UNL     1       8.312   9.156  17.574  0.00  0.00    +0.000 C 
BRANCH  15  16
ATOM     16  N   UNL     1       8.604   9.789  18.872  0.00  0.00    +0.000 NA
ATOM     17  H   UNL     1       8.562   9.037  19.570  0.00  0.00    +0.000 HD
BRANCH  16  18
ATOM     18  C   UNL     1       9.961  10.354  18.943  0.00  0.00    +0.000 C 
BRANCH  18  19
ATOM     19  C   UNL     1      10.215  11.539  17.982  0.00  0.00    +0.000 C 
BRANCH  19  20
ATOM     20  N   UNL     1      11.589  12.062  18.087  0.00  0.00    +0.000 NA
ATOM     21  C   UNL     1      11.907  12.569  19.440  0.00  0.00    +0.000 C 
ATOM     22  C   UNL     1      11.164  13.869  19.786  0.00  0.00    +0.000 C 
ATOM     23  O   UNL     1      11.492  14.900  18.849  0.00  0.00    +0.000 OA
ATOM     24  C   UNL     1      11.169  14.502  17.510  0.00  0.00    +0.000 C 
ATOM     25  C   UNL     1      11.829  13.163  17.126  0.00  0.00    +0.000 C 
ENDBRANCH  19  20
ENDBRANCH  18  19
ENDBRANCH  16  18
ENDBRANCH  15  16
ENDBRANCH  12  15
ENDBRANCH   5  11
BRANCH   1  26
ATOM     26  C   UNL     1       3.949   6.764  18.221  0.00  0.00    +0.000 C 
ATOM     27  O   UNL     1       3.725   7.877  17.755  0.00  0.00    +0.000 OA
BRANCH  26  28
ATOM     28  O   UNL     1       3.413   6.323  19.389  0.00  0.00    +0.000 OA
BRANCH  28  30
ATOM     29  C   UNL     1       1.492   6.066  20.779  0.00  0.00    +0.000 C 
ATOM     30  C   UNL     1       2.262   7.016  19.879  0.00  0.00    +0.000 C 
ENDBRANCH  28  30
ENDBRANCH  26  28
ENDBRANCH   1  26
TORSDOF 10
ENDMDL
MODEL 7
REMARK VINA RESULT:      -6.7      5.234      7.929
REMARK  Name = 
REMARK  11 active torsions:
REMARK  status: ('A' for Active; 'I' for Inactive)
REMARK    1  A    between atoms: C_1  and  C_2
REMARK    2  A    between atoms: C_2  and  O_3
REMARK    3  A    between atoms: O_3  and  C_4
REMARK    4  A    between atoms: C_4  and  C_6
REMARK    5  A    between atoms: C_7  and  C_8
REMARK    6  A    between atoms: C_15  and  N_16
REMARK    7  A    between atoms: C_17  and  C_19
REMARK    8  A    between atoms: C_19  and  N_20
REMARK    9  A    between atoms: N_20  and  C_21
REMARK   10  A    between atoms: C_21  and  C_22
REMARK   11  A    between atoms: C_22  and  N_23
REMARK                            x       y       z     vdW  Elec       q    Type
REMARK                         _______ _______ _______ _____ _____    ______ ____
ROOT
ATOM      1  C   UNL     1       1.203   8.318  19.866  0.00  0.00    +0.000 A 
ATOM      2  C   UNL     1       1.060   9.307  18.819  0.00  0.00    +0.000 A 
ATOM      3  C   UNL     1       2.018   9.158  17.832  0.00  0.00    +0.000 A 
ATOM      4  S   UNL     1       3.077   7.855  18.144  0.00  0.00    +0.000 S 
ATOM      5  C   UNL     1       2.199   7.420  19.527  0.00  0.00    +0.000 A 
ENDROOT
BRANCH   2   6
ATOM      6  C   UNL     1       0.052  10.423  18.796  0.00  0.00    +0.000 A 
ATOM      7  C   UNL     1      -1.240  10.302  18.328  0.00  0.00    +0.000 A 
ATOM      8  C   UNL     1      -2.022  11.465  18.584  0.00  0.00    +0.000 A 
ATOM      9  C   UNL     1      -1.281  12.457  19.182  0.00  0.00    +0.000 A 
ATOM     10  S   UNL     1       0.359  12.007  19.366  0.00  0.00    +0.000 S 
ENDBRANCH   2   6
BRANCH   5  11
ATOM     11  N   UNL     1       2.694   6.300  20.158  0.00  0.00    +0.000 N 
ATOM     12  C   UNL     1       2.020   5.100  19.988  0.00  0.00    +0.000 C 
ATOM     13  O   UNL     1       1.065   4.912  19.236  0.00  0.00    +0.000 OA
ATOM     14  H   UNL     1       3.704   6.227  20.172  0.00  0.00    +0.000 HD
BRANCH  12  15
ATOM     15  C   UNL     1       2.664   3.940  20.742  0.00  0.00    +0.000 C 
BRANCH  15  16
ATOM     16  N   UNL     1       2.765   2.757  19.870  0.00  0.00    +0.000 NA
ATOM     17  H   UNL     1       1.818   2.586  19.512  0.00  0.00    +0.000 HD
BRANCH  16  18
ATOM     18  C   UNL     1       3.625   2.980  18.696  0.00  0.00    +0.000 C 
BRANCH  18  19
ATOM     19  C   UNL     1       5.012   3.582  19.019  0.00  0.00    +0.000 C 
BRANCH  19  20
ATOM     20  N   UNL     1       5.220   4.891  18.374  0.00  0.00    +0.000 NA
ATOM     21  C   UNL     1       5.038   4.840  16.906  0.00  0.00    +0.000 C 
ATOM     22  C   UNL     1       6.158   4.075  16.187  0.00  0.00    +0.000 C 
ATOM     23  O   UNL     1       7.428   4.682  16.445  0.00  0.00    +0.000 OA
ATOM     24  C   UNL     1       7.702   4.727  17.852  0.00  0.00    +0.000 C 
ATOM     25  C   UNL     1       6.576   5.423  18.641  0.00  0.00    +0.000 C 
ENDBRANCH  19  20
ENDBRANCH  18  19
ENDBRANCH  16  18
ENDBRANCH  15  16
ENDBRANCH  12  15
ENDBRANCH   5  11
BRANCH   1  26
ATOM     26  C   UNL     1       0.573   8.362  21.187  0.00  0.00    +0.000 C 
ATOM     27  O   UNL     1      -0.392   7.667  21.490  0.00  0.00    +0.000 OA
BRANCH  26  28
ATOM     28  O   UNL     1       1.080   9.327  21.998  0.00  0.00    +0.000 OA
BRANCH  28  30
ATOM     29  C   UNL     1      -0.669  10.738  22.801  0.00  0.00    +0.000 C 
ATOM     30  C   UNL     1       0.327   9.653  23.170  0.00  0.00    +0.000 C 
ENDBRANCH  28  30
ENDBRANCH  26  28
ENDBRANCH   1  26
TORSDOF 10
ENDMDL
MODEL 8
REMARK VINA RESULT:      -6.6      6.622     10.400
REMARK  Name = 
REMARK  11 active torsions:
REMARK  status: ('A' for Active; 'I' for Inactive)
REMARK    1  A    between atoms: C_1  and  C_2
REMARK    2  A    between atoms: C_2  and  O_3
REMARK    3  A    between atoms: O_3  and  C_4
REMARK    4  A    between atoms: C_4  and  C_6
REMARK    5  A    between atoms: C_7  and  C_8
REMARK    6  A    between atoms: C_15  and  N_16
REMARK    7  A    between atoms: C_17  and  C_19
REMARK    8  A    between atoms: C_19  and  N_20
REMARK    9  A    between atoms: N_20  and  C_21
REMARK   10  A    between atoms: C_21  and  C_22
REMARK   11  A    between atoms: C_22  and  N_23
REMARK                            x       y       z     vdW  Elec       q    Type
REMARK                         _______ _______ _______ _____ _____    ______ ____
ROOT
ATOM      1  C   UNL     1      -2.521  11.583  18.368  0.00  0.00    +0.000 A 
ATOM      2  C   UNL     1      -3.495  12.298  19.165  0.00  0.00    +0.000 A 
ATOM      3  C   UNL     1      -2.894  13.089  20.129  0.00  0.00    +0.000 A 
ATOM      4  S   UNL     1      -1.191  12.985  20.088  0.00  0.00    +0.000 S 
ATOM      5  C   UNL     1      -1.245  11.980  18.724  0.00  0.00    +0.000 A 
ENDROOT
BRANCH   2   6
ATOM      6  C   UNL     1      -4.989  12.179  19.044  0.00  0.00    +0.000 A 
ATOM      7  C   UNL     1      -5.678  12.145  17.850  0.00  0.00    +0.000 A 
ATOM      8  C   UNL     1      -7.061  11.854  18.028  0.00  0.00    +0.000 A 
ATOM      9  C   UNL     1      -7.392  11.738  19.358  0.00  0.00    +0.000 A 
ATOM     10  S   UNL     1      -6.053  12.047  20.378  0.00  0.00    +0.000 S 
ENDBRANCH   2   6
BRANCH   5  11
ATOM     11  N   UNL     1       0.001  11.628  18.255  0.00  0.00    +0.000 N 
ATOM     12  C   UNL     1       0.655  10.567  18.863  0.00  0.00    +0.000 C 
ATOM     13  O   UNL     1       0.183   9.833  19.731  0.00  0.00    +0.000 OA
ATOM     14  H   UNL     1       0.111  11.678  17.249  0.00  0.00    +0.000 HD
BRANCH  12  15
ATOM     15  C   UNL     1       2.026  10.281  18.256  0.00  0.00    +0.000 C 
BRANCH  15  16
ATOM     16  N   UNL     1       1.970   9.075  17.412  0.00  0.00    +0.000 NA
ATOM     17  H   UNL     1       2.286   9.366  16.479  0.00  0.00    +0.000 HD
BRANCH  16  18
ATOM     18  C   UNL     1       2.891   8.017  17.858  0.00  0.00    +0.000 C 
BRANCH  18  19
ATOM     19  C   UNL     1       2.312   7.074  18.938  0.00  0.00    +0.000 C 
BRANCH  19  20
ATOM     20  N   UNL     1       3.120   5.854  19.110  0.00  0.00    +0.000 NA
ATOM     21  C   UNL     1       3.013   4.929  17.959  0.00  0.00    +0.000 C 
ATOM     22  C   UNL     1       1.638   4.253  17.856  0.00  0.00    +0.000 C 
ATOM     23  O   UNL     1       1.357   3.503  19.043  0.00  0.00    +0.000 OA
ATOM     24  C   UNL     1       1.396   4.341  20.205  0.00  0.00    +0.000 C 
ATOM     25  C   UNL     1       2.729   5.105  20.327  0.00  0.00    +0.000 C 
ENDBRANCH  19  20
ENDBRANCH  18  19
ENDBRANCH  16  18
ENDBRANCH  15  16
ENDBRANCH  12  15
ENDBRANCH   5  11
BRANCH   1  26
ATOM     26  C   UNL     1      -2.796  10.449  17.483  0.00  0.00    +0.000 C 
ATOM     27  O   UNL     1      -3.347   9.423  17.866  0.00  0.00    +0.000 OA
BRANCH  26  28
ATOM     28  O   UNL     1      -2.274  10.595  16.237  0.00  0.00    +0.000 OA
BRANCH  28  30
ATOM     29  C   UNL     1      -3.041   9.876  14.095  0.00  0.00    +0.000 C 
ATOM     30  C   UNL     1      -3.186  10.923  15.185  0.00  0.00    +0.000 C 
ENDBRANCH  28  30
ENDBRANCH  26  28
ENDBRANCH   1  26
TORSDOF 10
ENDMDL
MODEL 9
REMARK VINA RESULT:      -6.5      0.960      1.381
REMARK  Name = 
REMARK  11 active torsions:
REMARK  status: ('A' for Active; 'I' for Inactive)
REMARK    1  A    between atoms: C_1  and  C_2
REMARK    2  A    between atoms: C_2  and  O_3
REMARK    3  A    between atoms: O_3  and  C_4
REMARK    4  A    between atoms: C_4  and  C_6
REMARK    5  A    between atoms: C_7  and  C_8
REMARK    6  A    between atoms: C_15  and  N_16
REMARK    7  A    between atoms: C_17  and  C_19
REMARK    8  A    between atoms: C_19  and  N_20
REMARK    9  A    between atoms: N_20  and  C_21
REMARK   10  A    between atoms: C_21  and  C_22
REMARK   11  A    between atoms: C_22  and  N_23
REMARK                            x       y       z     vdW  Elec       q    Type
REMARK                         _______ _______ _______ _____ _____    ______ ____
ROOT
ATOM      1  C   UNL     1       4.261   5.618  18.212  0.00  0.00    +0.000 A 
ATOM      2  C   UNL     1       4.018   4.192  18.250  0.00  0.00    +0.000 A 
ATOM      3  C   UNL     1       4.925   3.492  17.475  0.00  0.00    +0.000 A 
ATOM      4  S   UNL     1       6.056   4.516  16.710  0.00  0.00    +0.000 S 
ATOM      5  C   UNL     1       5.414   5.875  17.493  0.00  0.00    +0.000 A 
ENDROOT
BRANCH   2   6
ATOM      6  C   UNL     1       2.889   3.512  18.974  0.00  0.00    +0.000 A 
ATOM      7  C   UNL     1       2.979   2.983  20.246  0.00  0.00    +0.000 A 
ATOM      8  C   UNL     1       1.716   2.556  20.747  0.00  0.00    +0.000 A 
ATOM      9  C   UNL     1       0.715   2.716  19.817  0.00  0.00    +0.000 A 
ATOM     10  S   UNL     1       1.316   3.312  18.330  0.00  0.00    +0.000 S 
ENDBRANCH   2   6
BRANCH   5  11
ATOM     11  N   UNL     1       6.080   7.043  17.194  0.00  0.00    +0.000 N 
ATOM     12  C   UNL     1       7.247   7.329  17.886  0.00  0.00    +0.000 C 
ATOM     13  O   UNL     1       7.811   6.581  18.685  0.00  0.00    +0.000 OA
ATOM     14  H   UNL     1       6.093   7.290  16.212  0.00  0.00    +0.000 HD
BRANCH  12  15
ATOM     15  C   UNL     1       7.885   8.651  17.467  0.00  0.00    +0.000 C 
BRANCH  15  16
ATOM     16  N   UNL     1       8.704   9.194  18.564  0.00  0.00    +0.000 NA
ATOM     17  H   UNL     1       9.448   8.506  18.730  0.00  0.00    +0.000 HD
BRANCH  16  18
ATOM     18  C   UNL     1       9.371  10.459  18.212  0.00  0.00    +0.000 C 
BRANCH  18  19
ATOM     19  C   UNL     1       9.801  11.318  19.423  0.00  0.00    +0.000 C 
BRANCH  19  20
ATOM     20  N   UNL     1       9.717  12.762  19.145  0.00  0.00    +0.000 NA
ATOM     21  C   UNL     1      10.021  13.092  17.734  0.00  0.00    +0.000 C 
ATOM     22  C   UNL     1      11.502  12.898  17.376  0.00  0.00    +0.000 C 
ATOM     23  O   UNL     1      12.331  13.723  18.202  0.00  0.00    +0.000 OA
ATOM     24  C   UNL     1      12.129  13.431  19.590  0.00  0.00    +0.000 C 
ATOM     25  C   UNL     1      10.646  13.539  19.998  0.00  0.00    +0.000 C 
ENDBRANCH  19  20
ENDBRANCH  18  19
ENDBRANCH  16  18
ENDBRANCH  15  16
ENDBRANCH  12  15
ENDBRANCH   5  11
BRANCH   1  26
ATOM     26  C   UNL     1       3.336   6.664  18.654  0.00  0.00    +0.000 C 
ATOM     27  O   UNL     1       2.674   6.577  19.683  0.00  0.00    +0.000 OA
BRANCH  26  28
ATOM     28  O   UNL     1       3.193   7.676  17.759  0.00  0.00    +0.000 OA
BRANCH  28  30
ATOM     29  C   UNL     1       2.030   9.718  18.167  0.00  0.00    +0.000 C 
ATOM     30  C   UNL     1       1.904   8.289  17.671  0.00  0.00    +0.000 C 
ENDBRANCH  28  30
ENDBRANCH  26  28
ENDBRANCH   1  26
TORSDOF 10
ENDMDL
