MODEL 1
REMARK VINA RESULT:      -8.1      0.000      0.000
REMARK  Name = 
REMARK  6 active torsions:
REMARK  status: ('A' for Active; 'I' for Inactive)
REMARK    1  A    between atoms: N_2  and  C_4
REMARK    2  A    between atoms: C_11  and  C_12
REMARK    3  A    between atoms: C_12  and  C_15
REMARK    4  A    between atoms: N_19  and  C_20
REMARK    5  A    between atoms: C_20  and  C_21
REMARK    6  A    between atoms: C_21  and  C_22
REMARK                            x       y       z     vdW  Elec       q    Type
REMARK                         _______ _______ _______ _____ _____    ______ ____
ROOT
ATOM      1  C   UNL     1       5.687   4.935  15.744  0.00  0.00    +0.000 A 
ATOM      2  C   UNL     1       5.565   6.241  16.254  0.00  0.00    +0.000 A 
ATOM      3  C   UNL     1       4.712   6.516  17.328  0.00  0.00    +0.000 A 
ATOM      4  C   UNL     1       3.983   5.442  17.868  0.00  0.00    +0.000 A 
ATOM      5  C   UNL     1       4.101   4.150  17.379  0.00  0.00    +0.000 A 
ATOM      6  C   UNL     1       4.953   3.870  16.300  0.00  0.00    +0.000 A 
ATOM      7  N   UNL     1       3.299   3.291  18.080  0.00  0.00    +0.000 NA
ATOM      8  C   UNL     1       2.642   4.020  18.964  0.00  0.00    +0.000 A 
ATOM      9  N   UNL     1       3.059   5.344  18.894  0.00  0.00    +0.000 N 
ENDROOT
BRANCH   1  11
ATOM     10  O   UNL     1       7.633   5.340  14.555  0.00  0.00    +0.000 OA
ATOM     11  N   UNL     1       6.590   4.668  14.621  0.00  0.00    +0.000 N 
ATOM     12  O   UNL     1       6.262   3.789  13.813  0.00  0.00    +0.000 OA
ENDBRANCH   1  11
BRANCH   8  13
ATOM     13  C   UNL     1       1.610   3.508  19.934  0.00  0.00    +0.000 C 
ATOM     14  F   UNL     1       0.581   4.412  20.027  0.00  0.00    +0.000 F 
ATOM     15  F   UNL     1       1.018   2.383  19.417  0.00  0.00    +0.000 F 
BRANCH  13  16
ATOM     16  C   UNL     1       2.149   3.170  21.339  0.00  0.00    +0.000 C 
ATOM     17  F   UNL     1       3.250   2.385  21.355  0.00  0.00    +0.000 F 
ATOM     18  F   UNL     1       2.438   4.283  22.058  0.00  0.00    +0.000 F 
ATOM     19  F   UNL     1       1.205   2.497  22.063  0.00  0.00    +0.000 F 
ENDBRANCH  13  16
ENDBRANCH   8  13
BRANCH   9  20
ATOM     20  C   UNL     1       2.570   6.469  19.676  0.00  0.00    +0.000 C 
BRANCH  20  21
ATOM     21  C   UNL     1       2.136   7.700  18.877  0.00  0.00    +0.000 C 
BRANCH  21  22
ATOM     22  C   UNL     1       1.415   8.775  19.681  0.00  0.00    +0.000 C 
ATOM     23 CL   UNL     1       1.182   8.288  21.373  0.00  0.00    +0.000 Cl
ENDBRANCH  21  22
ENDBRANCH  20  21
ENDBRANCH   9  20
TORSDOF 6
ENDMDL
MODEL 2
REMARK VINA RESULT:      -8.1      1.294      2.112
REMARK  Name = 
REMARK  6 active torsions:
REMARK  status: ('A' for Active; 'I' for Inactive)
REMARK    1  A    between atoms: N_2  and  C_4
REMARK    2  A    between atoms: C_11  and  C_12
REMARK    3  A    between atoms: C_12  and  C_15
REMARK    4  A    between atoms: N_19  and  C_20
REMARK    5  A    between atoms: C_20  and  C_21
REMARK    6  A    between atoms: C_21  and  C_22
REMARK                            x       y       z     vdW  Elec       q    Type
REMARK                         _______ _______ _______ _____ _____    ______ ____
ROOT
ATOM      1  C   UNL     1       6.408   4.947  15.239  0.00  0.00    +0.000 A 
ATOM      2  C   UNL     1       6.458   6.054  16.107  0.00  0.00    +0.000 A 
ATOM      3  C   UNL     1       5.715   6.073  17.291  0.00  0.00    +0.000 A 
ATOM      4  C   UNL     1       4.917   4.950  17.574  0.00  0.00    +0.000 A 
ATOM      5  C   UNL     1       4.866   3.850  16.731  0.00  0.00    +0.000 A 
ATOM      6  C   UNL     1       5.608   3.829  15.540  0.00  0.00    +0.000 A 
ATOM      7  N   UNL     1       4.030   2.891  17.234  0.00  0.00    +0.000 NA
ATOM      8  C   UNL     1       3.515   3.382  18.346  0.00  0.00    +0.000 A 
ATOM      9  N   UNL     1       4.061   4.632  18.614  0.00  0.00    +0.000 N 
ENDROOT
BRANCH   1  11
ATOM     10  O   UNL     1       6.816   4.210  13.082  0.00  0.00    +0.000 OA
ATOM     11  N   UNL     1       7.199   4.948  14.005  0.00  0.00    +0.000 N 
ATOM     12  O   UNL     1       8.192   5.685  13.957  0.00  0.00    +0.000 OA
ENDBRANCH   1  11
BRANCH   8  13
ATOM     13  C   UNL     1       2.504   2.695  19.227  0.00  0.00    +0.000 C 
ATOM     14  F   UNL     1       2.595   1.336  19.054  0.00  0.00    +0.000 F 
ATOM     15  F   UNL     1       2.844   2.886  20.543  0.00  0.00    +0.000 F 
BRANCH  13  16
ATOM     16  C   UNL     1       1.046   3.160  19.030  0.00  0.00    +0.000 C 
ATOM     17  F   UNL     1       0.460   3.683  20.130  0.00  0.00    +0.000 F 
ATOM     18  F   UNL     1       0.933   4.079  18.039  0.00  0.00    +0.000 F 
ATOM     19  F   UNL     1       0.258   2.110  18.654  0.00  0.00    +0.000 F 
ENDBRANCH  13  16
ENDBRANCH   8  13
BRANCH   9  20
ATOM     20  C   UNL     1       3.747   5.516  19.725  0.00  0.00    +0.000 C 
BRANCH  20  21
ATOM     21  C   UNL     1       2.622   6.524  19.480  0.00  0.00    +0.000 C 
BRANCH  21  22
ATOM     22  C   UNL     1       1.628   6.681  20.625  0.00  0.00    +0.000 C 
ATOM     23 CL   UNL     1       1.409   8.384  21.077  0.00  0.00    +0.000 Cl
ENDBRANCH  21  22
ENDBRANCH  20  21
ENDBRANCH   9  20
TORSDOF 6
ENDMDL
MODEL 3
REMARK VINA RESULT:      -8.0      1.405      2.060
REMARK  Name = 
REMARK  6 active torsions:
REMARK  status: ('A' for Active; 'I' for Inactive)
REMARK    1  A    between atoms: N_2  and  C_4
REMARK    2  A    between atoms: C_11  and  C_12
REMARK    3  A    between atoms: C_12  and  C_15
REMARK    4  A    between atoms: N_19  and  C_20
REMARK    5  A    between atoms: C_20  and  C_21
REMARK    6  A    between atoms: C_21  and  C_22
REMARK                            x       y       z     vdW  Elec       q    Type
REMARK                         _______ _______ _______ _____ _____    ______ ____
ROOT
ATOM      1  C   UNL     1       6.197   4.998  14.959  0.00  0.00    +0.000 A 
ATOM      2  C   UNL     1       5.990   6.283  15.496  0.00  0.00    +0.000 A 
ATOM      3  C   UNL     1       5.200   6.467  16.635  0.00  0.00    +0.000 A 
ATOM      4  C   UNL     1       4.620   5.325  17.213  0.00  0.00    +0.000 A 
ATOM      5  C   UNL     1       4.822   4.053  16.698  0.00  0.00    +0.000 A 
ATOM      6  C   UNL     1       5.612   3.864  15.554  0.00  0.00    +0.000 A 
ATOM      7  N   UNL     1       4.162   3.116  17.445  0.00  0.00    +0.000 NA
ATOM      8  C   UNL     1       3.508   3.772  18.386  0.00  0.00    +0.000 A 
ATOM      9  N   UNL     1       3.791   5.131  18.304  0.00  0.00    +0.000 N 
ENDROOT
BRANCH   1  11
ATOM     10  O   UNL     1       8.024   5.568  13.655  0.00  0.00    +0.000 OA
ATOM     11  N   UNL     1       7.032   4.828  13.767  0.00  0.00    +0.000 N 
ATOM     12  O   UNL     1       6.703   3.955  12.953  0.00  0.00    +0.000 OA
ENDBRANCH   1  11
BRANCH   8  13
ATOM     13  C   UNL     1       2.606   3.157  19.424  0.00  0.00    +0.000 C 
ATOM     14  F   UNL     1       2.907   1.825  19.560  0.00  0.00    +0.000 F 
ATOM     15  F   UNL     1       2.898   3.692  20.654  0.00  0.00    +0.000 F 
BRANCH  13  16
ATOM     16  C   UNL     1       1.096   3.338  19.163  0.00  0.00    +0.000 C 
ATOM     17  F   UNL     1       0.427   4.012  20.125  0.00  0.00    +0.000 F 
ATOM     18  F   UNL     1       0.852   3.968  17.987  0.00  0.00    +0.000 F 
ATOM     19  F   UNL     1       0.480   2.122  19.067  0.00  0.00    +0.000 F 
ENDBRANCH  13  16
ENDBRANCH   8  13
BRANCH   9  20
ATOM     20  C   UNL     1       3.258   6.198  19.137  0.00  0.00    +0.000 C 
BRANCH  20  21
ATOM     21  C   UNL     1       2.096   6.995  18.541  0.00  0.00    +0.000 C 
BRANCH  21  22
ATOM     22  C   UNL     1       2.473   8.346  17.944  0.00  0.00    +0.000 C 
ATOM     23 CL   UNL     1       1.101   9.474  17.951  0.00  0.00    +0.000 Cl
ENDBRANCH  21  22
ENDBRANCH  20  21
ENDBRANCH   9  20
TORSDOF 6
ENDMDL
MODEL 4
REMARK VINA RESULT:      -8.0      0.223      1.001
REMARK  Name = 
REMARK  6 active torsions:
REMARK  status: ('A' for Active; 'I' for Inactive)
REMARK    1  A    between atoms: N_2  and  C_4
REMARK    2  A    between atoms: C_11  and  C_12
REMARK    3  A    between atoms: C_12  and  C_15
REMARK    4  A    between atoms: N_19  and  C_20
REMARK    5  A    between atoms: C_20  and  C_21
REMARK    6  A    between atoms: C_21  and  C_22
REMARK                            x       y       z     vdW  Elec       q    Type
REMARK                         _______ _______ _______ _____ _____    ______ ____
ROOT
ATOM      1  C   UNL     1       5.727   4.939  15.555  0.00  0.00    +0.000 A 
ATOM      2  C   UNL     1       5.666   6.231  16.112  0.00  0.00    +0.000 A 
ATOM      3  C   UNL     1       4.844   6.502  17.209  0.00  0.00    +0.000 A 
ATOM      4  C   UNL     1       4.083   5.440  17.728  0.00  0.00    +0.000 A 
ATOM      5  C   UNL     1       4.140   4.162  17.194  0.00  0.00    +0.000 A 
ATOM      6  C   UNL     1       4.961   3.886  16.090  0.00  0.00    +0.000 A 
ATOM      7  N   UNL     1       3.318   3.311  17.880  0.00  0.00    +0.000 NA
ATOM      8  C   UNL     1       2.705   4.034  18.800  0.00  0.00    +0.000 A 
ATOM      9  N   UNL     1       3.174   5.343  18.766  0.00  0.00    +0.000 N 
ENDROOT
BRANCH   1  11
ATOM     10  O   UNL     1       6.251   3.780  13.620  0.00  0.00    +0.000 OA
ATOM     11  N   UNL     1       6.599   4.676  14.407  0.00  0.00    +0.000 N 
ATOM     12  O   UNL     1       7.621   5.364  14.290  0.00  0.00    +0.000 OA
ENDBRANCH   1  11
BRANCH   8  13
ATOM     13  C   UNL     1       1.671   3.531  19.772  0.00  0.00    +0.000 C 
ATOM     14  F   UNL     1       0.691   4.480  19.930  0.00  0.00    +0.000 F 
ATOM     15  F   UNL     1       1.011   2.461  19.220  0.00  0.00    +0.000 F 
BRANCH  13  16
ATOM     16  C   UNL     1       2.224   3.102  21.147  0.00  0.00    +0.000 C 
ATOM     17  F   UNL     1       1.456   2.216  21.820  0.00  0.00    +0.000 F 
ATOM     18  F   UNL     1       3.467   2.568  21.054  0.00  0.00    +0.000 F 
ATOM     19  F   UNL     1       2.347   4.186  21.970  0.00  0.00    +0.000 F 
ENDBRANCH  13  16
ENDBRANCH   8  13
BRANCH   9  20
ATOM     20  C   UNL     1       2.743   6.459  19.595  0.00  0.00    +0.000 C 
BRANCH  20  21
ATOM     21  C   UNL     1       2.031   7.598  18.864  0.00  0.00    +0.000 C 
BRANCH  21  22
ATOM     22  C   UNL     1       1.499   8.713  19.758  0.00  0.00    +0.000 C 
ATOM     23 CL   UNL     1       1.020   8.103  21.355  0.00  0.00    +0.000 Cl
ENDBRANCH  21  22
ENDBRANCH  20  21
ENDBRANCH   9  20
TORSDOF 6
ENDMDL
MODEL 5
REMARK VINA RESULT:      -8.0      1.281      2.034
REMARK  Name = 
REMARK  6 active torsions:
REMARK  status: ('A' for Active; 'I' for Inactive)
REMARK    1  A    between atoms: N_2  and  C_4
REMARK    2  A    between atoms: C_11  and  C_12
REMARK    3  A    between atoms: C_12  and  C_15
REMARK    4  A    between atoms: N_19  and  C_20
REMARK    5  A    between atoms: C_20  and  C_21
REMARK    6  A    between atoms: C_21  and  C_22
REMARK                            x       y       z     vdW  Elec       q    Type
REMARK                         _______ _______ _______ _____ _____    ______ ____
ROOT
ATOM      1  C   UNL     1       6.407   4.940  15.234  0.00  0.00    +0.000 A 
ATOM      2  C   UNL     1       6.446   6.055  16.091  0.00  0.00    +0.000 A 
ATOM      3  C   UNL     1       5.697   6.080  17.272  0.00  0.00    +0.000 A 
ATOM      4  C   UNL     1       4.906   4.955  17.562  0.00  0.00    +0.000 A 
ATOM      5  C   UNL     1       4.866   3.847  16.729  0.00  0.00    +0.000 A 
ATOM      6  C   UNL     1       5.613   3.819  15.542  0.00  0.00    +0.000 A 
ATOM      7  N   UNL     1       4.034   2.887  17.238  0.00  0.00    +0.000 NA
ATOM      8  C   UNL     1       3.511   3.385  18.343  0.00  0.00    +0.000 A 
ATOM      9  N   UNL     1       4.048   4.641  18.601  0.00  0.00    +0.000 N 
ENDROOT
BRANCH   1  11
ATOM     10  O   UNL     1       8.206   5.666  13.968  0.00  0.00    +0.000 OA
ATOM     11  N   UNL     1       7.203   4.933  14.003  0.00  0.00    +0.000 N 
ATOM     12  O   UNL     1       6.832   4.196  13.080  0.00  0.00    +0.000 OA
ENDBRANCH   1  11
BRANCH   8  13
ATOM     13  C   UNL     1       2.501   2.699  19.226  0.00  0.00    +0.000 C 
ATOM     14  F   UNL     1       2.578   1.342  19.040  0.00  0.00    +0.000 F 
ATOM     15  F   UNL     1       2.853   2.876  20.541  0.00  0.00    +0.000 F 
BRANCH  13  16
ATOM     16  C   UNL     1       1.046   3.180  19.045  0.00  0.00    +0.000 C 
ATOM     17  F   UNL     1       0.867   4.108  18.078  0.00  0.00    +0.000 F 
ATOM     18  F   UNL     1       0.198   2.155  18.780  0.00  0.00    +0.000 F 
ATOM     19  F   UNL     1       0.587   3.753  20.197  0.00  0.00    +0.000 F 
ENDBRANCH  13  16
ENDBRANCH   8  13
BRANCH   9  20
ATOM     20  C   UNL     1       3.722   5.534  19.702  0.00  0.00    +0.000 C 
BRANCH  20  21
ATOM     21  C   UNL     1       2.641   6.579  19.418  0.00  0.00    +0.000 C 
BRANCH  21  22
ATOM     22  C   UNL     1       1.721   6.898  20.591  0.00  0.00    +0.000 C 
ATOM     23 CL   UNL     1       1.218   8.601  20.589  0.00  0.00    +0.000 Cl
ENDBRANCH  21  22
ENDBRANCH  20  21
ENDBRANCH   9  20
TORSDOF 6
ENDMDL
MODEL 6
REMARK VINA RESULT:      -8.0      5.290      6.802
REMARK  Name = 
REMARK  6 active torsions:
REMARK  status: ('A' for Active; 'I' for Inactive)
REMARK    1  A    between atoms: N_2  and  C_4
REMARK    2  A    between atoms: C_11  and  C_12
REMARK    3  A    between atoms: C_12  and  C_15
REMARK    4  A    between atoms: N_19  and  C_20
REMARK    5  A    between atoms: C_20  and  C_21
REMARK    6  A    between atoms: C_21  and  C_22
REMARK                            x       y       z     vdW  Elec       q    Type
REMARK                         _______ _______ _______ _____ _____    ______ ____
ROOT
ATOM      1  C   UNL     1       2.038   3.226  19.353  0.00  0.00    +0.000 A 
ATOM      2  C   UNL     1       1.841   3.313  17.961  0.00  0.00    +0.000 A 
ATOM      3  C   UNL     1       2.860   3.768  17.119  0.00  0.00    +0.000 A 
ATOM      4  C   UNL     1       4.078   4.138  17.716  0.00  0.00    +0.000 A 
ATOM      5  C   UNL     1       4.286   4.048  19.083  0.00  0.00    +0.000 A 
ATOM      6  C   UNL     1       3.266   3.595  19.933  0.00  0.00    +0.000 A 
ATOM      7  N   UNL     1       5.552   4.455  19.409  0.00  0.00    +0.000 NA
ATOM      8  C   UNL     1       6.126   4.846  18.286  0.00  0.00    +0.000 A 
ATOM      9  N   UNL     1       5.268   4.633  17.213  0.00  0.00    +0.000 N 
ENDROOT
BRANCH   1  11
ATOM     10  O   UNL     1       1.156   2.759  21.443  0.00  0.00    +0.000 OA
ATOM     11  N   UNL     1       0.957   2.742  20.216  0.00  0.00    +0.000 N 
ATOM     12  O   UNL     1      -0.085   2.353  19.673  0.00  0.00    +0.000 OA
ENDBRANCH   1  11
BRANCH   8  13
ATOM     13  C   UNL     1       7.515   5.414  18.159  0.00  0.00    +0.000 C 
ATOM     14  F   UNL     1       8.187   5.251  19.345  0.00  0.00    +0.000 F 
ATOM     15  F   UNL     1       8.234   4.661  17.264  0.00  0.00    +0.000 F 
BRANCH  13  16
ATOM     16  C   UNL     1       7.576   6.889  17.710  0.00  0.00    +0.000 C 
ATOM     17  F   UNL     1       8.018   7.084  16.448  0.00  0.00    +0.000 F 
ATOM     18  F   UNL     1       6.373   7.505  17.815  0.00  0.00    +0.000 F 
ATOM     19  F   UNL     1       8.426   7.596  18.513  0.00  0.00    +0.000 F 
ENDBRANCH  13  16
ENDBRANCH   8  13
BRANCH   9  20
ATOM     20  C   UNL     1       5.507   4.948  15.813  0.00  0.00    +0.000 C 
BRANCH  20  21
ATOM     21  C   UNL     1       5.978   3.785  14.937  0.00  0.00    +0.000 C 
BRANCH  21  22
ATOM     22  C   UNL     1       6.546   4.182  13.580  0.00  0.00    +0.000 C 
ATOM     23 CL   UNL     1       5.819   3.241  12.261  0.00  0.00    +0.000 Cl
ENDBRANCH  21  22
ENDBRANCH  20  21
ENDBRANCH   9  20
TORSDOF 6
ENDMDL
MODEL 7
REMARK VINA RESULT:      -7.9      0.923      1.128
REMARK  Name = 
REMARK  6 active torsions:
REMARK  status: ('A' for Active; 'I' for Inactive)
REMARK    1  A    between atoms: N_2  and  C_4
REMARK    2  A    between atoms: C_11  and  C_12
REMARK    3  A    between atoms: C_12  and  C_15
REMARK    4  A    between atoms: N_19  and  C_20
REMARK    5  A    between atoms: C_20  and  C_21
REMARK    6  A    between atoms: C_21  and  C_22
REMARK                            x       y       z     vdW  Elec       q    Type
REMARK                         _______ _______ _______ _____ _____    ______ ____
ROOT
ATOM      1  C   UNL     1       5.856   4.859  15.487  0.00  0.00    +0.000 A 
ATOM      2  C   UNL     1       5.757   6.143  16.056  0.00  0.00    +0.000 A 
ATOM      3  C   UNL     1       4.926   6.379  17.155  0.00  0.00    +0.000 A 
ATOM      4  C   UNL     1       4.194   5.290  17.661  0.00  0.00    +0.000 A 
ATOM      5  C   UNL     1       4.290   4.020  17.114  0.00  0.00    +0.000 A 
ATOM      6  C   UNL     1       5.120   3.779  16.009  0.00  0.00    +0.000 A 
ATOM      7  N   UNL     1       3.491   3.139  17.791  0.00  0.00    +0.000 NA
ATOM      8  C   UNL     1       2.857   3.835  18.717  0.00  0.00    +0.000 A 
ATOM      9  N   UNL     1       3.287   5.157  18.697  0.00  0.00    +0.000 N 
ENDROOT
BRANCH   1  11
ATOM     10  O   UNL     1       6.408   3.746  13.533  0.00  0.00    +0.000 OA
ATOM     11  N   UNL     1       6.737   4.633  14.338  0.00  0.00    +0.000 N 
ATOM     12  O   UNL     1       7.747   5.342  14.238  0.00  0.00    +0.000 OA
ENDBRANCH   1  11
BRANCH   8  13
ATOM     13  C   UNL     1       1.835   3.292  19.682  0.00  0.00    +0.000 C 
ATOM     14  F   UNL     1       0.753   4.135  19.725  0.00  0.00    +0.000 F 
ATOM     15  F   UNL     1       1.323   2.118  19.188  0.00  0.00    +0.000 F 
BRANCH  13  16
ATOM     16  C   UNL     1       2.363   3.028  21.107  0.00  0.00    +0.000 C 
ATOM     17  F   UNL     1       3.604   2.497  21.168  0.00  0.00    +0.000 F 
ATOM     18  F   UNL     1       2.370   4.153  21.865  0.00  0.00    +0.000 F 
ATOM     19  F   UNL     1       1.550   2.146  21.761  0.00  0.00    +0.000 F 
ENDBRANCH  13  16
ENDBRANCH   8  13
BRANCH   9  20
ATOM     20  C   UNL     1       2.823   6.251  19.536  0.00  0.00    +0.000 C 
BRANCH  20  21
ATOM     21  C   UNL     1       1.754   7.157  18.922  0.00  0.00    +0.000 C 
BRANCH  21  22
ATOM     22  C   UNL     1       2.278   8.426  18.261  0.00  0.00    +0.000 C 
ATOM     23 CL   UNL     1       0.974   9.590  17.944  0.00  0.00    +0.000 Cl
ENDBRANCH  21  22
ENDBRANCH  20  21
ENDBRANCH   9  20
TORSDOF 6
ENDMDL
MODEL 8
REMARK VINA RESULT:      -7.9      5.311      6.843
REMARK  Name = 
REMARK  6 active torsions:
REMARK  status: ('A' for Active; 'I' for Inactive)
REMARK    1  A    between atoms: N_2  and  C_4
REMARK    2  A    between atoms: C_11  and  C_12
REMARK    3  A    between atoms: C_12  and  C_15
REMARK    4  A    between atoms: N_19  and  C_20
REMARK    5  A    between atoms: C_20  and  C_21
REMARK    6  A    between atoms: C_21  and  C_22
REMARK                            x       y       z     vdW  Elec       q    Type
REMARK                         _______ _______ _______ _____ _____    ______ ____
ROOT
ATOM      1  C   UNL     1       2.030   3.295  19.467  0.00  0.00    +0.000 A 
ATOM      2  C   UNL     1       1.792   3.403  18.083  0.00  0.00    +0.000 A 
ATOM      3  C   UNL     1       2.789   3.860  17.217  0.00  0.00    +0.000 A 
ATOM      4  C   UNL     1       4.029   4.209  17.781  0.00  0.00    +0.000 A 
ATOM      5  C   UNL     1       4.277   4.099  19.140  0.00  0.00    +0.000 A 
ATOM      6  C   UNL     1       3.279   3.645  20.014  0.00  0.00    +0.000 A 
ATOM      7  N   UNL     1       5.556   4.489  19.433  0.00  0.00    +0.000 NA
ATOM      8  C   UNL     1       6.100   4.889  18.298  0.00  0.00    +0.000 A 
ATOM      9  N   UNL     1       5.208   4.700  17.249  0.00  0.00    +0.000 N 
ENDROOT
BRANCH   1  11
ATOM     10  O   UNL     1      -0.128   2.543  19.843  0.00  0.00    +0.000 OA
ATOM     11  N   UNL     1       0.971   2.810  20.356  0.00  0.00    +0.000 N 
ATOM     12  O   UNL     1       1.239   2.690  21.559  0.00  0.00    +0.000 OA
ENDBRANCH   1  11
BRANCH   8  13
ATOM     13  C   UNL     1       7.491   5.446  18.136  0.00  0.00    +0.000 C 
ATOM     14  F   UNL     1       8.204   5.239  19.290  0.00  0.00    +0.000 F 
ATOM     15  F   UNL     1       8.166   4.714  17.191  0.00  0.00    +0.000 F 
BRANCH  13  16
ATOM     16  C   UNL     1       7.553   6.934  17.732  0.00  0.00    +0.000 C 
ATOM     17  F   UNL     1       6.369   7.585  17.766  0.00  0.00    +0.000 F 
ATOM     18  F   UNL     1       8.421   7.636  18.501  0.00  0.00    +0.000 F 
ATOM     19  F   UNL     1       8.007   7.060  16.449  0.00  0.00    +0.000 F 
ENDBRANCH  13  16
ENDBRANCH   8  13
BRANCH   9  20
ATOM     20  C   UNL     1       5.407   5.031  15.846  0.00  0.00    +0.000 C 
BRANCH  20  21
ATOM     21  C   UNL     1       5.863   3.882  14.946  0.00  0.00    +0.000 C 
BRANCH  21  22
ATOM     22  C   UNL     1       6.636   4.298  13.700  0.00  0.00    +0.000 C 
ATOM     23 CL   UNL     1       6.106   3.397  12.265  0.00  0.00    +0.000 Cl
ENDBRANCH  21  22
ENDBRANCH  20  21
ENDBRANCH   9  20
TORSDOF 6
ENDMDL
MODEL 9
REMARK VINA RESULT:      -7.9      1.002      1.336
REMARK  Name = 
REMARK  6 active torsions:
REMARK  status: ('A' for Active; 'I' for Inactive)
REMARK    1  A    between atoms: N_2  and  C_4
REMARK    2  A    between atoms: C_11  and  C_12
REMARK    3  A    between atoms: C_12  and  C_15
REMARK    4  A    between atoms: N_19  and  C_20
REMARK    5  A    between atoms: C_20  and  C_21
REMARK    6  A    between atoms: C_21  and  C_22
REMARK                            x       y       z     vdW  Elec       q    Type
REMARK                         _______ _______ _______ _____ _____    ______ ____
ROOT
ATOM      1  C   UNL     1       5.659   5.045  15.860  0.00  0.00    +0.000 A 
ATOM      2  C   UNL     1       5.364   6.411  16.033  0.00  0.00    +0.000 A 
ATOM      3  C   UNL     1       4.512   6.838  17.055  0.00  0.00    +0.000 A 
ATOM      4  C   UNL     1       3.960   5.853  17.894  0.00  0.00    +0.000 A 
ATOM      5  C   UNL     1       4.249   4.506  17.738  0.00  0.00    +0.000 A 
ATOM      6  C   UNL     1       5.102   4.073  16.712  0.00  0.00    +0.000 A 
ATOM      7  N   UNL     1       3.599   3.758  18.682  0.00  0.00    +0.000 NA
ATOM      8  C   UNL     1       2.869   4.597  19.394  0.00  0.00    +0.000 A 
ATOM      9  N   UNL     1       3.089   5.901  18.968  0.00  0.00    +0.000 N 
ENDROOT
BRANCH   1  11
ATOM     10  O   UNL     1       7.586   5.294  14.600  0.00  0.00    +0.000 OA
ATOM     11  N   UNL     1       6.559   4.620  14.784  0.00  0.00    +0.000 N 
ATOM     12  O   UNL     1       6.244   3.616  14.133  0.00  0.00    +0.000 OA
ENDBRANCH   1  11
BRANCH   8  13
ATOM     13  C   UNL     1       1.949   4.221  20.526  0.00  0.00    +0.000 C 
ATOM     14  F   UNL     1       2.155   5.069  21.585  0.00  0.00    +0.000 F 
ATOM     15  F   UNL     1       0.650   4.462  20.154  0.00  0.00    +0.000 F 
BRANCH  13  16
ATOM     16  C   UNL     1       2.055   2.753  20.991  0.00  0.00    +0.000 C 
ATOM     17  F   UNL     1       3.295   2.357  21.353  0.00  0.00    +0.000 F 
ATOM     18  F   UNL     1       1.228   2.486  22.032  0.00  0.00    +0.000 F 
ATOM     19  F   UNL     1       1.674   1.907  19.988  0.00  0.00    +0.000 F 
ENDBRANCH  13  16
ENDBRANCH   8  13
BRANCH   9  20
ATOM     20  C   UNL     1       2.465   7.115  19.472  0.00  0.00    +0.000 C 
BRANCH  20  21
ATOM     21  C   UNL     1       1.836   8.030  18.420  0.00  0.00    +0.000 C 
BRANCH  21  22
ATOM     22  C   UNL     1       1.354   9.381  18.936  0.00  0.00    +0.000 C 
ATOM     23 CL   UNL     1      -0.084   9.945  18.061  0.00  0.00    +0.000 Cl
ENDBRANCH  21  22
ENDBRANCH  20  21
ENDBRANCH   9  20
TORSDOF 6
ENDMDL
