MODEL 1
REMARK VINA RESULT:      -8.1      0.000      0.000
REMARK  Name = 
REMARK  3 active torsions:
REMARK  status: ('A' for Active; 'I' for Inactive)
REMARK    1  A    between atoms: N_12  and  N_13
REMARK    2  A    between atoms: C_14  and  C_16
REMARK    3  A    between atoms: C_21  and  O_22
REMARK                            x       y       z     vdW  Elec       q    Type
REMARK                         _______ _______ _______ _____ _____    ______ ____
ROOT
ATOM      1  O   UNL     1       2.077   9.302  17.298  0.00  0.00    +0.000 OA
ATOM      2  C   UNL     1       1.543   9.480  18.370  0.00  0.00    +0.000 C 
ATOM      3  N   UNL     1       0.763  10.547  18.766  0.00  0.00    +0.000 N 
ATOM      4  C   UNL     1       0.327  10.380  20.075  0.00  0.00    +0.000 A 
ATOM      5  C   UNL     1      -0.471  11.241  20.799  0.00  0.00    +0.000 A 
ATOM      6  C   UNL     1      -0.788  10.863  22.107  0.00  0.00    +0.000 A 
ATOM      7 BR   UNL     1      -1.882  11.997  23.156  0.00  0.00    +0.000 Br
ATOM      8  C   UNL     1      -0.312   9.657  22.660  0.00  0.00    +0.000 A 
ATOM      9  C   UNL     1       0.497   8.797  21.910  0.00  0.00    +0.000 A 
ATOM     10  C   UNL     1       0.799   9.186  20.620  0.00  0.00    +0.000 A 
ATOM     11  C   UNL     1       1.600   8.538  19.582  0.00  0.00    +0.000 C 
ATOM     12  N   UNL     1       2.213   7.405  19.709  0.00  0.00    +0.000 NA
ATOM     13  H   UNL     1       0.554  11.327  18.162  0.00  0.00    +0.000 HD
ENDROOT
BRANCH  12  14
ATOM     14  N   UNL     1       2.916   6.944  18.628  0.00  0.00    +0.000 N 
ATOM     15  C   UNL     1       3.768   5.855  18.747  0.00  0.00    +0.000 C 
ATOM     16  O   UNL     1       3.963   5.241  19.796  0.00  0.00    +0.000 OA
ATOM     17  H   UNL     1       2.812   7.401  17.717  0.00  0.00    +0.000 HD
BRANCH  15  18
ATOM     18  C   UNL     1       4.489   5.422  17.500  0.00  0.00    +0.000 A 
ATOM     19  C   UNL     1       4.765   6.405  16.532  0.00  0.00    +0.000 A 
ATOM     20  C   UNL     1       5.427   6.081  15.344  0.00  0.00    +0.000 A 
ATOM     21  C   UNL     1       5.824   4.768  15.103  0.00  0.00    +0.000 A 
ATOM     22  C   UNL     1       5.562   3.779  16.051  0.00  0.00    +0.000 A 
ATOM     23  C   UNL     1       4.902   4.107  17.239  0.00  0.00    +0.000 A 
BRANCH  23  24
ATOM     24  O   UNL     1       4.665   3.115  18.150  0.00  0.00    +0.000 OA
ATOM     25  H   UNL     1       4.960   3.392  19.034  0.00  0.00    +0.000 HD
ENDBRANCH  23  24
ENDBRANCH  15  18
ENDBRANCH  12  14
TORSDOF 3
ENDMDL
MODEL 2
REMARK VINA RESULT:      -7.9      1.645      1.969
REMARK  Name = 
REMARK  3 active torsions:
REMARK  status: ('A' for Active; 'I' for Inactive)
REMARK    1  A    between atoms: N_12  and  N_13
REMARK    2  A    between atoms: C_14  and  C_16
REMARK    3  A    between atoms: C_21  and  O_22
REMARK                            x       y       z     vdW  Elec       q    Type
REMARK                         _______ _______ _______ _____ _____    ______ ____
ROOT
ATOM      1  O   UNL     1       1.707   9.143  18.307  0.00  0.00    +0.000 OA
ATOM      2  C   UNL     1       1.083   9.551  19.261  0.00  0.00    +0.000 C 
ATOM      3  N   UNL     1       0.322  10.697  19.353  0.00  0.00    +0.000 N 
ATOM      4  C   UNL     1      -0.245  10.812  20.618  0.00  0.00    +0.000 A 
ATOM      5  C   UNL     1      -1.066  11.825  21.069  0.00  0.00    +0.000 A 
ATOM      6  C   UNL     1      -1.523  11.729  22.387  0.00  0.00    +0.000 A 
ATOM      7 BR   UNL     1      -2.656  13.083  23.070  0.00  0.00    +0.000 Br
ATOM      8  C   UNL     1      -1.162  10.647  23.215  0.00  0.00    +0.000 A 
ATOM      9  C   UNL     1      -0.327   9.631  22.738  0.00  0.00    +0.000 A 
ATOM     10  C   UNL     1       0.115   9.740  21.435  0.00  0.00    +0.000 A 
ATOM     11  C   UNL     1       0.979   8.872  20.635  0.00  0.00    +0.000 C 
ATOM     12  N   UNL     1       1.521   7.772  21.048  0.00  0.00    +0.000 NA
ATOM     13  H   UNL     1       0.209  11.344  18.589  0.00  0.00    +0.000 HD
ENDROOT
BRANCH  12  14
ATOM     14  N   UNL     1       2.301   7.082  20.159  0.00  0.00    +0.000 N 
ATOM     15  C   UNL     1       2.146   5.713  19.992  0.00  0.00    +0.000 C 
ATOM     16  O   UNL     1       1.331   5.029  20.612  0.00  0.00    +0.000 OA
ATOM     17  H   UNL     1       3.005   7.577  19.603  0.00  0.00    +0.000 HD
BRANCH  15  18
ATOM     18  C   UNL     1       3.045   5.049  18.986  0.00  0.00    +0.000 A 
ATOM     19  C   UNL     1       4.434   5.183  19.164  0.00  0.00    +0.000 A 
ATOM     20  C   UNL     1       5.335   4.598  18.269  0.00  0.00    +0.000 A 
ATOM     21  C   UNL     1       4.862   3.872  17.179  0.00  0.00    +0.000 A 
ATOM     22  C   UNL     1       3.489   3.726  16.985  0.00  0.00    +0.000 A 
ATOM     23  C   UNL     1       2.590   4.309  17.883  0.00  0.00    +0.000 A 
BRANCH  23  24
ATOM     24  O   UNL     1       1.251   4.143  17.668  0.00  0.00    +0.000 OA
ATOM     25  H   UNL     1       1.064   4.111  16.714  0.00  0.00    +0.000 HD
ENDBRANCH  23  24
ENDBRANCH  15  18
ENDBRANCH  12  14
TORSDOF 3
ENDMDL
MODEL 3
REMARK VINA RESULT:      -7.8      1.577      2.062
REMARK  Name = 
REMARK  3 active torsions:
REMARK  status: ('A' for Active; 'I' for Inactive)
REMARK    1  A    between atoms: N_12  and  N_13
REMARK    2  A    between atoms: C_14  and  C_16
REMARK    3  A    between atoms: C_21  and  O_22
REMARK                            x       y       z     vdW  Elec       q    Type
REMARK                         _______ _______ _______ _____ _____    ______ ____
ROOT
ATOM      1  O   UNL     1       1.677   8.992  18.292  0.00  0.00    +0.000 OA
ATOM      2  C   UNL     1       1.088   9.433  19.253  0.00  0.00    +0.000 C 
ATOM      3  N   UNL     1       0.379  10.612  19.349  0.00  0.00    +0.000 N 
ATOM      4  C   UNL     1      -0.160  10.761  20.622  0.00  0.00    +0.000 A 
ATOM      5  C   UNL     1      -0.928  11.812  21.079  0.00  0.00    +0.000 A 
ATOM      6  C   UNL     1      -1.367  11.746  22.404  0.00  0.00    +0.000 A 
ATOM      7 BR   UNL     1      -2.428  13.154  23.096  0.00  0.00    +0.000 Br
ATOM      8  C   UNL     1      -1.039  10.656  23.235  0.00  0.00    +0.000 A 
ATOM      9  C   UNL     1      -0.258   9.600  22.753  0.00  0.00    +0.000 A 
ATOM     10  C   UNL     1       0.166   9.680  21.442  0.00  0.00    +0.000 A 
ATOM     11  C   UNL     1       0.977   8.770  20.634  0.00  0.00    +0.000 C 
ATOM     12  N   UNL     1       1.478   7.650  21.047  0.00  0.00    +0.000 NA
ATOM     13  H   UNL     1       0.282  11.258  18.581  0.00  0.00    +0.000 HD
ENDROOT
BRANCH  12  14
ATOM     14  N   UNL     1       2.211   6.920  20.151  0.00  0.00    +0.000 N 
ATOM     15  C   UNL     1       2.016   5.552  20.021  0.00  0.00    +0.000 C 
ATOM     16  O   UNL     1       1.204   4.904  20.681  0.00  0.00    +0.000 OA
ATOM     17  H   UNL     1       2.910   7.384  19.562  0.00  0.00    +0.000 HD
BRANCH  15  18
ATOM     18  C   UNL     1       2.866   4.842  19.003  0.00  0.00    +0.000 A 
ATOM     19  C   UNL     1       2.208   4.062  18.034  0.00  0.00    +0.000 A 
ATOM     20  C   UNL     1       2.927   3.368  17.057  0.00  0.00    +0.000 A 
ATOM     21  C   UNL     1       4.318   3.441  17.032  0.00  0.00    +0.000 A 
ATOM     22  C   UNL     1       4.989   4.211  17.981  0.00  0.00    +0.000 A 
ATOM     23  C   UNL     1       4.267   4.906  18.956  0.00  0.00    +0.000 A 
BRANCH  23  24
ATOM     24  O   UNL     1       4.954   5.655  19.869  0.00  0.00    +0.000 OA
ATOM     25  H   UNL     1       5.861   5.818  19.557  0.00  0.00    +0.000 HD
ENDBRANCH  23  24
ENDBRANCH  15  18
ENDBRANCH  12  14
TORSDOF 3
ENDMDL
MODEL 4
REMARK VINA RESULT:      -7.6      1.404      1.861
REMARK  Name = 
REMARK  3 active torsions:
REMARK  status: ('A' for Active; 'I' for Inactive)
REMARK    1  A    between atoms: N_12  and  N_13
REMARK    2  A    between atoms: C_14  and  C_16
REMARK    3  A    between atoms: C_21  and  O_22
REMARK                            x       y       z     vdW  Elec       q    Type
REMARK                         _______ _______ _______ _____ _____    ______ ____
ROOT
ATOM      1  O   UNL     1       1.634   9.195  18.320  0.00  0.00    +0.000 OA
ATOM      2  C   UNL     1       1.008   9.623  19.264  0.00  0.00    +0.000 C 
ATOM      3  N   UNL     1       0.242  10.768  19.329  0.00  0.00    +0.000 N 
ATOM      4  C   UNL     1      -0.326  10.911  20.590  0.00  0.00    +0.000 A 
ATOM      5  C   UNL     1      -1.151  11.931  21.017  0.00  0.00    +0.000 A 
ATOM      6  C   UNL     1      -1.609  11.865  22.336  0.00  0.00    +0.000 A 
ATOM      7 BR   UNL     1      -2.747  13.231  22.986  0.00  0.00    +0.000 Br
ATOM      8  C   UNL     1      -1.243  10.805  23.190  0.00  0.00    +0.000 A 
ATOM      9  C   UNL     1      -0.404   9.781  22.738  0.00  0.00    +0.000 A 
ATOM     10  C   UNL     1       0.038   9.861  21.433  0.00  0.00    +0.000 A 
ATOM     11  C   UNL     1       0.905   8.977  20.654  0.00  0.00    +0.000 C 
ATOM     12  N   UNL     1       1.452   7.889  21.094  0.00  0.00    +0.000 NA
ATOM     13  H   UNL     1       0.127  11.396  18.549  0.00  0.00    +0.000 HD
ENDROOT
BRANCH  12  14
ATOM     14  N   UNL     1       2.235   7.181  20.222  0.00  0.00    +0.000 N 
ATOM     15  C   UNL     1       2.102   5.805  20.106  0.00  0.00    +0.000 C 
ATOM     16  O   UNL     1       1.306   5.130  20.758  0.00  0.00    +0.000 OA
ATOM     17  H   UNL     1       2.925   7.668  19.641  0.00  0.00    +0.000 HD
BRANCH  15  18
ATOM     18  C   UNL     1       3.002   5.120  19.114  0.00  0.00    +0.000 A 
ATOM     19  C   UNL     1       3.410   5.857  17.987  0.00  0.00    +0.000 A 
ATOM     20  C   UNL     1       4.243   5.290  17.018  0.00  0.00    +0.000 A 
ATOM     21  C   UNL     1       4.682   3.976  17.159  0.00  0.00    +0.000 A 
ATOM     22  C   UNL     1       4.291   3.229  18.270  0.00  0.00    +0.000 A 
ATOM     23  C   UNL     1       3.460   3.800  19.239  0.00  0.00    +0.000 A 
BRANCH  23  24
ATOM     24  O   UNL     1       3.099   3.043  20.318  0.00  0.00    +0.000 OA
ATOM     25  H   UNL     1       3.363   2.116  20.184  0.00  0.00    +0.000 HD
ENDBRANCH  23  24
ENDBRANCH  15  18
ENDBRANCH  12  14
TORSDOF 3
ENDMDL
MODEL 5
REMARK VINA RESULT:      -7.6      1.240      1.433
REMARK  Name = 
REMARK  3 active torsions:
REMARK  status: ('A' for Active; 'I' for Inactive)
REMARK    1  A    between atoms: N_12  and  N_13
REMARK    2  A    between atoms: C_14  and  C_16
REMARK    3  A    between atoms: C_21  and  O_22
REMARK                            x       y       z     vdW  Elec       q    Type
REMARK                         _______ _______ _______ _____ _____    ______ ____
ROOT
ATOM      1  O   UNL     1       2.583   8.770  17.119  0.00  0.00    +0.000 OA
ATOM      2  C   UNL     1       2.024   8.955  18.178  0.00  0.00    +0.000 C 
ATOM      3  N   UNL     1       1.256  10.036  18.557  0.00  0.00    +0.000 N 
ATOM      4  C   UNL     1       0.781   9.873  19.854  0.00  0.00    +0.000 A 
ATOM      5  C   UNL     1      -0.018  10.747  20.560  0.00  0.00    +0.000 A 
ATOM      6  C   UNL     1      -0.377  10.371  21.857  0.00  0.00    +0.000 A 
ATOM      7 BR   UNL     1      -1.476  11.523  22.882  0.00  0.00    +0.000 Br
ATOM      8  C   UNL     1       0.059   9.153  22.418  0.00  0.00    +0.000 A 
ATOM      9  C   UNL     1       0.871   8.280  21.685  0.00  0.00    +0.000 A 
ATOM     10  C   UNL     1       1.215   8.667  20.405  0.00  0.00    +0.000 A 
ATOM     11  C   UNL     1       2.030   8.007  19.386  0.00  0.00    +0.000 C 
ATOM     12  N   UNL     1       2.617   6.861  19.525  0.00  0.00    +0.000 NA
ATOM     13  H   UNL     1       1.078  10.822  17.952  0.00  0.00    +0.000 HD
ENDROOT
BRANCH  12  14
ATOM     14  N   UNL     1       3.339   6.391  18.461  0.00  0.00    +0.000 N 
ATOM     15  C   UNL     1       4.531   5.709  18.659  0.00  0.00    +0.000 C 
ATOM     16  O   UNL     1       5.025   5.486  19.764  0.00  0.00    +0.000 OA
ATOM     17  H   UNL     1       2.997   6.536  17.506  0.00  0.00    +0.000 HD
BRANCH  15  18
ATOM     18  C   UNL     1       5.245   5.226  17.426  0.00  0.00    +0.000 A 
ATOM     19  C   UNL     1       4.532   4.396  16.542  0.00  0.00    +0.000 A 
ATOM     20  C   UNL     1       5.127   3.903  15.377  0.00  0.00    +0.000 A 
ATOM     21  C   UNL     1       6.447   4.230  15.077  0.00  0.00    +0.000 A 
ATOM     22  C   UNL     1       7.171   5.053  15.938  0.00  0.00    +0.000 A 
ATOM     23  C   UNL     1       6.572   5.547  17.101  0.00  0.00    +0.000 A 
BRANCH  23  24
ATOM     24  O   UNL     1       7.308   6.355  17.923  0.00  0.00    +0.000 OA
ATOM     25  H   UNL     1       7.086   7.289  17.764  0.00  0.00    +0.000 HD
ENDBRANCH  23  24
ENDBRANCH  15  18
ENDBRANCH  12  14
TORSDOF 3
ENDMDL
MODEL 6
REMARK VINA RESULT:      -7.6      1.731      2.448
REMARK  Name = 
REMARK  3 active torsions:
REMARK  status: ('A' for Active; 'I' for Inactive)
REMARK    1  A    between atoms: N_12  and  N_13
REMARK    2  A    between atoms: C_14  and  C_16
REMARK    3  A    between atoms: C_21  and  O_22
REMARK                            x       y       z     vdW  Elec       q    Type
REMARK                         _______ _______ _______ _____ _____    ______ ____
ROOT
ATOM      1  O   UNL     1       2.062   8.438  18.466  0.00  0.00    +0.000 OA
ATOM      2  C   UNL     1       1.460   8.945  19.387  0.00  0.00    +0.000 C 
ATOM      3  N   UNL     1       0.913  10.209  19.452  0.00  0.00    +0.000 N 
ATOM      4  C   UNL     1       0.295  10.416  20.681  0.00  0.00    +0.000 A 
ATOM      5  C   UNL     1      -0.358  11.557  21.099  0.00  0.00    +0.000 A 
ATOM      6  C   UNL     1      -0.910  11.537  22.383  0.00  0.00    +0.000 A 
ATOM      7 BR   UNL     1      -1.823  13.068  23.018  0.00  0.00    +0.000 Br
ATOM      8  C   UNL     1      -0.802  10.402  23.212  0.00  0.00    +0.000 A 
ATOM      9  C   UNL     1      -0.135   9.255  22.771  0.00  0.00    +0.000 A 
ATOM     10  C   UNL     1       0.403   9.291  21.500  0.00  0.00    +0.000 A 
ATOM     11  C   UNL     1       1.147   8.287  20.739  0.00  0.00    +0.000 C 
ATOM     12  N   UNL     1       1.456   7.105  21.166  0.00  0.00    +0.000 NA
ATOM     13  H   UNL     1       0.967  10.871  18.694  0.00  0.00    +0.000 HD
ENDROOT
BRANCH  12  14
ATOM     14  N   UNL     1       2.155   6.291  20.315  0.00  0.00    +0.000 N 
ATOM     15  C   UNL     1       1.723   4.998  20.054  0.00  0.00    +0.000 C 
ATOM     16  O   UNL     1       0.719   4.491  20.553  0.00  0.00    +0.000 OA
ATOM     17  H   UNL     1       3.004   6.637  19.857  0.00  0.00    +0.000 HD
BRANCH  15  18
ATOM     18  C   UNL     1       2.555   4.188  19.099  0.00  0.00    +0.000 A 
ATOM     19  C   UNL     1       2.659   2.805  19.336  0.00  0.00    +0.000 A 
ATOM     20  C   UNL     1       3.418   1.985  18.496  0.00  0.00    +0.000 A 
ATOM     21  C   UNL     1       4.088   2.534  17.405  0.00  0.00    +0.000 A 
ATOM     22  C   UNL     1       3.996   3.901  17.151  0.00  0.00    +0.000 A 
ATOM     23  C   UNL     1       3.234   4.719  17.991  0.00  0.00    +0.000 A 
BRANCH  23  24
ATOM     24  O   UNL     1       3.160   6.055  17.712  0.00  0.00    +0.000 OA
ATOM     25  H   UNL     1       2.378   6.446  18.138  0.00  0.00    +0.000 HD
ENDBRANCH  23  24
ENDBRANCH  15  18
ENDBRANCH  12  14
TORSDOF 3
ENDMDL
MODEL 7
REMARK VINA RESULT:      -7.6      0.747      1.463
REMARK  Name = 
REMARK  3 active torsions:
REMARK  status: ('A' for Active; 'I' for Inactive)
REMARK    1  A    between atoms: N_12  and  N_13
REMARK    2  A    between atoms: C_14  and  C_16
REMARK    3  A    between atoms: C_21  and  O_22
REMARK                            x       y       z     vdW  Elec       q    Type
REMARK                         _______ _______ _______ _____ _____    ______ ____
ROOT
ATOM      1  O   UNL     1       2.218   9.165  17.194  0.00  0.00    +0.000 OA
ATOM      2  C   UNL     1       1.689   9.348  18.268  0.00  0.00    +0.000 C 
ATOM      3  N   UNL     1       0.956  10.441  18.681  0.00  0.00    +0.000 N 
ATOM      4  C   UNL     1       0.508  10.271  19.986  0.00  0.00    +0.000 A 
ATOM      5  C   UNL     1      -0.253  11.154  20.723  0.00  0.00    +0.000 A 
ATOM      6  C   UNL     1      -0.592  10.767  22.022  0.00  0.00    +0.000 A 
ATOM      7 BR   UNL     1      -1.637  11.930  23.089  0.00  0.00    +0.000 Br
ATOM      8  C   UNL     1      -0.173   9.530  22.555  0.00  0.00    +0.000 A 
ATOM      9  C   UNL     1       0.599   8.648  21.791  0.00  0.00    +0.000 A 
ATOM     10  C   UNL     1       0.924   9.046  20.509  0.00  0.00    +0.000 A 
ATOM     11  C   UNL     1       1.698   8.381  19.462  0.00  0.00    +0.000 C 
ATOM     12  N   UNL     1       2.259   7.220  19.570  0.00  0.00    +0.000 NA
ATOM     13  H   UNL     1       0.785  11.241  18.091  0.00  0.00    +0.000 HD
ENDROOT
BRANCH  12  14
ATOM     14  N   UNL     1       2.944   6.748  18.483  0.00  0.00    +0.000 N 
ATOM     15  C   UNL     1       3.931   5.782  18.630  0.00  0.00    +0.000 C 
ATOM     16  O   UNL     1       4.265   5.295  19.709  0.00  0.00    +0.000 OA
ATOM     17  H   UNL     1       2.728   7.103  17.546  0.00  0.00    +0.000 HD
BRANCH  15  18
ATOM     18  C   UNL     1       4.620   5.324  17.374  0.00  0.00    +0.000 A 
ATOM     19  C   UNL     1       4.973   3.966  17.283  0.00  0.00    +0.000 A 
ATOM     20  C   UNL     1       5.620   3.463  16.149  0.00  0.00    +0.000 A 
ATOM     21  C   UNL     1       5.926   4.312  15.089  0.00  0.00    +0.000 A 
ATOM     22  C   UNL     1       5.583   5.661  15.158  0.00  0.00    +0.000 A 
ATOM     23  C   UNL     1       4.934   6.160  16.292  0.00  0.00    +0.000 A 
BRANCH  23  24
ATOM     24  O   UNL     1       4.606   7.487  16.327  0.00  0.00    +0.000 OA
ATOM     25  H   UNL     1       5.283   8.014  15.867  0.00  0.00    +0.000 HD
ENDBRANCH  23  24
ENDBRANCH  15  18
ENDBRANCH  12  14
TORSDOF 3
ENDMDL
MODEL 8
REMARK VINA RESULT:      -7.3      1.241      1.359
REMARK  Name = 
REMARK  3 active torsions:
REMARK  status: ('A' for Active; 'I' for Inactive)
REMARK    1  A    between atoms: N_12  and  N_13
REMARK    2  A    between atoms: C_14  and  C_16
REMARK    3  A    between atoms: C_21  and  O_22
REMARK                            x       y       z     vdW  Elec       q    Type
REMARK                         _______ _______ _______ _____ _____    ______ ____
ROOT
ATOM      1  O   UNL     1       2.035   9.090  17.943  0.00  0.00    +0.000 OA
ATOM      2  C   UNL     1       1.421   9.386  18.944  0.00  0.00    +0.000 C 
ATOM      3  N   UNL     1       0.615  10.485  19.153  0.00  0.00    +0.000 N 
ATOM      4  C   UNL     1       0.079  10.467  20.436  0.00  0.00    +0.000 A 
ATOM      5  C   UNL     1      -0.771  11.399  20.993  0.00  0.00    +0.000 A 
ATOM      6  C   UNL     1      -1.187  11.171  22.308  0.00  0.00    +0.000 A 
ATOM      7 BR   UNL     1      -2.357  12.410  23.133  0.00  0.00    +0.000 Br
ATOM      8  C   UNL     1      -0.757  10.040  23.031  0.00  0.00    +0.000 A 
ATOM      9  C   UNL     1       0.106   9.106  22.448  0.00  0.00    +0.000 A 
ATOM     10  C   UNL     1       0.507   9.346  21.149  0.00  0.00    +0.000 A 
ATOM     11  C   UNL     1       1.384   8.589  20.256  0.00  0.00    +0.000 C 
ATOM     12  N   UNL     1       1.984   7.483  20.560  0.00  0.00    +0.000 NA
ATOM     13  H   UNL     1       0.453  11.189  18.450  0.00  0.00    +0.000 HD
ENDROOT
BRANCH  12  14
ATOM     14  N   UNL     1       2.768   6.907  19.596  0.00  0.00    +0.000 N 
ATOM     15  C   UNL     1       3.205   5.596  19.727  0.00  0.00    +0.000 C 
ATOM     16  O   UNL     1       2.943   4.872  20.687  0.00  0.00    +0.000 OA
ATOM     17  H   UNL     1       3.032   7.442  18.763  0.00  0.00    +0.000 HD
BRANCH  15  18
ATOM     18  C   UNL     1       4.054   5.053  18.610  0.00  0.00    +0.000 A 
ATOM     19  C   UNL     1       3.403   4.674  17.422  0.00  0.00    +0.000 A 
ATOM     20  C   UNL     1       4.122   4.157  16.339  0.00  0.00    +0.000 A 
ATOM     21  C   UNL     1       5.504   4.008  16.428  0.00  0.00    +0.000 A 
ATOM     22  C   UNL     1       6.168   4.379  17.596  0.00  0.00    +0.000 A 
ATOM     23  C   UNL     1       5.447   4.899  18.676  0.00  0.00    +0.000 A 
BRANCH  23  24
ATOM     24  O   UNL     1       6.129   5.258  19.805  0.00  0.00    +0.000 OA
ATOM     25  H   UNL     1       6.853   5.868  19.582  0.00  0.00    +0.000 HD
ENDBRANCH  23  24
ENDBRANCH  15  18
ENDBRANCH  12  14
TORSDOF 3
ENDMDL
MODEL 9
REMARK VINA RESULT:      -7.1      3.475      8.072
REMARK  Name = 
REMARK  3 active torsions:
REMARK  status: ('A' for Active; 'I' for Inactive)
REMARK    1  A    between atoms: N_12  and  N_13
REMARK    2  A    between atoms: C_14  and  C_16
REMARK    3  A    between atoms: C_21  and  O_22
REMARK                            x       y       z     vdW  Elec       q    Type
REMARK                         _______ _______ _______ _____ _____    ______ ____
ROOT
ATOM      1  O   UNL     1       1.571   6.355  20.780  0.00  0.00    +0.000 OA
ATOM      2  C   UNL     1       2.298   6.239  19.819  0.00  0.00    +0.000 C 
ATOM      3  N   UNL     1       3.000   5.124  19.412  0.00  0.00    +0.000 N 
ATOM      4  C   UNL     1       3.718   5.389  18.251  0.00  0.00    +0.000 A 
ATOM      5  C   UNL     1       4.528   4.514  17.559  0.00  0.00    +0.000 A 
ATOM      6  C   UNL     1       5.152   5.003  16.408  0.00  0.00    +0.000 A 
ATOM      7 BR   UNL     1       6.275   3.853  15.408  0.00  0.00    +0.000 Br
ATOM      8  C   UNL     1       4.962   6.331  15.975  0.00  0.00    +0.000 A 
ATOM      9  C   UNL     1       4.137   7.204  16.692  0.00  0.00    +0.000 A 
ATOM     10  C   UNL     1       3.528   6.705  17.826  0.00  0.00    +0.000 A 
ATOM     11  C   UNL     1       2.620   7.331  18.787  0.00  0.00    +0.000 C 
ATOM     12  N   UNL     1       2.207   8.557  18.736  0.00  0.00    +0.000 NA
ATOM     13  H   UNL     1       2.974   4.248  19.910  0.00  0.00    +0.000 HD
ENDROOT
BRANCH  12  14
ATOM     14  N   UNL     1       1.353   8.975  19.721  0.00  0.00    +0.000 N 
ATOM     15  C   UNL     1       1.000  10.312  19.833  0.00  0.00    +0.000 C 
ATOM     16  O   UNL     1       1.415  11.202  19.091  0.00  0.00    +0.000 OA
ATOM     17  H   UNL     1       0.963   8.297  20.382  0.00  0.00    +0.000 HD
BRANCH  15  18
ATOM     18  C   UNL     1       0.050  10.669  20.944  0.00  0.00    +0.000 A 
ATOM     19  C   UNL     1      -0.846  11.730  20.719  0.00  0.00    +0.000 A 
ATOM     20  C   UNL     1      -1.757  12.124  21.704  0.00  0.00    +0.000 A 
ATOM     21  C   UNL     1      -1.786  11.465  22.931  0.00  0.00    +0.000 A 
ATOM     22  C   UNL     1      -0.907  10.410  23.172  0.00  0.00    +0.000 A 
ATOM     23  C   UNL     1       0.001  10.016  22.185  0.00  0.00    +0.000 A 
BRANCH  23  24
ATOM     24  O   UNL     1       0.845   8.975  22.451  0.00  0.00    +0.000 OA
ATOM     25  H   UNL     1       1.760   9.295  22.532  0.00  0.00    +0.000 HD
ENDBRANCH  23  24
ENDBRANCH  15  18
ENDBRANCH  12  14
TORSDOF 3
ENDMDL
