MODEL 1
REMARK VINA RESULT:      -8.0      0.000      0.000
REMARK  Name = 
REMARK  13 active torsions:
REMARK  status: ('A' for Active; 'I' for Inactive)
REMARK    1  A    between atoms: C_1  and  O_2
REMARK    2  A    between atoms: O_2  and  C_3
REMARK    3  A    between atoms: C_6  and  C_7
REMARK    4  A    between atoms: C_7  and  C_8
REMARK    5  A    between atoms: C_8  and  N_9
REMARK    6  A    between atoms: N_9  and  C_10
REMARK    7  A    between atoms: N_9  and  C_11
REMARK    8  A    between atoms: C_11  and  C_12
REMARK    9  A    between atoms: C_12  and  C_13
REMARK   10  A    between atoms: C_13  and  C_14
REMARK   11  A    between atoms: C_14  and  C_15
REMARK   12  A    between atoms: C_30  and  O_31
REMARK   13  A    between atoms: O_31  and  C_32
REMARK                            x       y       z     vdW  Elec       q    Type
REMARK                         _______ _______ _______ _____ _____    ______ ____
ROOT
ATOM      1  C   UNL     1       1.711   7.472  19.995  0.00  0.00    +0.000 C 
ENDROOT
BRANCH   1   2
ATOM      2  C   UNL     1       1.727   8.006  21.417  0.00  0.00    +0.000 C 
BRANCH   2   3
ATOM      3  N   UNL     1       0.762   9.125  21.568  0.00  0.00    +0.000 NA
ATOM      4  C   UNL     1      -0.560   8.571  21.869  0.00  0.00    +0.000 C 
BRANCH   3   5
ATOM      5  C   UNL     1       0.741   9.990  20.377  0.00  0.00    +0.000 C 
BRANCH   5   6
ATOM      6  C   UNL     1      -0.326  11.101  20.370  0.00  0.00    +0.000 C 
BRANCH   6  10
ATOM      7  C   UNL     1      -2.973  10.569  16.985  0.00  0.00    +0.000 A 
ATOM      8  C   UNL     1      -1.704   9.952  17.008  0.00  0.00    +0.000 A 
ATOM      9  C   UNL     1      -0.826  10.143  18.078  0.00  0.00    +0.000 A 
ATOM     10  C   UNL     1      -1.195  10.969  19.137  0.00  0.00    +0.000 A 
ATOM     11  C   UNL     1      -2.424  11.640  19.080  0.00  0.00    +0.000 A 
ATOM     12  C   UNL     1      -3.318  11.455  18.010  0.00  0.00    +0.000 A 
BRANCH   7  14
ATOM     13  C   UNL     1      -3.291  10.140  14.675  0.00  0.00    +0.000 C 
ATOM     14  O   UNL     1      -3.856  10.325  15.970  0.00  0.00    +0.000 OA
ENDBRANCH   7  14
BRANCH  12  15
ATOM     15  O   UNL     1      -4.458  12.188  18.175  0.00  0.00    +0.000 OA
ATOM     16  C   UNL     1      -5.098  12.182  19.439  0.00  0.00    +0.000 C 
ENDBRANCH  12  15
ENDBRANCH   6  10
ENDBRANCH   5   6
ENDBRANCH   3   5
ENDBRANCH   2   3
ENDBRANCH   1   2
BRANCH   1  17
ATOM     17  C   UNL     1       2.795   6.424  19.682  0.00  0.00    +0.000 C 
BRANCH  17  18
ATOM     18  C   UNL     1       2.957   6.275  18.095  0.00  0.00    +0.000 C 
ATOM     19  C   UNL     1       4.523   6.151  17.781  0.00  0.00    +0.000 A 
ATOM     20  C   UNL     1       5.465   7.139  17.474  0.00  0.00    +0.000 A 
ATOM     21  C   UNL     1       6.751   6.762  17.065  0.00  0.00    +0.000 A 
ATOM     22  C   UNL     1       7.113   5.412  17.002  0.00  0.00    +0.000 A 
ATOM     23  C   UNL     1       6.184   4.426  17.327  0.00  0.00    +0.000 A 
ATOM     24  C   UNL     1       4.895   4.809  17.693  0.00  0.00    +0.000 A 
ATOM     25  C   UNL     1       3.727   4.003  17.902  0.00  0.00    +0.000 A 
ATOM     26  C   UNL     1       3.723   2.677  18.323  0.00  0.00    +0.000 A 
ATOM     27  C   UNL     1       2.503   2.089  18.596  0.00  0.00    +0.000 A 
ATOM     28  C   UNL     1       1.318   2.814  18.386  0.00  0.00    +0.000 A 
ATOM     29  C   UNL     1       1.324   4.172  17.991  0.00  0.00    +0.000 A 
ATOM     30  C   UNL     1       2.544   4.813  17.817  0.00  0.00    +0.000 A 
BRANCH  18  31
ATOM     31  C   UNL     1       2.698   7.715  17.680  0.00  0.00    +0.000 C 
ATOM     32  N   UNL     1       2.484   8.908  17.335  0.00  0.00    +0.000 NA
ENDBRANCH  18  31
ENDBRANCH  17  18
ENDBRANCH   1  17
TORSDOF 10
ENDMDL
MODEL 2
REMARK VINA RESULT:      -7.6      3.669      5.143
REMARK  Name = 
REMARK  13 active torsions:
REMARK  status: ('A' for Active; 'I' for Inactive)
REMARK    1  A    between atoms: C_1  and  O_2
REMARK    2  A    between atoms: O_2  and  C_3
REMARK    3  A    between atoms: C_6  and  C_7
REMARK    4  A    between atoms: C_7  and  C_8
REMARK    5  A    between atoms: C_8  and  N_9
REMARK    6  A    between atoms: N_9  and  C_10
REMARK    7  A    between atoms: N_9  and  C_11
REMARK    8  A    between atoms: C_11  and  C_12
REMARK    9  A    between atoms: C_12  and  C_13
REMARK   10  A    between atoms: C_13  and  C_14
REMARK   11  A    between atoms: C_14  and  C_15
REMARK   12  A    between atoms: C_30  and  O_31
REMARK   13  A    between atoms: O_31  and  C_32
REMARK                            x       y       z     vdW  Elec       q    Type
REMARK                         _______ _______ _______ _____ _____    ______ ____
ROOT
ATOM      1  C   UNL     1       2.345   8.683  17.944  0.00  0.00    +0.000 C 
ENDROOT
BRANCH   1   2
ATOM      2  C   UNL     1       1.128   9.592  17.922  0.00  0.00    +0.000 C 
BRANCH   2   3
ATOM      3  N   UNL     1       1.051  10.395  19.170  0.00  0.00    +0.000 NA
ATOM      4  C   UNL     1      -0.140   9.985  19.920  0.00  0.00    +0.000 C 
BRANCH   3   5
ATOM      5  C   UNL     1       1.058  11.840  18.890  0.00  0.00    +0.000 C 
BRANCH   5   6
ATOM      6  C   UNL     1       2.379  12.415  18.344  0.00  0.00    +0.000 C 
BRANCH   6  10
ATOM      7  C   UNL     1       2.015  16.723  18.129  0.00  0.00    +0.000 A 
ATOM      8  C   UNL     1       3.177  16.077  17.656  0.00  0.00    +0.000 A 
ATOM      9  C   UNL     1       3.322  14.690  17.750  0.00  0.00    +0.000 A 
ATOM     10  C   UNL     1       2.315  13.928  18.336  0.00  0.00    +0.000 A 
ATOM     11  C   UNL     1       1.195  14.576  18.872  0.00  0.00    +0.000 A 
ATOM     12  C   UNL     1       1.035  15.971  18.783  0.00  0.00    +0.000 A 
BRANCH   7  14
ATOM     13  C   UNL     1       1.085  18.484  16.841  0.00  0.00    +0.000 C 
ATOM     14  O   UNL     1       1.847  18.072  17.972  0.00  0.00    +0.000 OA
ENDBRANCH   7  14
BRANCH  12  15
ATOM     15  O   UNL     1      -0.137  16.380  19.350  0.00  0.00    +0.000 OA
ATOM     16  C   UNL     1      -0.992  15.410  19.930  0.00  0.00    +0.000 C 
ENDBRANCH  12  15
ENDBRANCH   6  10
ENDBRANCH   5   6
ENDBRANCH   3   5
ENDBRANCH   2   3
ENDBRANCH   1   2
BRANCH   1  17
ATOM     17  C   UNL     1       2.047   7.193  17.692  0.00  0.00    +0.000 C 
BRANCH  17  18
ATOM     18  C   UNL     1       2.846   6.298  18.753  0.00  0.00    +0.000 C 
ATOM     19  C   UNL     1       2.170   4.846  18.764  0.00  0.00    +0.000 A 
ATOM     20  C   UNL     1       1.146   4.332  19.567  0.00  0.00    +0.000 A 
ATOM     21  C   UNL     1       0.841   2.966  19.505  0.00  0.00    +0.000 A 
ATOM     22  C   UNL     1       1.521   2.122  18.620  0.00  0.00    +0.000 A 
ATOM     23  C   UNL     1       2.528   2.635  17.804  0.00  0.00    +0.000 A 
ATOM     24  C   UNL     1       2.852   3.986  17.903  0.00  0.00    +0.000 A 
ATOM     25  C   UNL     1       3.941   4.710  17.314  0.00  0.00    +0.000 A 
ATOM     26  C   UNL     1       4.577   4.387  16.120  0.00  0.00    +0.000 A 
ATOM     27  C   UNL     1       5.526   5.265  15.633  0.00  0.00    +0.000 A 
ATOM     28  C   UNL     1       5.862   6.409  16.376  0.00  0.00    +0.000 A 
ATOM     29  C   UNL     1       5.192   6.754  17.573  0.00  0.00    +0.000 A 
ATOM     30  C   UNL     1       4.159   5.941  18.022  0.00  0.00    +0.000 A 
BRANCH  18  31
ATOM     31  C   UNL     1       2.290   6.880  20.043  0.00  0.00    +0.000 C 
ATOM     32  N   UNL     1       1.829   7.364  21.112  0.00  0.00    +0.000 NA
ENDBRANCH  18  31
ENDBRANCH  17  18
ENDBRANCH   1  17
TORSDOF 10
ENDMDL
MODEL 3
REMARK VINA RESULT:      -7.6      5.291      8.650
REMARK  Name = 
REMARK  13 active torsions:
REMARK  status: ('A' for Active; 'I' for Inactive)
REMARK    1  A    between atoms: C_1  and  O_2
REMARK    2  A    between atoms: O_2  and  C_3
REMARK    3  A    between atoms: C_6  and  C_7
REMARK    4  A    between atoms: C_7  and  C_8
REMARK    5  A    between atoms: C_8  and  N_9
REMARK    6  A    between atoms: N_9  and  C_10
REMARK    7  A    between atoms: N_9  and  C_11
REMARK    8  A    between atoms: C_11  and  C_12
REMARK    9  A    between atoms: C_12  and  C_13
REMARK   10  A    between atoms: C_13  and  C_14
REMARK   11  A    between atoms: C_14  and  C_15
REMARK   12  A    between atoms: C_30  and  O_31
REMARK   13  A    between atoms: O_31  and  C_32
REMARK                            x       y       z     vdW  Elec       q    Type
REMARK                         _______ _______ _______ _____ _____    ______ ____
ROOT
ATOM      1  C   UNL     1       6.012   5.824  17.771  0.00  0.00    +0.000 C 
ENDROOT
BRANCH   1   2
ATOM      2  C   UNL     1       6.322   7.207  17.223  0.00  0.00    +0.000 C 
BRANCH   2   3
ATOM      3  N   UNL     1       7.728   7.584  17.515  0.00  0.00    +0.000 NA
ATOM      4  C   UNL     1       8.200   6.797  18.658  0.00  0.00    +0.000 C 
BRANCH   3   5
ATOM      5  C   UNL     1       7.869   9.032  17.745  0.00  0.00    +0.000 C 
BRANCH   5   6
ATOM      6  C   UNL     1       8.995   9.455  18.707  0.00  0.00    +0.000 C 
BRANCH   6  10
ATOM      7  C   UNL     1       9.970  13.574  17.795  0.00  0.00    +0.000 A 
ATOM      8  C   UNL     1      10.955  12.698  18.301  0.00  0.00    +0.000 A 
ATOM      9  C   UNL     1      10.646  11.376  18.632  0.00  0.00    +0.000 A 
ATOM     10  C   UNL     1       9.341  10.912  18.479  0.00  0.00    +0.000 A 
ATOM     11  C   UNL     1       8.349  11.801  18.048  0.00  0.00    +0.000 A 
ATOM     12  C   UNL     1       8.646  13.134  17.710  0.00  0.00    +0.000 A 
BRANCH   7  14
ATOM     13  C   UNL     1      11.500  15.380  17.943  0.00  0.00    +0.000 C 
ATOM     14  O   UNL     1      10.292  14.846  17.409  0.00  0.00    +0.000 OA
ENDBRANCH   7  14
BRANCH  12  15
ATOM     15  O   UNL     1       7.534  13.808  17.295  0.00  0.00    +0.000 OA
ATOM     16  C   UNL     1       6.863  14.653  18.213  0.00  0.00    +0.000 C 
ENDBRANCH  12  15
ENDBRANCH   6  10
ENDBRANCH   5   6
ENDBRANCH   3   5
ENDBRANCH   2   3
ENDBRANCH   1   2
BRANCH   1  17
ATOM     17  C   UNL     1       4.895   5.780  18.830  0.00  0.00    +0.000 C 
BRANCH  17  18
ATOM     18  C   UNL     1       3.529   5.291  18.150  0.00  0.00    +0.000 C 
ATOM     19  C   UNL     1       2.880   4.188  19.112  0.00  0.00    +0.000 A 
ATOM     20  C   UNL     1       3.017   2.795  19.113  0.00  0.00    +0.000 A 
ATOM     21  C   UNL     1       2.205   2.023  19.955  0.00  0.00    +0.000 A 
ATOM     22  C   UNL     1       1.292   2.633  20.822  0.00  0.00    +0.000 A 
ATOM     23  C   UNL     1       1.168   4.021  20.839  0.00  0.00    +0.000 A 
ATOM     24  C   UNL     1       1.950   4.778  19.969  0.00  0.00    +0.000 A 
ATOM     25  C   UNL     1       1.890   6.179  19.672  0.00  0.00    +0.000 A 
ATOM     26  C   UNL     1       1.448   7.173  20.539  0.00  0.00    +0.000 A 
ATOM     27  C   UNL     1       1.577   8.488  20.136  0.00  0.00    +0.000 A 
ATOM     28  C   UNL     1       2.084   8.779  18.859  0.00  0.00    +0.000 A 
ATOM     29  C   UNL     1       2.565   7.770  17.991  0.00  0.00    +0.000 A 
ATOM     30  C   UNL     1       2.546   6.450  18.423  0.00  0.00    +0.000 A 
BRANCH  18  31
ATOM     31  C   UNL     1       4.097   4.409  17.050  0.00  0.00    +0.000 C 
ATOM     32  N   UNL     1       4.568   3.678  16.136  0.00  0.00    +0.000 NA
ENDBRANCH  18  31
ENDBRANCH  17  18
ENDBRANCH   1  17
TORSDOF 10
ENDMDL
MODEL 4
REMARK VINA RESULT:      -7.4      1.603      3.609
REMARK  Name = 
REMARK  13 active torsions:
REMARK  status: ('A' for Active; 'I' for Inactive)
REMARK    1  A    between atoms: C_1  and  O_2
REMARK    2  A    between atoms: O_2  and  C_3
REMARK    3  A    between atoms: C_6  and  C_7
REMARK    4  A    between atoms: C_7  and  C_8
REMARK    5  A    between atoms: C_8  and  N_9
REMARK    6  A    between atoms: N_9  and  C_10
REMARK    7  A    between atoms: N_9  and  C_11
REMARK    8  A    between atoms: C_11  and  C_12
REMARK    9  A    between atoms: C_12  and  C_13
REMARK   10  A    between atoms: C_13  and  C_14
REMARK   11  A    between atoms: C_14  and  C_15
REMARK   12  A    between atoms: C_30  and  O_31
REMARK   13  A    between atoms: O_31  and  C_32
REMARK                            x       y       z     vdW  Elec       q    Type
REMARK                         _______ _______ _______ _____ _____    ______ ____
ROOT
ATOM      1  C   UNL     1       2.186   8.643  18.067  0.00  0.00    +0.000 C 
ENDROOT
BRANCH   1   2
ATOM      2  C   UNL     1       0.886   9.427  17.999  0.00  0.00    +0.000 C 
BRANCH   2   3
ATOM      3  N   UNL     1       0.797  10.394  19.123  0.00  0.00    +0.000 NA
ATOM      4  C   UNL     1       0.043   9.776  20.217  0.00  0.00    +0.000 C 
BRANCH   3   5
ATOM      5  C   UNL     1       0.205  11.673  18.697  0.00  0.00    +0.000 C 
BRANCH   5   6
ATOM      6  C   UNL     1      -0.730  12.355  19.714  0.00  0.00    +0.000 C 
BRANCH   6  10
ATOM      7  C   UNL     1      -4.865  11.800  18.559  0.00  0.00    +0.000 A 
ATOM      8  C   UNL     1      -3.821  11.462  17.672  0.00  0.00    +0.000 A 
ATOM      9  C   UNL     1      -2.483  11.668  18.018  0.00  0.00    +0.000 A 
ATOM     10  C   UNL     1      -2.167  12.232  19.251  0.00  0.00    +0.000 A 
ATOM     11  C   UNL     1      -3.204  12.636  20.102  0.00  0.00    +0.000 A 
ATOM     12  C   UNL     1      -4.555  12.433  19.766  0.00  0.00    +0.000 A 
BRANCH   7  14
ATOM     13  C   UNL     1      -6.713  10.331  18.782  0.00  0.00    +0.000 C 
ATOM     14  O   UNL     1      -6.169  11.533  18.245  0.00  0.00    +0.000 OA
ENDBRANCH   7  14
BRANCH  12  15
ATOM     15  O   UNL     1      -5.390  12.882  20.749  0.00  0.00    +0.000 OA
ATOM     16  C   UNL     1      -4.909  12.944  22.080  0.00  0.00    +0.000 C 
ENDBRANCH  12  15
ENDBRANCH   6  10
ENDBRANCH   5   6
ENDBRANCH   3   5
ENDBRANCH   2   3
ENDBRANCH   1   2
BRANCH   1  17
ATOM     17  C   UNL     1       2.070   7.158  17.677  0.00  0.00    +0.000 C 
BRANCH  17  18
ATOM     18  C   UNL     1       2.881   6.262  18.729  0.00  0.00    +0.000 C 
ATOM     19  C   UNL     1       2.222   4.802  18.725  0.00  0.00    +0.000 A 
ATOM     20  C   UNL     1       1.204   4.267  19.522  0.00  0.00    +0.000 A 
ATOM     21  C   UNL     1       0.917   2.898  19.446  0.00  0.00    +0.000 A 
ATOM     22  C   UNL     1       1.606   2.072  18.552  0.00  0.00    +0.000 A 
ATOM     23  C   UNL     1       2.607   2.605  17.741  0.00  0.00    +0.000 A 
ATOM     24  C   UNL     1       2.914   3.959  17.854  0.00  0.00    +0.000 A 
ATOM     25  C   UNL     1       3.995   4.702  17.273  0.00  0.00    +0.000 A 
ATOM     26  C   UNL     1       4.634   4.400  16.075  0.00  0.00    +0.000 A 
ATOM     27  C   UNL     1       5.572   5.295  15.598  0.00  0.00    +0.000 A 
ATOM     28  C   UNL     1       5.894   6.435  16.353  0.00  0.00    +0.000 A 
ATOM     29  C   UNL     1       5.220   6.759  17.553  0.00  0.00    +0.000 A 
ATOM     30  C   UNL     1       4.197   5.929  17.993  0.00  0.00    +0.000 A 
BRANCH  18  31
ATOM     31  C   UNL     1       2.318   6.823  20.025  0.00  0.00    +0.000 C 
ATOM     32  N   UNL     1       1.851   7.288  21.100  0.00  0.00    +0.000 NA
ENDBRANCH  18  31
ENDBRANCH  17  18
ENDBRANCH   1  17
TORSDOF 10
ENDMDL
MODEL 5
REMARK VINA RESULT:      -7.4      2.150      4.494
REMARK  Name = 
REMARK  13 active torsions:
REMARK  status: ('A' for Active; 'I' for Inactive)
REMARK    1  A    between atoms: C_1  and  O_2
REMARK    2  A    between atoms: O_2  and  C_3
REMARK    3  A    between atoms: C_6  and  C_7
REMARK    4  A    between atoms: C_7  and  C_8
REMARK    5  A    between atoms: C_8  and  N_9
REMARK    6  A    between atoms: N_9  and  C_10
REMARK    7  A    between atoms: N_9  and  C_11
REMARK    8  A    between atoms: C_11  and  C_12
REMARK    9  A    between atoms: C_12  and  C_13
REMARK   10  A    between atoms: C_13  and  C_14
REMARK   11  A    between atoms: C_14  and  C_15
REMARK   12  A    between atoms: C_30  and  O_31
REMARK   13  A    between atoms: O_31  and  C_32
REMARK                            x       y       z     vdW  Elec       q    Type
REMARK                         _______ _______ _______ _____ _____    ______ ____
ROOT
ATOM      1  C   UNL     1       1.966   8.650  18.079  0.00  0.00    +0.000 C 
ENDROOT
BRANCH   1   2
ATOM      2  C   UNL     1       0.703   9.399  17.687  0.00  0.00    +0.000 C 
BRANCH   2   3
ATOM      3  N   UNL     1       0.509  10.588  18.556  0.00  0.00    +0.000 NA
ATOM      4  C   UNL     1       1.764  11.344  18.609  0.00  0.00    +0.000 C 
BRANCH   3   5
ATOM      5  C   UNL     1       0.033  10.212  19.897  0.00  0.00    +0.000 C 
BRANCH   5   6
ATOM      6  C   UNL     1       0.226  11.268  21.002  0.00  0.00    +0.000 C 
BRANCH   6  10
ATOM      7  C   UNL     1      -3.541  12.642  22.635  0.00  0.00    +0.000 A 
ATOM      8  C   UNL     1      -2.618  11.945  23.446  0.00  0.00    +0.000 A 
ATOM      9  C   UNL     1      -1.414  11.466  22.923  0.00  0.00    +0.000 A 
ATOM     10  C   UNL     1      -1.120  11.660  21.576  0.00  0.00    +0.000 A 
ATOM     11  C   UNL     1      -2.067  12.285  20.755  0.00  0.00    +0.000 A 
ATOM     12  C   UNL     1      -3.282  12.774  21.268  0.00  0.00    +0.000 A 
BRANCH   7  14
ATOM     13  C   UNL     1      -4.600  14.507  23.646  0.00  0.00    +0.000 C 
ATOM     14  O   UNL     1      -4.686  13.168  23.167  0.00  0.00    +0.000 OA
ENDBRANCH   7  14
BRANCH  12  15
ATOM     15  O   UNL     1      -4.038  13.363  20.296  0.00  0.00    +0.000 OA
ATOM     16  C   UNL     1      -5.031  12.595  19.640  0.00  0.00    +0.000 C 
ENDBRANCH  12  15
ENDBRANCH   6  10
ENDBRANCH   5   6
ENDBRANCH   3   5
ENDBRANCH   2   3
ENDBRANCH   1   2
BRANCH   1  17
ATOM     17  C   UNL     1       1.983   7.159  17.691  0.00  0.00    +0.000 C 
BRANCH  17  18
ATOM     18  C   UNL     1       2.804   6.329  18.788  0.00  0.00    +0.000 C 
ATOM     19  C   UNL     1       2.150   4.869  18.875  0.00  0.00    +0.000 A 
ATOM     20  C   UNL     1       1.139   4.380  19.711  0.00  0.00    +0.000 A 
ATOM     21  C   UNL     1       0.855   3.008  19.718  0.00  0.00    +0.000 A 
ATOM     22  C   UNL     1       1.540   2.133  18.869  0.00  0.00    +0.000 A 
ATOM     23  C   UNL     1       2.533   2.620  18.020  0.00  0.00    +0.000 A 
ATOM     24  C   UNL     1       2.837   3.979  18.051  0.00  0.00    +0.000 A 
ATOM     25  C   UNL     1       3.911   4.688  17.418  0.00  0.00    +0.000 A 
ATOM     26  C   UNL     1       4.542   4.317  16.235  0.00  0.00    +0.000 A 
ATOM     27  C   UNL     1       5.474   5.184  15.699  0.00  0.00    +0.000 A 
ATOM     28  C   UNL     1       5.799   6.368  16.383  0.00  0.00    +0.000 A 
ATOM     29  C   UNL     1       5.133   6.761  17.567  0.00  0.00    +0.000 A 
ATOM     30  C   UNL     1       4.116   5.956  18.063  0.00  0.00    +0.000 A 
BRANCH  18  31
ATOM     31  C   UNL     1       2.249   6.965  20.053  0.00  0.00    +0.000 C 
ATOM     32  N   UNL     1       1.788   7.492  21.101  0.00  0.00    +0.000 NA
ENDBRANCH  18  31
ENDBRANCH  17  18
ENDBRANCH   1  17
TORSDOF 10
ENDMDL
MODEL 6
REMARK VINA RESULT:      -7.3      2.512      4.743
REMARK  Name = 
REMARK  13 active torsions:
REMARK  status: ('A' for Active; 'I' for Inactive)
REMARK    1  A    between atoms: C_1  and  O_2
REMARK    2  A    between atoms: O_2  and  C_3
REMARK    3  A    between atoms: C_6  and  C_7
REMARK    4  A    between atoms: C_7  and  C_8
REMARK    5  A    between atoms: C_8  and  N_9
REMARK    6  A    between atoms: N_9  and  C_10
REMARK    7  A    between atoms: N_9  and  C_11
REMARK    8  A    between atoms: C_11  and  C_12
REMARK    9  A    between atoms: C_12  and  C_13
REMARK   10  A    between atoms: C_13  and  C_14
REMARK   11  A    between atoms: C_14  and  C_15
REMARK   12  A    between atoms: C_30  and  O_31
REMARK   13  A    between atoms: O_31  and  C_32
REMARK                            x       y       z     vdW  Elec       q    Type
REMARK                         _______ _______ _______ _____ _____    ______ ____
ROOT
ATOM      1  C   UNL     1       1.913   8.662  18.062  0.00  0.00    +0.000 C 
ENDROOT
BRANCH   1   2
ATOM      2  C   UNL     1       0.664   9.414  17.632  0.00  0.00    +0.000 C 
BRANCH   2   3
ATOM      3  N   UNL     1      -0.017  10.014  18.808  0.00  0.00    +0.000 NA
ATOM      4  C   UNL     1      -1.396  10.345  18.436  0.00  0.00    +0.000 C 
BRANCH   3   5
ATOM      5  C   UNL     1       0.713  11.185  19.322  0.00  0.00    +0.000 C 
BRANCH   5   6
ATOM      6  C   UNL     1       1.040  11.167  20.827  0.00  0.00    +0.000 C 
BRANCH   6  10
ATOM      7  C   UNL     1      -2.132  12.874  23.229  0.00  0.00    +0.000 A 
ATOM      8  C   UNL     1      -1.840  11.494  23.301  0.00  0.00    +0.000 A 
ATOM      9  C   UNL     1      -0.842  10.924  22.507  0.00  0.00    +0.000 A 
ATOM     10  C   UNL     1      -0.130  11.721  21.612  0.00  0.00    +0.000 A 
ATOM     11  C   UNL     1      -0.470  13.074  21.487  0.00  0.00    +0.000 A 
ATOM     12  C   UNL     1      -1.472  13.661  22.282  0.00  0.00    +0.000 A 
BRANCH   7  14
ATOM     13  C   UNL     1      -4.272  12.709  24.238  0.00  0.00    +0.000 C 
ATOM     14  O   UNL     1      -3.062  13.439  24.057  0.00  0.00    +0.000 OA
ENDBRANCH   7  14
BRANCH  12  15
ATOM     15  O   UNL     1      -1.617  14.990  22.006  0.00  0.00    +0.000 OA
ATOM     16  C   UNL     1      -2.616  15.393  21.085  0.00  0.00    +0.000 C 
ENDBRANCH  12  15
ENDBRANCH   6  10
ENDBRANCH   5   6
ENDBRANCH   3   5
ENDBRANCH   2   3
ENDBRANCH   1   2
BRANCH   1  17
ATOM     17  C   UNL     1       1.900   7.153  17.755  0.00  0.00    +0.000 C 
BRANCH  17  18
ATOM     18  C   UNL     1       2.730   6.369  18.879  0.00  0.00    +0.000 C 
ATOM     19  C   UNL     1       2.097   4.904  19.011  0.00  0.00    +0.000 A 
ATOM     20  C   UNL     1       1.092   4.427  19.861  0.00  0.00    +0.000 A 
ATOM     21  C   UNL     1       0.827   3.052  19.911  0.00  0.00    +0.000 A 
ATOM     22  C   UNL     1       1.526   2.160  19.091  0.00  0.00    +0.000 A 
ATOM     23  C   UNL     1       2.513   2.634  18.228  0.00  0.00    +0.000 A 
ATOM     24  C   UNL     1       2.799   3.998  18.216  0.00  0.00    +0.000 A 
ATOM     25  C   UNL     1       3.863   4.702  17.563  0.00  0.00    +0.000 A 
ATOM     26  C   UNL     1       4.501   4.303  16.393  0.00  0.00    +0.000 A 
ATOM     27  C   UNL     1       5.421   5.166  15.830  0.00  0.00    +0.000 A 
ATOM     28  C   UNL     1       5.728   6.375  16.477  0.00  0.00    +0.000 A 
ATOM     29  C   UNL     1       5.055   6.796  17.647  0.00  0.00    +0.000 A 
ATOM     30  C   UNL     1       4.049   5.992  18.167  0.00  0.00    +0.000 A 
BRANCH  18  31
ATOM     31  C   UNL     1       2.165   7.037  20.122  0.00  0.00    +0.000 C 
ATOM     32  N   UNL     1       1.695   7.590  21.153  0.00  0.00    +0.000 NA
ENDBRANCH  18  31
ENDBRANCH  17  18
ENDBRANCH   1  17
TORSDOF 10
ENDMDL
MODEL 7
REMARK VINA RESULT:      -7.3      3.299      4.152
REMARK  Name = 
REMARK  13 active torsions:
REMARK  status: ('A' for Active; 'I' for Inactive)
REMARK    1  A    between atoms: C_1  and  O_2
REMARK    2  A    between atoms: O_2  and  C_3
REMARK    3  A    between atoms: C_6  and  C_7
REMARK    4  A    between atoms: C_7  and  C_8
REMARK    5  A    between atoms: C_8  and  N_9
REMARK    6  A    between atoms: N_9  and  C_10
REMARK    7  A    between atoms: N_9  and  C_11
REMARK    8  A    between atoms: C_11  and  C_12
REMARK    9  A    between atoms: C_12  and  C_13
REMARK   10  A    between atoms: C_13  and  C_14
REMARK   11  A    between atoms: C_14  and  C_15
REMARK   12  A    between atoms: C_30  and  O_31
REMARK   13  A    between atoms: O_31  and  C_32
REMARK                            x       y       z     vdW  Elec       q    Type
REMARK                         _______ _______ _______ _____ _____    ______ ____
ROOT
ATOM      1  C   UNL     1       1.951   7.764  20.000  0.00  0.00    +0.000 C 
ENDROOT
BRANCH   1   2
ATOM      2  C   UNL     1       1.237   7.825  21.340  0.00  0.00    +0.000 C 
BRANCH   2   3
ATOM      3  N   UNL     1       1.018   9.234  21.755  0.00  0.00    +0.000 NA
ATOM      4  C   UNL     1      -0.070   9.274  22.736  0.00  0.00    +0.000 C 
BRANCH   3   5
ATOM      5  C   UNL     1       0.753  10.108  20.599  0.00  0.00    +0.000 C 
BRANCH   5   6
ATOM      6  C   UNL     1       0.583  11.606  20.912  0.00  0.00    +0.000 C 
BRANCH   6  10
ATOM      7  C   UNL     1       3.235  14.117  18.586  0.00  0.00    +0.000 A 
ATOM      8  C   UNL     1       2.588  13.012  17.992  0.00  0.00    +0.000 A 
ATOM      9  C   UNL     1       1.756  12.174  18.739  0.00  0.00    +0.000 A 
ATOM     10  C   UNL     1       1.572  12.415  20.098  0.00  0.00    +0.000 A 
ATOM     11  C   UNL     1       2.271  13.466  20.704  0.00  0.00    +0.000 A 
ATOM     12  C   UNL     1       3.110  14.319  19.963  0.00  0.00    +0.000 A 
BRANCH   7  14
ATOM     13  C   UNL     1       5.400  14.754  17.857  0.00  0.00    +0.000 C 
ATOM     14  O   UNL     1       3.992  14.975  17.837  0.00  0.00    +0.000 OA
ENDBRANCH   7  14
BRANCH  12  15
ATOM     15  O   UNL     1       3.669  15.283  20.752  0.00  0.00    +0.000 OA
ATOM     16  C   UNL     1       2.995  16.521  20.902  0.00  0.00    +0.000 C 
ENDBRANCH  12  15
ENDBRANCH   6  10
ENDBRANCH   5   6
ENDBRANCH   3   5
ENDBRANCH   2   3
ENDBRANCH   1   2
BRANCH   1  17
ATOM     17  C   UNL     1       2.666   6.433  19.705  0.00  0.00    +0.000 C 
BRANCH  17  18
ATOM     18  C   UNL     1       2.868   6.271  18.124  0.00  0.00    +0.000 C 
ATOM     19  C   UNL     1       4.443   6.177  17.847  0.00  0.00    +0.000 A 
ATOM     20  C   UNL     1       5.370   7.182  17.551  0.00  0.00    +0.000 A 
ATOM     21  C   UNL     1       6.674   6.829  17.176  0.00  0.00    +0.000 A 
ATOM     22  C   UNL     1       7.066   5.487  17.137  0.00  0.00    +0.000 A 
ATOM     23  C   UNL     1       6.151   4.484  17.452  0.00  0.00    +0.000 A 
ATOM     24  C   UNL     1       4.846   4.843  17.783  0.00  0.00    +0.000 A 
ATOM     25  C   UNL     1       3.691   4.014  17.974  0.00  0.00    +0.000 A 
ATOM     26  C   UNL     1       3.705   2.693  18.409  0.00  0.00    +0.000 A 
ATOM     27  C   UNL     1       2.493   2.082  18.661  0.00  0.00    +0.000 A 
ATOM     28  C   UNL     1       1.297   2.778  18.415  0.00  0.00    +0.000 A 
ATOM     29  C   UNL     1       1.284   4.131  18.005  0.00  0.00    +0.000 A 
ATOM     30  C   UNL     1       2.493   4.797  17.853  0.00  0.00    +0.000 A 
BRANCH  18  31
ATOM     31  C   UNL     1       2.588   7.700  17.686  0.00  0.00    +0.000 C 
ATOM     32  N   UNL     1       2.356   8.884  17.323  0.00  0.00    +0.000 NA
ENDBRANCH  18  31
ENDBRANCH  17  18
ENDBRANCH   1  17
TORSDOF 10
ENDMDL
MODEL 8
REMARK VINA RESULT:      -7.3      1.057      1.238
REMARK  Name = 
REMARK  13 active torsions:
REMARK  status: ('A' for Active; 'I' for Inactive)
REMARK    1  A    between atoms: C_1  and  O_2
REMARK    2  A    between atoms: O_2  and  C_3
REMARK    3  A    between atoms: C_6  and  C_7
REMARK    4  A    between atoms: C_7  and  C_8
REMARK    5  A    between atoms: C_8  and  N_9
REMARK    6  A    between atoms: N_9  and  C_10
REMARK    7  A    between atoms: N_9  and  C_11
REMARK    8  A    between atoms: C_11  and  C_12
REMARK    9  A    between atoms: C_12  and  C_13
REMARK   10  A    between atoms: C_13  and  C_14
REMARK   11  A    between atoms: C_14  and  C_15
REMARK   12  A    between atoms: C_30  and  O_31
REMARK   13  A    between atoms: O_31  and  C_32
REMARK                            x       y       z     vdW  Elec       q    Type
REMARK                         _______ _______ _______ _____ _____    ______ ____
ROOT
ATOM      1  C   UNL     1       1.668   6.943  20.353  0.00  0.00    +0.000 C 
ENDROOT
BRANCH   1   2
ATOM      2  C   UNL     1       1.918   8.380  20.780  0.00  0.00    +0.000 C 
BRANCH   2   3
ATOM      3  N   UNL     1       0.833   8.858  21.674  0.00  0.00    +0.000 NA
ATOM      4  C   UNL     1      -0.338   7.995  21.497  0.00  0.00    +0.000 C 
BRANCH   3   5
ATOM      5  C   UNL     1       0.516  10.276  21.436  0.00  0.00    +0.000 C 
BRANCH   5   6
ATOM      6  C   UNL     1       0.686  10.771  19.987  0.00  0.00    +0.000 C 
BRANCH   6  10
ATOM      7  C   UNL     1      -3.306  11.128  18.349  0.00  0.00    +0.000 A 
ATOM      8  C   UNL     1      -2.364  10.257  17.760  0.00  0.00    +0.000 A 
ATOM      9  C   UNL     1      -1.062  10.158  18.258  0.00  0.00    +0.000 A 
ATOM     10  C   UNL     1      -0.674  10.941  19.342  0.00  0.00    +0.000 A 
ATOM     11  C   UNL     1      -1.586  11.859  19.880  0.00  0.00    +0.000 A 
ATOM     12  C   UNL     1      -2.900  11.968  19.390  0.00  0.00    +0.000 A 
BRANCH   7  14
ATOM     13  C   UNL     1      -4.806  11.787  16.635  0.00  0.00    +0.000 C 
ATOM     14  O   UNL     1      -4.598  11.172  17.903  0.00  0.00    +0.000 OA
ENDBRANCH   7  14
BRANCH  12  15
ATOM     15  O   UNL     1      -3.616  12.907  20.076  0.00  0.00    +0.000 OA
ATOM     16  C   UNL     1      -2.918  13.903  20.803  0.00  0.00    +0.000 C 
ENDBRANCH  12  15
ENDBRANCH   6  10
ENDBRANCH   5   6
ENDBRANCH   3   5
ENDBRANCH   2   3
ENDBRANCH   1   2
BRANCH   1  17
ATOM     17  C   UNL     1       2.874   6.239  19.703  0.00  0.00    +0.000 C 
BRANCH  17  18
ATOM     18  C   UNL     1       2.610   6.061  18.133  0.00  0.00    +0.000 C 
ATOM     19  C   UNL     1       4.033   5.859  17.426  0.00  0.00    +0.000 A 
ATOM     20  C   UNL     1       4.902   6.798  16.860  0.00  0.00    +0.000 A 
ATOM     21  C   UNL     1       6.020   6.355  16.140  0.00  0.00    +0.000 A 
ATOM     22  C   UNL     1       6.297   4.989  16.019  0.00  0.00    +0.000 A 
ATOM     23  C   UNL     1       5.444   4.052  16.600  0.00  0.00    +0.000 A 
ATOM     24  C   UNL     1       4.312   4.500  17.278  0.00  0.00    +0.000 A 
ATOM     25  C   UNL     1       3.207   3.753  17.804  0.00  0.00    +0.000 A 
ATOM     26  C   UNL     1       3.257   2.435  18.245  0.00  0.00    +0.000 A 
ATOM     27  C   UNL     1       2.127   1.909  18.841  0.00  0.00    +0.000 A 
ATOM     28  C   UNL     1       0.959   2.685  18.928  0.00  0.00    +0.000 A 
ATOM     29  C   UNL     1       0.920   4.036  18.510  0.00  0.00    +0.000 A 
ATOM     30  C   UNL     1       2.077   4.617  18.009  0.00  0.00    +0.000 A 
BRANCH  18  31
ATOM     31  C   UNL     1       2.312   7.506  17.763  0.00  0.00    +0.000 C 
ATOM     32  N   UNL     1       2.066   8.703  17.456  0.00  0.00    +0.000 NA
ENDBRANCH  18  31
ENDBRANCH  17  18
ENDBRANCH   1  17
TORSDOF 10
ENDMDL
MODEL 9
REMARK VINA RESULT:      -7.3      1.222      1.707
REMARK  Name = 
REMARK  13 active torsions:
REMARK  status: ('A' for Active; 'I' for Inactive)
REMARK    1  A    between atoms: C_1  and  O_2
REMARK    2  A    between atoms: O_2  and  C_3
REMARK    3  A    between atoms: C_6  and  C_7
REMARK    4  A    between atoms: C_7  and  C_8
REMARK    5  A    between atoms: C_8  and  N_9
REMARK    6  A    between atoms: N_9  and  C_10
REMARK    7  A    between atoms: N_9  and  C_11
REMARK    8  A    between atoms: C_11  and  C_12
REMARK    9  A    between atoms: C_12  and  C_13
REMARK   10  A    between atoms: C_13  and  C_14
REMARK   11  A    between atoms: C_14  and  C_15
REMARK   12  A    between atoms: C_30  and  O_31
REMARK   13  A    between atoms: O_31  and  C_32
REMARK                            x       y       z     vdW  Elec       q    Type
REMARK                         _______ _______ _______ _____ _____    ______ ____
ROOT
ATOM      1  C   UNL     1       2.215   7.817  20.080  0.00  0.00    +0.000 C 
ENDROOT
BRANCH   1   2
ATOM      2  C   UNL     1       1.183   7.971  21.185  0.00  0.00    +0.000 C 
BRANCH   2   3
ATOM      3  N   UNL     1       0.668   9.364  21.230  0.00  0.00    +0.000 NA
ATOM      4  C   UNL     1       0.020   9.585  22.526  0.00  0.00    +0.000 C 
BRANCH   3   5
ATOM      5  C   UNL     1      -0.237   9.647  20.104  0.00  0.00    +0.000 C 
BRANCH   5   6
ATOM      6  C   UNL     1      -0.273  11.109  19.619  0.00  0.00    +0.000 C 
BRANCH   6  10
ATOM      7  C   UNL     1      -4.441  12.125  19.037  0.00  0.00    +0.000 A 
ATOM      8  C   UNL     1      -3.745  11.370  18.069  0.00  0.00    +0.000 A 
ATOM      9  C   UNL     1      -2.391  11.064  18.227  0.00  0.00    +0.000 A 
ATOM     10  C   UNL     1      -1.705  11.523  19.349  0.00  0.00    +0.000 A 
ATOM     11  C   UNL     1      -2.376  12.335  20.273  0.00  0.00    +0.000 A 
ATOM     12  C   UNL     1      -3.740  12.649  20.126  0.00  0.00    +0.000 A 
BRANCH   7  14
ATOM     13  C   UNL     1      -6.485  11.535  17.991  0.00  0.00    +0.000 C 
ATOM     14  O   UNL     1      -5.782  12.364  18.912  0.00  0.00    +0.000 OA
ENDBRANCH   7  14
BRANCH  12  15
ATOM     15  O   UNL     1      -4.188  13.431  21.152  0.00  0.00    +0.000 OA
ATOM     16  C   UNL     1      -4.322  12.858  22.441  0.00  0.00    +0.000 C 
ENDBRANCH  12  15
ENDBRANCH   6  10
ENDBRANCH   5   6
ENDBRANCH   3   5
ENDBRANCH   2   3
ENDBRANCH   1   2
BRANCH   1  17
ATOM     17  C   UNL     1       2.577   6.362  19.728  0.00  0.00    +0.000 C 
BRANCH  17  18
ATOM     18  C   UNL     1       2.750   6.219  18.142  0.00  0.00    +0.000 C 
ATOM     19  C   UNL     1       4.320   6.148  17.833  0.00  0.00    +0.000 A 
ATOM     20  C   UNL     1       5.229   7.168  17.530  0.00  0.00    +0.000 A 
ATOM     21  C   UNL     1       6.528   6.835  17.125  0.00  0.00    +0.000 A 
ATOM     22  C   UNL     1       6.937   5.499  17.064  0.00  0.00    +0.000 A 
ATOM     23  C   UNL     1       6.041   4.481  17.386  0.00  0.00    +0.000 A 
ATOM     24  C   UNL     1       4.738   4.820  17.746  0.00  0.00    +0.000 A 
ATOM     25  C   UNL     1       3.598   3.975  17.951  0.00  0.00    +0.000 A 
ATOM     26  C   UNL     1       3.637   2.649  18.371  0.00  0.00    +0.000 A 
ATOM     27  C   UNL     1       2.437   2.020  18.640  0.00  0.00    +0.000 A 
ATOM     28  C   UNL     1       1.228   2.703  18.426  0.00  0.00    +0.000 A 
ATOM     29  C   UNL     1       1.190   4.061  18.031  0.00  0.00    +0.000 A 
ATOM     30  C   UNL     1       2.388   4.744  17.862  0.00  0.00    +0.000 A 
BRANCH  18  31
ATOM     31  C   UNL     1       2.443   7.649  17.726  0.00  0.00    +0.000 C 
ATOM     32  N   UNL     1       2.189   8.834  17.379  0.00  0.00    +0.000 NA
ENDBRANCH  18  31
ENDBRANCH  17  18
ENDBRANCH   1  17
TORSDOF 10
ENDMDL
