MODEL 1
REMARK VINA RESULT:      -7.6      0.000      0.000
REMARK  Name = 
REMARK  5 active torsions:
REMARK  status: ('A' for Active; 'I' for Inactive)
REMARK    1  A    between atoms: O_1  and  C_2
REMARK    2  A    between atoms: C_2  and  C_3
REMARK    3  A    between atoms: N_7  and  C_8
REMARK    4  A    between atoms: C_10  and  O_11
REMARK    5  A    between atoms: C_13  and  O_14
REMARK                            x       y       z     vdW  Elec       q    Type
REMARK                         _______ _______ _______ _____ _____    ______ ____
ROOT
ATOM      1  C   UNL     1       5.227   4.676  18.784  0.00  0.00    +0.000 A 
ATOM      2  N   UNL     1       6.060   5.036  19.797  0.00  0.00    +0.000 NA
ATOM      3  C   UNL     1       7.403   5.179  19.608  0.00  0.00    +0.000 A 
ATOM      4  N   UNL     1       7.944   4.982  18.387  0.00  0.00    +0.000 NA
ATOM      5  C   UNL     1       7.167   4.648  17.323  0.00  0.00    +0.000 A 
ATOM      6  C   UNL     1       5.785   4.484  17.485  0.00  0.00    +0.000 A 
ATOM      7 CL   UNL     1       4.844   4.141  16.028  0.00  0.00    +0.000 Cl
ENDROOT
BRANCH   1  12
ATOM      8  C   UNL     1       2.308   2.548  19.046  0.00  0.00    +0.000 C 
ATOM      9  C   UNL     1       1.215   3.497  18.488  0.00  0.00    +0.000 C 
ATOM     10  C   UNL     1       1.813   4.677  17.715  0.00  0.00    +0.000 C 
ATOM     11  C   UNL     1       2.807   5.440  18.595  0.00  0.00    +0.000 C 
ATOM     12  N   UNL     1       3.826   4.516  19.078  0.00  0.00    +0.000 N 
ATOM     13  C   UNL     1       3.342   3.367  19.848  0.00  0.00    +0.000 C 
BRANCH   8  14
ATOM     14  C   UNL     1       3.002   1.692  17.973  0.00  0.00    +0.000 C 
BRANCH  14  15
ATOM     15  O   UNL     1       4.151   1.090  18.507  0.00  0.00    +0.000 OA
ATOM     16  H   UNL     1       3.943   0.123  18.593  0.00  0.00    +0.000 HD
ENDBRANCH  14  15
ENDBRANCH   8  14
ENDBRANCH   1  12
BRANCH   3  17
ATOM     17  O   UNL     1       8.197   5.509  20.642  0.00  0.00    +0.000 OA
ATOM     18  H   UNL     1       8.690   6.338  20.660  0.00  0.00    +0.000 HD
ENDBRANCH   3  17
BRANCH   5  19
ATOM     19  O   UNL     1       7.734   4.490  16.109  0.00  0.00    +0.000 OA
ATOM     20  H   UNL     1       7.200   4.432  15.305  0.00  0.00    +0.000 HD
ENDBRANCH   5  19
TORSDOF 5
ENDMDL
MODEL 2
REMARK VINA RESULT:      -7.1      1.331      1.334
REMARK  Name = 
REMARK  5 active torsions:
REMARK  status: ('A' for Active; 'I' for Inactive)
REMARK    1  A    between atoms: O_1  and  C_2
REMARK    2  A    between atoms: C_2  and  C_3
REMARK    3  A    between atoms: N_7  and  C_8
REMARK    4  A    between atoms: C_10  and  O_11
REMARK    5  A    between atoms: C_13  and  O_14
REMARK                            x       y       z     vdW  Elec       q    Type
REMARK                         _______ _______ _______ _____ _____    ______ ____
ROOT
ATOM      1  C   UNL     1       5.291   5.418  18.734  0.00  0.00    +0.000 A 
ATOM      2  N   UNL     1       6.121   5.189  19.786  0.00  0.00    +0.000 NA
ATOM      3  C   UNL     1       7.444   5.514  19.742  0.00  0.00    +0.000 A 
ATOM      4  N   UNL     1       7.966   6.099  18.643  0.00  0.00    +0.000 NA
ATOM      5  C   UNL     1       7.188   6.383  17.565  0.00  0.00    +0.000 A 
ATOM      6  C   UNL     1       5.826   6.053  17.574  0.00  0.00    +0.000 A 
ATOM      7 CL   UNL     1       4.875   6.545  16.168  0.00  0.00    +0.000 Cl
ENDROOT
BRANCH   1  12
ATOM      8  C   UNL     1       2.832   2.897  19.582  0.00  0.00    +0.000 C 
ATOM      9  C   UNL     1       1.784   3.137  18.465  0.00  0.00    +0.000 C 
ATOM     10  C   UNL     1       2.352   3.961  17.304  0.00  0.00    +0.000 C 
ATOM     11  C   UNL     1       2.918   5.287  17.822  0.00  0.00    +0.000 C 
ATOM     12  N   UNL     1       3.913   5.013  18.852  0.00  0.00    +0.000 N 
ATOM     13  C   UNL     1       3.447   4.247  20.011  0.00  0.00    +0.000 C 
BRANCH   8  14
ATOM     14  C   UNL     1       3.932   1.890  19.204  0.00  0.00    +0.000 C 
BRANCH  14  15
ATOM     15  O   UNL     1       5.077   2.114  19.983  0.00  0.00    +0.000 OA
ATOM     16  H   UNL     1       5.086   3.084  20.190  0.00  0.00    +0.000 HD
ENDBRANCH  14  15
ENDBRANCH   8  14
ENDBRANCH   1  12
BRANCH   3  17
ATOM     17  O   UNL     1       8.239   5.245  20.793  0.00  0.00    +0.000 OA
ATOM     18  H   UNL     1       8.213   4.393  21.244  0.00  0.00    +0.000 HD
ENDBRANCH   3  17
BRANCH   5  19
ATOM     19  O   UNL     1       7.733   6.997  16.495  0.00  0.00    +0.000 OA
ATOM     20  H   UNL     1       7.315   7.768  16.086  0.00  0.00    +0.000 HD
ENDBRANCH   5  19
TORSDOF 5
ENDMDL
MODEL 3
REMARK VINA RESULT:      -7.1      1.647      2.274
REMARK  Name = 
REMARK  5 active torsions:
REMARK  status: ('A' for Active; 'I' for Inactive)
REMARK    1  A    between atoms: O_1  and  C_2
REMARK    2  A    between atoms: C_2  and  C_3
REMARK    3  A    between atoms: N_7  and  C_8
REMARK    4  A    between atoms: C_10  and  O_11
REMARK    5  A    between atoms: C_13  and  O_14
REMARK                            x       y       z     vdW  Elec       q    Type
REMARK                         _______ _______ _______ _____ _____    ______ ____
ROOT
ATOM      1  C   UNL     1       5.101   4.396  17.807  0.00  0.00    +0.000 A 
ATOM      2  N   UNL     1       5.740   4.700  18.968  0.00  0.00    +0.000 NA
ATOM      3  C   UNL     1       6.991   5.243  18.979  0.00  0.00    +0.000 A 
ATOM      4  N   UNL     1       7.627   5.514  17.819  0.00  0.00    +0.000 NA
ATOM      5  C   UNL     1       7.036   5.262  16.622  0.00  0.00    +0.000 A 
ATOM      6  C   UNL     1       5.755   4.695  16.575  0.00  0.00    +0.000 A 
ATOM      7 CL   UNL     1       5.028   4.490  14.976  0.00  0.00    +0.000 Cl
ENDROOT
BRANCH   1  12
ATOM      8  C   UNL     1       1.792   4.282  19.278  0.00  0.00    +0.000 C 
ATOM      9  C   UNL     1       1.575   2.749  19.365  0.00  0.00    +0.000 C 
ATOM     10  C   UNL     1       2.885   1.968  19.220  0.00  0.00    +0.000 C 
ATOM     11  C   UNL     1       3.590   2.351  17.916  0.00  0.00    +0.000 C 
ATOM     12  N   UNL     1       3.794   3.795  17.887  0.00  0.00    +0.000 N 
ATOM     13  C   UNL     1       2.588   4.618  17.997  0.00  0.00    +0.000 C 
BRANCH   8  14
ATOM     14  C   UNL     1       2.470   4.890  20.518  0.00  0.00    +0.000 C 
BRANCH  14  15
ATOM     15  O   UNL     1       3.116   6.087  20.175  0.00  0.00    +0.000 OA
ATOM     16  H   UNL     1       2.629   6.450  19.389  0.00  0.00    +0.000 HD
ENDBRANCH  14  15
ENDBRANCH   8  14
ENDBRANCH   1  12
BRANCH   3  17
ATOM     17  O   UNL     1       7.602   5.504  20.149  0.00  0.00    +0.000 OA
ATOM     18  H   UNL     1       7.651   6.397  20.508  0.00  0.00    +0.000 HD
ENDBRANCH   3  17
BRANCH   5  19
ATOM     19  O   UNL     1       7.685   5.574  15.481  0.00  0.00    +0.000 OA
ATOM     20  H   UNL     1       7.978   4.890  14.862  0.00  0.00    +0.000 HD
ENDBRANCH   5  19
TORSDOF 5
ENDMDL
MODEL 4
REMARK VINA RESULT:      -7.0      1.960      2.501
REMARK  Name = 
REMARK  5 active torsions:
REMARK  status: ('A' for Active; 'I' for Inactive)
REMARK    1  A    between atoms: O_1  and  C_2
REMARK    2  A    between atoms: C_2  and  C_3
REMARK    3  A    between atoms: N_7  and  C_8
REMARK    4  A    between atoms: C_10  and  O_11
REMARK    5  A    between atoms: C_13  and  O_14
REMARK                            x       y       z     vdW  Elec       q    Type
REMARK                         _______ _______ _______ _____ _____    ______ ____
ROOT
ATOM      1  C   UNL     1       5.417   5.068  18.194  0.00  0.00    +0.000 A 
ATOM      2  N   UNL     1       6.082   4.903  19.369  0.00  0.00    +0.000 NA
ATOM      3  C   UNL     1       7.287   5.499  19.603  0.00  0.00    +0.000 A 
ATOM      4  N   UNL     1       7.847   6.293  18.667  0.00  0.00    +0.000 NA
ATOM      5  C   UNL     1       7.224   6.525  17.481  0.00  0.00    +0.000 A 
ATOM      6  C   UNL     1       5.990   5.921  17.205  0.00  0.00    +0.000 A 
ATOM      7 CL   UNL     1       5.211   6.354  15.678  0.00  0.00    +0.000 Cl
ENDROOT
BRANCH   1  12
ATOM      8  C   UNL     1       1.944   4.597  19.113  0.00  0.00    +0.000 C 
ATOM      9  C   UNL     1       1.839   3.051  19.037  0.00  0.00    +0.000 C 
ATOM     10  C   UNL     1       3.215   2.376  19.036  0.00  0.00    +0.000 C 
ATOM     11  C   UNL     1       4.075   2.926  17.894  0.00  0.00    +0.000 C 
ATOM     12  N   UNL     1       4.165   4.376  18.018  0.00  0.00    +0.000 N 
ATOM     13  C   UNL     1       2.894   5.104  18.005  0.00  0.00    +0.000 C 
BRANCH   8  14
ATOM     14  C   UNL     1       2.376   5.129  20.490  0.00  0.00    +0.000 C 
BRANCH  14  15
ATOM     15  O   UNL     1       2.645   6.503  20.411  0.00  0.00    +0.000 OA
ATOM     16  H   UNL     1       2.275   6.810  19.543  0.00  0.00    +0.000 HD
ENDBRANCH  14  15
ENDBRANCH   8  14
ENDBRANCH   1  12
BRANCH   3  17
ATOM     17  O   UNL     1       7.927   5.288  20.767  0.00  0.00    +0.000 OA
ATOM     18  H   UNL     1       8.420   4.476  20.935  0.00  0.00    +0.000 HD
ENDBRANCH   3  17
BRANCH   5  19
ATOM     19  O   UNL     1       7.795   7.350  16.579  0.00  0.00    +0.000 OA
ATOM     20  H   UNL     1       7.367   8.173  16.303  0.00  0.00    +0.000 HD
ENDBRANCH   5  19
TORSDOF 5
ENDMDL
MODEL 5
REMARK VINA RESULT:      -7.0      1.328      1.499
REMARK  Name = 
REMARK  5 active torsions:
REMARK  status: ('A' for Active; 'I' for Inactive)
REMARK    1  A    between atoms: O_1  and  C_2
REMARK    2  A    between atoms: C_2  and  C_3
REMARK    3  A    between atoms: N_7  and  C_8
REMARK    4  A    between atoms: C_10  and  O_11
REMARK    5  A    between atoms: C_13  and  O_14
REMARK                            x       y       z     vdW  Elec       q    Type
REMARK                         _______ _______ _______ _____ _____    ______ ____
ROOT
ATOM      1  C   UNL     1       5.152   5.023  18.551  0.00  0.00    +0.000 A 
ATOM      2  N   UNL     1       5.927   5.310  19.631  0.00  0.00    +0.000 NA
ATOM      3  C   UNL     1       7.289   5.272  19.569  0.00  0.00    +0.000 A 
ATOM      4  N   UNL     1       7.910   4.962  18.412  0.00  0.00    +0.000 NA
ATOM      5  C   UNL     1       7.199   4.691  17.286  0.00  0.00    +0.000 A 
ATOM      6  C   UNL     1       5.797   4.712  17.317  0.00  0.00    +0.000 A 
ATOM      7 CL   UNL     1       4.959   4.440  15.785  0.00  0.00    +0.000 Cl
ENDROOT
BRANCH   1  12
ATOM      8  C   UNL     1       2.188   4.055  20.394  0.00  0.00    +0.000 C 
ATOM      9  C   UNL     1       1.202   3.792  19.226  0.00  0.00    +0.000 C 
ATOM     10  C   UNL     1       1.923   3.633  17.883  0.00  0.00    +0.000 C 
ATOM     11  C   UNL     1       2.796   4.860  17.601  0.00  0.00    +0.000 C 
ATOM     12  N   UNL     1       3.721   5.055  18.712  0.00  0.00    +0.000 N 
ATOM     13  C   UNL     1       3.113   5.238  20.032  0.00  0.00    +0.000 C 
BRANCH   8  14
ATOM     14  C   UNL     1       3.012   2.824  20.808  0.00  0.00    +0.000 C 
BRANCH  14  15
ATOM     15  O   UNL     1       2.682   2.442  22.117  0.00  0.00    +0.000 OA
ATOM     16  H   UNL     1       3.191   1.610  22.300  0.00  0.00    +0.000 HD
ENDBRANCH  14  15
ENDBRANCH   8  14
ENDBRANCH   1  12
BRANCH   3  17
ATOM     17  O   UNL     1       8.021   5.535  20.667  0.00  0.00    +0.000 OA
ATOM     18  H   UNL     1       7.611   5.806  21.497  0.00  0.00    +0.000 HD
ENDBRANCH   3  17
BRANCH   5  19
ATOM     19  O   UNL     1       7.850   4.417  16.137  0.00  0.00    +0.000 OA
ATOM     20  H   UNL     1       7.415   4.497  15.276  0.00  0.00    +0.000 HD
ENDBRANCH   5  19
TORSDOF 5
ENDMDL
MODEL 6
REMARK VINA RESULT:      -6.8      1.731      2.235
REMARK  Name = 
REMARK  5 active torsions:
REMARK  status: ('A' for Active; 'I' for Inactive)
REMARK    1  A    between atoms: O_1  and  C_2
REMARK    2  A    between atoms: C_2  and  C_3
REMARK    3  A    between atoms: N_7  and  C_8
REMARK    4  A    between atoms: C_10  and  O_11
REMARK    5  A    between atoms: C_13  and  O_14
REMARK                            x       y       z     vdW  Elec       q    Type
REMARK                         _______ _______ _______ _____ _____    ______ ____
ROOT
ATOM      1  C   UNL     1       5.410   5.011  18.258  0.00  0.00    +0.000 A 
ATOM      2  N   UNL     1       6.091   4.848  19.424  0.00  0.00    +0.000 NA
ATOM      3  C   UNL     1       7.295   5.448  19.644  0.00  0.00    +0.000 A 
ATOM      4  N   UNL     1       7.840   6.246  18.702  0.00  0.00    +0.000 NA
ATOM      5  C   UNL     1       7.202   6.476  17.524  0.00  0.00    +0.000 A 
ATOM      6  C   UNL     1       5.967   5.867  17.263  0.00  0.00    +0.000 A 
ATOM      7 CL   UNL     1       5.168   6.298  15.746  0.00  0.00    +0.000 Cl
ENDROOT
BRANCH   1  12
ATOM      8  C   UNL     1       2.271   3.851  19.646  0.00  0.00    +0.000 C 
ATOM      9  C   UNL     1       2.165   2.456  18.976  0.00  0.00    +0.000 C 
ATOM     10  C   UNL     1       3.505   1.986  18.400  0.00  0.00    +0.000 C 
ATOM     11  C   UNL     1       4.055   3.026  17.420  0.00  0.00    +0.000 C 
ATOM     12  N   UNL     1       4.160   4.313  18.097  0.00  0.00    +0.000 N 
ATOM     13  C   UNL     1       2.918   4.849  18.659  0.00  0.00    +0.000 C 
BRANCH   8  14
ATOM     14  C   UNL     1       3.021   3.846  20.988  0.00  0.00    +0.000 C 
BRANCH  14  15
ATOM     15  O   UNL     1       2.164   3.427  22.017  0.00  0.00    +0.000 OA
ATOM     16  H   UNL     1       1.841   2.525  21.758  0.00  0.00    +0.000 HD
ENDBRANCH  14  15
ENDBRANCH   8  14
ENDBRANCH   1  12
BRANCH   3  17
ATOM     17  O   UNL     1       7.951   5.239  20.800  0.00  0.00    +0.000 OA
ATOM     18  H   UNL     1       8.201   4.353  21.089  0.00  0.00    +0.000 HD
ENDBRANCH   3  17
BRANCH   5  19
ATOM     19  O   UNL     1       7.759   7.305  16.617  0.00  0.00    +0.000 OA
ATOM     20  H   UNL     1       8.574   7.790  16.807  0.00  0.00    +0.000 HD
ENDBRANCH   5  19
TORSDOF 5
ENDMDL
MODEL 7
REMARK VINA RESULT:      -6.7      2.502      5.274
REMARK  Name = 
REMARK  5 active torsions:
REMARK  status: ('A' for Active; 'I' for Inactive)
REMARK    1  A    between atoms: O_1  and  C_2
REMARK    2  A    between atoms: C_2  and  C_3
REMARK    3  A    between atoms: N_7  and  C_8
REMARK    4  A    between atoms: C_10  and  O_11
REMARK    5  A    between atoms: C_13  and  O_14
REMARK                            x       y       z     vdW  Elec       q    Type
REMARK                         _______ _______ _______ _____ _____    ______ ____
ROOT
ATOM      1  C   UNL     1       4.005   4.266  18.903  0.00  0.00    +0.000 A 
ATOM      2  N   UNL     1       4.344   3.026  18.460  0.00  0.00    +0.000 NA
ATOM      3  C   UNL     1       3.543   1.942  18.670  0.00  0.00    +0.000 A 
ATOM      4  N   UNL     1       2.367   2.081  19.318  0.00  0.00    +0.000 NA
ATOM      5  C   UNL     1       1.952   3.296  19.764  0.00  0.00    +0.000 A 
ATOM      6  C   UNL     1       2.756   4.428  19.572  0.00  0.00    +0.000 A 
ATOM      7 CL   UNL     1       2.094   5.979  20.101  0.00  0.00    +0.000 Cl
ENDROOT
BRANCH   1  12
ATOM      8  C   UNL     1       5.691   6.492  16.596  0.00  0.00    +0.000 C 
ATOM      9  C   UNL     1       7.098   6.560  17.245  0.00  0.00    +0.000 C 
ATOM     10  C   UNL     1       7.326   5.428  18.253  0.00  0.00    +0.000 C 
ATOM     11  C   UNL     1       6.227   5.436  19.319  0.00  0.00    +0.000 C 
ATOM     12  N   UNL     1       4.926   5.349  18.666  0.00  0.00    +0.000 N 
ATOM     13  C   UNL     1       4.616   6.407  17.702  0.00  0.00    +0.000 C 
BRANCH   8  14
ATOM     14  C   UNL     1       5.524   5.349  15.581  0.00  0.00    +0.000 C 
BRANCH  14  15
ATOM     15  O   UNL     1       6.527   5.423  14.603  0.00  0.00    +0.000 OA
ATOM     16  H   UNL     1       6.084   5.743  13.775  0.00  0.00    +0.000 HD
ENDBRANCH  14  15
ENDBRANCH   8  14
ENDBRANCH   1  12
BRANCH   3  17
ATOM     17  O   UNL     1       3.927   0.727  18.241  0.00  0.00    +0.000 OA
ATOM     18  H   UNL     1       3.321  -0.024  18.235  0.00  0.00    +0.000 HD
ENDBRANCH   3  17
BRANCH   5  19
ATOM     19  O   UNL     1       0.756   3.407  20.379  0.00  0.00    +0.000 OA
ATOM     20  H   UNL     1       0.199   4.189  20.266  0.00  0.00    +0.000 HD
ENDBRANCH   5  19
TORSDOF 5
ENDMDL
MODEL 8
REMARK VINA RESULT:      -6.6      1.865      2.126
REMARK  Name = 
REMARK  5 active torsions:
REMARK  status: ('A' for Active; 'I' for Inactive)
REMARK    1  A    between atoms: O_1  and  C_2
REMARK    2  A    between atoms: C_2  and  C_3
REMARK    3  A    between atoms: N_7  and  C_8
REMARK    4  A    between atoms: C_10  and  O_11
REMARK    5  A    between atoms: C_13  and  O_14
REMARK                            x       y       z     vdW  Elec       q    Type
REMARK                         _______ _______ _______ _____ _____    ______ ____
ROOT
ATOM      1  C   UNL     1       4.762   4.754  18.642  0.00  0.00    +0.000 A 
ATOM      2  N   UNL     1       6.025   4.252  18.649  0.00  0.00    +0.000 NA
ATOM      3  C   UNL     1       6.938   4.589  17.694  0.00  0.00    +0.000 A 
ATOM      4  N   UNL     1       6.610   5.457  16.714  0.00  0.00    +0.000 NA
ATOM      5  C   UNL     1       5.373   6.019  16.662  0.00  0.00    +0.000 A 
ATOM      6  C   UNL     1       4.409   5.687  17.623  0.00  0.00    +0.000 A 
ATOM      7 CL   UNL     1       2.861   6.537  17.530  0.00  0.00    +0.000 Cl
ENDROOT
BRANCH   1  12
ATOM      8  C   UNL     1       2.148   2.511  19.766  0.00  0.00    +0.000 C 
ATOM      9  C   UNL     1       1.263   3.493  20.577  0.00  0.00    +0.000 C 
ATOM     10  C   UNL     1       1.571   4.958  20.249  0.00  0.00    +0.000 C 
ATOM     11  C   UNL     1       3.058   5.249  20.468  0.00  0.00    +0.000 C 
ATOM     12  N   UNL     1       3.851   4.320  19.671  0.00  0.00    +0.000 N 
ATOM     13  C   UNL     1       3.635   2.896  19.937  0.00  0.00    +0.000 C 
BRANCH   8  14
ATOM     14  C   UNL     1       1.776   2.415  18.277  0.00  0.00    +0.000 C 
BRANCH  14  15
ATOM     15  O   UNL     1       2.731   1.650  17.591  0.00  0.00    +0.000 OA
ATOM     16  H   UNL     1       2.517   1.739  16.626  0.00  0.00    +0.000 HD
ENDBRANCH  14  15
ENDBRANCH   8  14
ENDBRANCH   1  12
BRANCH   3  17
ATOM     17  O   UNL     1       8.170   4.049  17.719  0.00  0.00    +0.000 OA
ATOM     18  H   UNL     1       8.844   4.293  17.073  0.00  0.00    +0.000 HD
ENDBRANCH   3  17
BRANCH   5  19
ATOM     19  O   UNL     1       5.087   6.908  15.688  0.00  0.00    +0.000 OA
ATOM     20  H   UNL     1       5.750   7.178  15.038  0.00  0.00    +0.000 HD
ENDBRANCH   5  19
TORSDOF 5
ENDMDL
MODEL 9
REMARK VINA RESULT:      -6.5      1.536      1.536
REMARK  Name = 
REMARK  5 active torsions:
REMARK  status: ('A' for Active; 'I' for Inactive)
REMARK    1  A    between atoms: O_1  and  C_2
REMARK    2  A    between atoms: C_2  and  C_3
REMARK    3  A    between atoms: N_7  and  C_8
REMARK    4  A    between atoms: C_10  and  O_11
REMARK    5  A    between atoms: C_13  and  O_14
REMARK                            x       y       z     vdW  Elec       q    Type
REMARK                         _______ _______ _______ _____ _____    ______ ____
ROOT
ATOM      1  C   UNL     1       5.008   4.952  19.287  0.00  0.00    +0.000 A 
ATOM      2  N   UNL     1       6.223   4.923  19.898  0.00  0.00    +0.000 NA
ATOM      3  C   UNL     1       7.317   5.526  19.351  0.00  0.00    +0.000 A 
ATOM      4  N   UNL     1       7.214   6.193  18.183  0.00  0.00    +0.000 NA
ATOM      5  C   UNL     1       6.025   6.287  17.531  0.00  0.00    +0.000 A 
ATOM      6  C   UNL     1       4.883   5.670  18.061  0.00  0.00    +0.000 A 
ATOM      7 CL   UNL     1       3.362   5.923  17.195  0.00  0.00    +0.000 Cl
ENDROOT
BRANCH   1  12
ATOM      8  C   UNL     1       2.652   2.201  19.327  0.00  0.00    +0.000 C 
ATOM      9  C   UNL     1       1.379   2.926  19.838  0.00  0.00    +0.000 C 
ATOM     10  C   UNL     1       1.491   4.449  19.714  0.00  0.00    +0.000 C 
ATOM     11  C   UNL     1       2.741   4.951  20.444  0.00  0.00    +0.000 C 
ATOM     12  N   UNL     1       3.912   4.260  19.918  0.00  0.00    +0.000 N 
ATOM     13  C   UNL     1       3.898   2.799  20.017  0.00  0.00    +0.000 C 
BRANCH   8  14
ATOM     14  C   UNL     1       2.812   2.218  17.798  0.00  0.00    +0.000 C 
BRANCH  14  15
ATOM     15  O   UNL     1       4.155   2.011  17.452  0.00  0.00    +0.000 OA
ATOM     16  H   UNL     1       4.637   2.842  17.700  0.00  0.00    +0.000 HD
ENDBRANCH  14  15
ENDBRANCH   8  14
ENDBRANCH   1  12
BRANCH   3  17
ATOM     17  O   UNL     1       8.508   5.451  19.972  0.00  0.00    +0.000 OA
ATOM     18  H   UNL     1       9.338   5.536  19.488  0.00  0.00    +0.000 HD
ENDBRANCH   3  17
BRANCH   5  19
ATOM     19  O   UNL     1       5.948   6.988  16.382  0.00  0.00    +0.000 OA
ATOM     20  H   UNL     1       5.902   7.954  16.380  0.00  0.00    +0.000 HD
ENDBRANCH   5  19
TORSDOF 5
ENDMDL
