MODEL 1
REMARK VINA RESULT:      -5.9      0.000      0.000
REMARK  Name = 
REMARK  7 active torsions:
REMARK  status: ('A' for Active; 'I' for Inactive)
REMARK    1  A    between atoms: C_1  and  C_2
REMARK    2  A    between atoms: C_2  and  S_3
REMARK    3  A    between atoms: S_3  and  N_6
REMARK    4  A    between atoms: N_10  and  C_11
REMARK    5  A    between atoms: C_18  and  C_19
REMARK    6  A    between atoms: C_18  and  C_20
REMARK    7  A    between atoms: N_22  and  C_23
REMARK                            x       y       z     vdW  Elec       q    Type
REMARK                         _______ _______ _______ _____ _____    ______ ____
ROOT
ATOM      1  N   UNL     1       3.259  14.150  19.636  0.00  0.00    +0.000 NA
ATOM      2  C   UNL     1       3.011  14.371  21.076  0.00  0.00    +0.000 C 
ATOM      3  C   UNL     1       1.548  14.446  21.481  0.00  0.00    +0.000 C 
ATOM      4  O   UNL     1       1.201  15.164  22.418  0.00  0.00    +0.000 OA
ATOM      5  N   UNL     1       0.749  13.449  20.880  0.00  0.00    +0.000 N 
ATOM      6  C   UNL     1       0.899  13.222  19.405  0.00  0.00    +0.000 C 
ATOM      7  C   UNL     1       0.302  14.435  18.649  0.00  0.00    +0.000 C 
ATOM      8  C   UNL     1       2.405  13.071  19.063  0.00  0.00    +0.000 C 
ENDROOT
BRANCH   5   9
ATOM      9  C   UNL     1      -0.459  13.074  21.523  0.00  0.00    +0.000 A 
ATOM     10  C   UNL     1      -1.587  13.902  21.533  0.00  0.00    +0.000 A 
ATOM     11  C   UNL     1      -2.684  13.585  22.340  0.00  0.00    +0.000 A 
ATOM     12  C   UNL     1      -2.647  12.451  23.147  0.00  0.00    +0.000 A 
ATOM     13 CL   UNL     1      -3.969  12.092  24.188  0.00  0.00    +0.000 Cl
ATOM     14  C   UNL     1      -1.530  11.618  23.140  0.00  0.00    +0.000 A 
ATOM     15  C   UNL     1      -0.438  11.930  22.328  0.00  0.00    +0.000 A 
ENDBRANCH   5   9
BRANCH   6  16
ATOM     16  C   UNL     1       0.106  11.991  18.816  0.00  0.00    +0.000 C 
ATOM     17  O   UNL     1       0.521  10.832  18.945  0.00  0.00    +0.000 OA
ATOM     18  N   UNL     1      -1.057  12.234  18.104  0.00  0.00    +0.000 N 
ATOM     19  H   UNL     1      -1.211  13.137  17.687  0.00  0.00    +0.000 HD
BRANCH  18  20
ATOM     20  C   UNL     1      -1.896  11.123  17.624  0.00  0.00    +0.000 C 
ATOM     21  C   UNL     1      -2.916  10.712  18.697  0.00  0.00    +0.000 C 
ATOM     22  C   UNL     1      -4.062  11.688  18.944  0.00  0.00    +0.000 C 
ATOM     23  C   UNL     1      -5.231  11.529  17.979  0.00  0.00    +0.000 C 
ATOM     24  C   UNL     1      -4.923  11.837  16.521  0.00  0.00    +0.000 C 
ATOM     25  C   UNL     1      -3.848  10.952  15.897  0.00  0.00    +0.000 C 
ATOM     26  C   UNL     1      -2.433  11.420  16.217  0.00  0.00    +0.000 C 
ENDBRANCH  18  20
ENDBRANCH   6  16
BRANCH   1  27
ATOM     27  S   UNL     1       3.583  15.520  18.705  0.00  0.00    +0.000 S 
ATOM     28  O   UNL     1       2.856  16.625  19.290  0.00  0.00    +0.000 OA
ATOM     29  O   UNL     1       3.424  15.154  17.316  0.00  0.00    +0.000 OA
BRANCH  27  31
ATOM     30  C   UNL     1       5.608  17.134  19.566  0.00  0.00    +0.000 C 
ATOM     31  C   UNL     1       5.332  15.749  19.016  0.00  0.00    +0.000 C 
ENDBRANCH  27  31
ENDBRANCH   1  27
TORSDOF 5
ENDMDL
MODEL 2
REMARK VINA RESULT:      -5.6      6.058      8.703
REMARK  Name = 
REMARK  7 active torsions:
REMARK  status: ('A' for Active; 'I' for Inactive)
REMARK    1  A    between atoms: C_1  and  C_2
REMARK    2  A    between atoms: C_2  and  S_3
REMARK    3  A    between atoms: S_3  and  N_6
REMARK    4  A    between atoms: N_10  and  C_11
REMARK    5  A    between atoms: C_18  and  C_19
REMARK    6  A    between atoms: C_18  and  C_20
REMARK    7  A    between atoms: N_22  and  C_23
REMARK                            x       y       z     vdW  Elec       q    Type
REMARK                         _______ _______ _______ _____ _____    ______ ____
ROOT
ATOM      1  N   UNL     1       3.344  17.420  19.672  0.00  0.00    +0.000 NA
ATOM      2  C   UNL     1       2.963  17.303  21.095  0.00  0.00    +0.000 C 
ATOM      3  C   UNL     1       3.508  16.082  21.817  0.00  0.00    +0.000 C 
ATOM      4  O   UNL     1       2.858  15.555  22.719  0.00  0.00    +0.000 OA
ATOM      5  N   UNL     1       4.868  15.826  21.536  0.00  0.00    +0.000 N 
ATOM      6  C   UNL     1       5.309  15.858  20.102  0.00  0.00    +0.000 C 
ATOM      7  C   UNL     1       4.721  14.625  19.371  0.00  0.00    +0.000 C 
ATOM      8  C   UNL     1       4.795  17.164  19.441  0.00  0.00    +0.000 C 
ENDROOT
BRANCH   5   9
ATOM      9  C   UNL     1       5.624  15.083  22.480  0.00  0.00    +0.000 A 
ATOM     10  C   UNL     1       6.655  15.660  23.229  0.00  0.00    +0.000 A 
ATOM     11  C   UNL     1       7.501  14.854  23.998  0.00  0.00    +0.000 A 
ATOM     12  C   UNL     1       7.323  13.473  24.007  0.00  0.00    +0.000 A 
ATOM     13 CL   UNL     1       8.400  12.473  24.901  0.00  0.00    +0.000 Cl
ATOM     14  C   UNL     1       6.295  12.890  23.268  0.00  0.00    +0.000 A 
ATOM     15  C   UNL     1       5.447  13.695  22.507  0.00  0.00    +0.000 A 
ENDBRANCH   5   9
BRANCH   6  16
ATOM     16  C   UNL     1       6.863  15.729  19.859  0.00  0.00    +0.000 C 
ATOM     17  O   UNL     1       7.618  16.703  19.968  0.00  0.00    +0.000 OA
ATOM     18  N   UNL     1       7.371  14.499  19.474  0.00  0.00    +0.000 N 
ATOM     19  H   UNL     1       6.767  13.820  19.039  0.00  0.00    +0.000 HD
BRANCH  18  20
ATOM     20  C   UNL     1       8.822  14.289  19.337  0.00  0.00    +0.000 C 
ATOM     21  C   UNL     1       9.419  13.762  20.651  0.00  0.00    +0.000 C 
ATOM     22  C   UNL     1       9.078  12.319  21.012  0.00  0.00    +0.000 C 
ATOM     23  C   UNL     1       9.984  11.284  20.355  0.00  0.00    +0.000 C 
ATOM     24  C   UNL     1       9.898  11.210  18.837  0.00  0.00    +0.000 C 
ATOM     25  C   UNL     1      10.279  12.499  18.114  0.00  0.00    +0.000 C 
ATOM     26  C   UNL     1       9.136  13.506  18.054  0.00  0.00    +0.000 C 
ENDBRANCH  18  20
ENDBRANCH   6  16
BRANCH   1  27
ATOM     27  S   UNL     1       2.222  16.864  18.540  0.00  0.00    +0.000 S 
ATOM     28  O   UNL     1       1.495  15.772  19.148  0.00  0.00    +0.000 OA
ATOM     29  O   UNL     1       2.911  16.711  17.279  0.00  0.00    +0.000 OA
BRANCH  27  31
ATOM     30  C   UNL     1       0.866  18.617  16.949  0.00  0.00    +0.000 C 
ATOM     31  C   UNL     1       1.133  18.279  18.403  0.00  0.00    +0.000 C 
ENDBRANCH  27  31
ENDBRANCH   1  27
TORSDOF 5
ENDMDL
MODEL 3
REMARK VINA RESULT:      -5.6      6.031      9.052
REMARK  Name = 
REMARK  7 active torsions:
REMARK  status: ('A' for Active; 'I' for Inactive)
REMARK    1  A    between atoms: C_1  and  C_2
REMARK    2  A    between atoms: C_2  and  S_3
REMARK    3  A    between atoms: S_3  and  N_6
REMARK    4  A    between atoms: N_10  and  C_11
REMARK    5  A    between atoms: C_18  and  C_19
REMARK    6  A    between atoms: C_18  and  C_20
REMARK    7  A    between atoms: N_22  and  C_23
REMARK                            x       y       z     vdW  Elec       q    Type
REMARK                         _______ _______ _______ _____ _____    ______ ____
ROOT
ATOM      1  N   UNL     1       3.706  17.382  19.339  0.00  0.00    +0.000 NA
ATOM      2  C   UNL     1       3.460  17.285  20.792  0.00  0.00    +0.000 C 
ATOM      3  C   UNL     1       4.071  16.073  21.476  0.00  0.00    +0.000 C 
ATOM      4  O   UNL     1       3.510  15.559  22.443  0.00  0.00    +0.000 OA
ATOM      5  N   UNL     1       5.399  15.812  21.072  0.00  0.00    +0.000 N 
ATOM      6  C   UNL     1       5.702  15.824  19.603  0.00  0.00    +0.000 C 
ATOM      7  C   UNL     1       5.049  14.582  18.947  0.00  0.00    +0.000 C 
ATOM      8  C   UNL     1       5.128  17.122  18.975  0.00  0.00    +0.000 C 
ENDROOT
BRANCH   5   9
ATOM      9  C   UNL     1       6.241  15.082  21.951  0.00  0.00    +0.000 A 
ATOM     10  C   UNL     1       6.051  13.720  22.207  0.00  0.00    +0.000 A 
ATOM     11  C   UNL     1       6.774  13.088  23.223  0.00  0.00    +0.000 A 
ATOM     12  C   UNL     1       7.674  13.821  23.992  0.00  0.00    +0.000 A 
ATOM     13 CL   UNL     1       8.519  13.061  25.284  0.00  0.00    +0.000 Cl
ATOM     14  C   UNL     1       7.874  15.177  23.742  0.00  0.00    +0.000 A 
ATOM     15  C   UNL     1       7.158  15.806  22.721  0.00  0.00    +0.000 A 
ENDBRANCH   5   9
BRANCH   6  16
ATOM     16  C   UNL     1       7.227  15.690  19.216  0.00  0.00    +0.000 C 
ATOM     17  O   UNL     1       7.936  16.686  19.023  0.00  0.00    +0.000 OA
ATOM     18  N   UNL     1       7.757  14.421  19.050  0.00  0.00    +0.000 N 
ATOM     19  H   UNL     1       7.148  13.645  18.845  0.00  0.00    +0.000 HD
BRANCH  18  20
ATOM     20  C   UNL     1       9.194  14.230  18.796  0.00  0.00    +0.000 C 
ATOM     21  C   UNL     1       9.979  14.201  20.116  0.00  0.00    +0.000 C 
ATOM     22  C   UNL     1       9.798  12.956  20.979  0.00  0.00    +0.000 C 
ATOM     23  C   UNL     1      10.700  11.792  20.586  0.00  0.00    +0.000 C 
ATOM     24  C   UNL     1      10.446  11.204  19.205  0.00  0.00    +0.000 C 
ATOM     25  C   UNL     1      10.638  12.183  18.051  0.00  0.00    +0.000 C 
ATOM     26  C   UNL     1       9.420  13.069  17.815  0.00  0.00    +0.000 C 
ENDBRANCH  18  20
ENDBRANCH   6  16
BRANCH   1  27
ATOM     27  S   UNL     1       2.482  16.811  18.325  0.00  0.00    +0.000 S 
ATOM     28  O   UNL     1       1.966  15.593  18.909  0.00  0.00    +0.000 OA
ATOM     29  O   UNL     1       2.981  16.854  16.969  0.00  0.00    +0.000 OA
BRANCH  27  31
ATOM     30  C   UNL     1       0.316  18.122  17.307  0.00  0.00    +0.000 C 
ATOM     31  C   UNL     1       1.253  18.102  18.499  0.00  0.00    +0.000 C 
ENDBRANCH  27  31
ENDBRANCH   1  27
TORSDOF 5
ENDMDL
MODEL 4
REMARK VINA RESULT:      -5.4      3.819      6.967
REMARK  Name = 
REMARK  7 active torsions:
REMARK  status: ('A' for Active; 'I' for Inactive)
REMARK    1  A    between atoms: C_1  and  C_2
REMARK    2  A    between atoms: C_2  and  S_3
REMARK    3  A    between atoms: S_3  and  N_6
REMARK    4  A    between atoms: N_10  and  C_11
REMARK    5  A    between atoms: C_18  and  C_19
REMARK    6  A    between atoms: C_18  and  C_20
REMARK    7  A    between atoms: N_22  and  C_23
REMARK                            x       y       z     vdW  Elec       q    Type
REMARK                         _______ _______ _______ _____ _____    ______ ____
ROOT
ATOM      1  N   UNL     1      -4.099  15.702  23.560  0.00  0.00    +0.000 NA
ATOM      2  C   UNL     1      -4.614  14.324  23.696  0.00  0.00    +0.000 C 
ATOM      3  C   UNL     1      -4.051  13.318  22.705  0.00  0.00    +0.000 C 
ATOM      4  O   UNL     1      -4.747  12.383  22.310  0.00  0.00    +0.000 OA
ATOM      5  N   UNL     1      -2.654  13.423  22.533  0.00  0.00    +0.000 N 
ATOM      6  C   UNL     1      -2.072  14.789  22.319  0.00  0.00    +0.000 C 
ATOM      7  C   UNL     1      -2.482  15.292  20.912  0.00  0.00    +0.000 C 
ATOM      8  C   UNL     1      -2.617  15.751  23.407  0.00  0.00    +0.000 C 
ENDROOT
BRANCH   5   9
ATOM      9  C   UNL     1      -1.943  12.284  22.075  0.00  0.00    +0.000 A 
ATOM     10  C   UNL     1      -1.175  11.489  22.933  0.00  0.00    +0.000 A 
ATOM     11  C   UNL     1      -0.336  10.499  22.411  0.00  0.00    +0.000 A 
ATOM     12  C   UNL     1      -0.256  10.314  21.033  0.00  0.00    +0.000 A 
ATOM     13 CL   UNL     1       0.822   9.140  20.385  0.00  0.00    +0.000 Cl
ATOM     14  C   UNL     1      -1.020  11.097  20.171  0.00  0.00    +0.000 A 
ATOM     15  C   UNL     1      -1.863  12.081  20.693  0.00  0.00    +0.000 A 
ENDBRANCH   5   9
BRANCH   6  16
ATOM     16  C   UNL     1      -0.495  14.868  22.297  0.00  0.00    +0.000 C 
ATOM     17  O   UNL     1       0.163  14.953  23.342  0.00  0.00    +0.000 OA
ATOM     18  N   UNL     1       0.148  14.884  21.071  0.00  0.00    +0.000 N 
ATOM     19  H   UNL     1      -0.351  15.176  20.245  0.00  0.00    +0.000 HD
BRANCH  18  20
ATOM     20  C   UNL     1       1.617  14.847  20.987  0.00  0.00    +0.000 C 
ATOM     21  C   UNL     1       2.106  13.428  20.659  0.00  0.00    +0.000 C 
ATOM     22  C   UNL     1       1.849  12.940  19.237  0.00  0.00    +0.000 C 
ATOM     23  C   UNL     1       2.905  13.379  18.230  0.00  0.00    +0.000 C 
ATOM     24  C   UNL     1       2.996  14.880  17.989  0.00  0.00    +0.000 C 
ATOM     25  C   UNL     1       3.346  15.703  19.225  0.00  0.00    +0.000 C 
ATOM     26  C   UNL     1       2.137  15.993  20.107  0.00  0.00    +0.000 C 
ENDBRANCH  18  20
ENDBRANCH   6  16
BRANCH   1  27
ATOM     27  S   UNL     1      -5.051  16.783  22.680  0.00  0.00    +0.000 S 
ATOM     28  O   UNL     1      -5.895  16.003  21.803  0.00  0.00    +0.000 OA
ATOM     29  O   UNL     1      -4.182  17.821  22.174  0.00  0.00    +0.000 OA
BRANCH  27  31
ATOM     30  C   UNL     1      -5.226  17.820  25.197  0.00  0.00    +0.000 C 
ATOM     31  C   UNL     1      -6.062  17.495  23.975  0.00  0.00    +0.000 C 
ENDBRANCH  27  31
ENDBRANCH   1  27
TORSDOF 5
ENDMDL
MODEL 5
REMARK VINA RESULT:      -5.4      1.120      1.440
REMARK  Name = 
REMARK  7 active torsions:
REMARK  status: ('A' for Active; 'I' for Inactive)
REMARK    1  A    between atoms: C_1  and  C_2
REMARK    2  A    between atoms: C_2  and  S_3
REMARK    3  A    between atoms: S_3  and  N_6
REMARK    4  A    between atoms: N_10  and  C_11
REMARK    5  A    between atoms: C_18  and  C_19
REMARK    6  A    between atoms: C_18  and  C_20
REMARK    7  A    between atoms: N_22  and  C_23
REMARK                            x       y       z     vdW  Elec       q    Type
REMARK                         _______ _______ _______ _____ _____    ______ ____
ROOT
ATOM      1  N   UNL     1       2.417  14.405  20.592  0.00  0.00    +0.000 NA
ATOM      2  C   UNL     1       1.889  14.873  21.890  0.00  0.00    +0.000 C 
ATOM      3  C   UNL     1       0.374  14.917  21.999  0.00  0.00    +0.000 C 
ATOM      4  O   UNL     1      -0.173  15.772  22.696  0.00  0.00    +0.000 OA
ATOM      5  N   UNL     1      -0.260  13.771  21.470  0.00  0.00    +0.000 N 
ATOM      6  C   UNL     1       0.180  13.283  20.121  0.00  0.00    +0.000 C 
ATOM      7  C   UNL     1      -0.301  14.288  19.045  0.00  0.00    +0.000 C 
ATOM      8  C   UNL     1       1.728  13.179  20.097  0.00  0.00    +0.000 C 
ENDROOT
BRANCH   5   9
ATOM      9  C   UNL     1      -1.555  13.438  21.943  0.00  0.00    +0.000 A 
ATOM     10  C   UNL     1      -2.701  14.125  21.527  0.00  0.00    +0.000 A 
ATOM     11  C   UNL     1      -3.926  13.898  22.162  0.00  0.00    +0.000 A 
ATOM     12  C   UNL     1      -4.001  12.996  23.220  0.00  0.00    +0.000 A 
ATOM     13 CL   UNL     1      -5.493  12.761  24.045  0.00  0.00    +0.000 Cl
ATOM     14  C   UNL     1      -2.867  12.303  23.639  0.00  0.00    +0.000 A 
ATOM     15  C   UNL     1      -1.646  12.525  23.000  0.00  0.00    +0.000 A 
ENDBRANCH   5   9
BRANCH   6  16
ATOM     16  C   UNL     1      -0.441  11.910  19.652  0.00  0.00    +0.000 C 
ATOM     17  O   UNL     1      -0.003  10.827  20.063  0.00  0.00    +0.000 OA
ATOM     18  N   UNL     1      -1.471  11.933  18.727  0.00  0.00    +0.000 N 
ATOM     19  H   UNL     1      -1.590  12.734  18.127  0.00  0.00    +0.000 HD
BRANCH  18  20
ATOM     20  C   UNL     1      -2.162  10.694  18.333  0.00  0.00    +0.000 C 
ATOM     21  C   UNL     1      -3.683  10.906  18.311  0.00  0.00    +0.000 C 
ATOM     22  C   UNL     1      -4.225  11.764  17.172  0.00  0.00    +0.000 C 
ATOM     23  C   UNL     1      -4.459  10.999  15.874  0.00  0.00    +0.000 C 
ATOM     24  C   UNL     1      -3.210  10.432  15.215  0.00  0.00    +0.000 C 
ATOM     25  C   UNL     1      -2.441   9.426  16.066  0.00  0.00    +0.000 C 
ATOM     26  C   UNL     1      -1.515  10.089  17.079  0.00  0.00    +0.000 C 
ENDBRANCH  18  20
ENDBRANCH   6  16
BRANCH   1  27
ATOM     27  S   UNL     1       2.868  15.596  19.484  0.00  0.00    +0.000 S 
ATOM     28  O   UNL     1       2.047  16.759  19.739  0.00  0.00    +0.000 OA
ATOM     29  O   UNL     1       2.930  14.980  18.178  0.00  0.00    +0.000 OA
BRANCH  27  31
ATOM     30  C   UNL     1       5.546  15.421  18.998  0.00  0.00    +0.000 C 
ATOM     31  C   UNL     1       4.544  15.945  20.007  0.00  0.00    +0.000 C 
ENDBRANCH  27  31
ENDBRANCH   1  27
TORSDOF 5
ENDMDL
MODEL 6
REMARK VINA RESULT:      -5.4      1.025      1.448
REMARK  Name = 
REMARK  7 active torsions:
REMARK  status: ('A' for Active; 'I' for Inactive)
REMARK    1  A    between atoms: C_1  and  C_2
REMARK    2  A    between atoms: C_2  and  S_3
REMARK    3  A    between atoms: S_3  and  N_6
REMARK    4  A    between atoms: N_10  and  C_11
REMARK    5  A    between atoms: C_18  and  C_19
REMARK    6  A    between atoms: C_18  and  C_20
REMARK    7  A    between atoms: N_22  and  C_23
REMARK                            x       y       z     vdW  Elec       q    Type
REMARK                         _______ _______ _______ _____ _____    ______ ____
ROOT
ATOM      1  N   UNL     1       2.827  14.261  20.504  0.00  0.00    +0.000 NA
ATOM      2  C   UNL     1       2.335  14.880  21.753  0.00  0.00    +0.000 C 
ATOM      3  C   UNL     1       0.829  15.064  21.839  0.00  0.00    +0.000 C 
ATOM      4  O   UNL     1       0.356  16.018  22.456  0.00  0.00    +0.000 OA
ATOM      5  N   UNL     1       0.101  13.937  21.400  0.00  0.00    +0.000 N 
ATOM      6  C   UNL     1       0.503  13.301  20.101  0.00  0.00    +0.000 C 
ATOM      7  C   UNL     1       0.116  14.251  18.940  0.00  0.00    +0.000 C 
ATOM      8  C   UNL     1       2.036  13.062  20.105  0.00  0.00    +0.000 C 
ENDROOT
BRANCH   5   9
ATOM      9  C   UNL     1      -1.221  13.757  21.883  0.00  0.00    +0.000 A 
ATOM     10  C   UNL     1      -1.526  12.847  22.901  0.00  0.00    +0.000 A 
ATOM     11  C   UNL     1      -2.859  12.558  23.209  0.00  0.00    +0.000 A 
ATOM     12  C   UNL     1      -3.885  13.167  22.490  0.00  0.00    +0.000 A 
ATOM     13 CL   UNL     1      -5.524  12.767  22.824  0.00  0.00    +0.000 Cl
ATOM     14  C   UNL     1      -3.591  14.078  21.478  0.00  0.00    +0.000 A 
ATOM     15  C   UNL     1      -2.260  14.373  21.175  0.00  0.00    +0.000 A 
ENDBRANCH   5   9
BRANCH   6  16
ATOM     16  C   UNL     1      -0.233  11.953  19.740  0.00  0.00    +0.000 C 
ATOM     17  O   UNL     1       0.038  10.892  20.318  0.00  0.00    +0.000 OA
ATOM     18  N   UNL     1      -1.171  11.965  18.721  0.00  0.00    +0.000 N 
ATOM     19  H   UNL     1      -1.144  12.690  18.022  0.00  0.00    +0.000 HD
BRANCH  18  20
ATOM     20  C   UNL     1      -1.967  10.765  18.412  0.00  0.00    +0.000 C 
ATOM     21  C   UNL     1      -3.436  10.972  18.812  0.00  0.00    +0.000 C 
ATOM     22  C   UNL     1      -4.241  11.931  17.941  0.00  0.00    +0.000 C 
ATOM     23  C   UNL     1      -4.824  11.291  16.687  0.00  0.00    +0.000 C 
ATOM     24  C   UNL     1      -3.805  10.795  15.671  0.00  0.00    +0.000 C 
ATOM     25  C   UNL     1      -2.860   9.716  16.192  0.00  0.00    +0.000 C 
ATOM     26  C   UNL     1      -1.686  10.285  16.981  0.00  0.00    +0.000 C 
ENDBRANCH  18  20
ENDBRANCH   6  16
BRANCH   1  27
ATOM     27  S   UNL     1       3.385  15.313  19.307  0.00  0.00    +0.000 S 
ATOM     28  O   UNL     1       2.618  16.535  19.411  0.00  0.00    +0.000 OA
ATOM     29  O   UNL     1       3.465  14.567  18.072  0.00  0.00    +0.000 OA
BRANCH  27  31
ATOM     30  C   UNL     1       5.707  16.719  19.043  0.00  0.00    +0.000 C 
ATOM     31  C   UNL     1       5.056  15.628  19.869  0.00  0.00    +0.000 C 
ENDBRANCH  27  31
ENDBRANCH   1  27
TORSDOF 5
ENDMDL
MODEL 7
REMARK VINA RESULT:      -5.3      2.734      6.484
REMARK  Name = 
REMARK  7 active torsions:
REMARK  status: ('A' for Active; 'I' for Inactive)
REMARK    1  A    between atoms: C_1  and  C_2
REMARK    2  A    between atoms: C_2  and  S_3
REMARK    3  A    between atoms: S_3  and  N_6
REMARK    4  A    between atoms: N_10  and  C_11
REMARK    5  A    between atoms: C_18  and  C_19
REMARK    6  A    between atoms: C_18  and  C_20
REMARK    7  A    between atoms: N_22  and  C_23
REMARK                            x       y       z     vdW  Elec       q    Type
REMARK                         _______ _______ _______ _____ _____    ______ ____
ROOT
ATOM      1  N   UNL     1      -2.512  11.595  17.478  0.00  0.00    +0.000 NA
ATOM      2  C   UNL     1      -3.835  12.016  17.986  0.00  0.00    +0.000 C 
ATOM      3  C   UNL     1      -3.945  12.132  19.497  0.00  0.00    +0.000 C 
ATOM      4  O   UNL     1      -5.011  11.888  20.061  0.00  0.00    +0.000 OA
ATOM      5  N   UNL     1      -2.839  12.779  20.091  0.00  0.00    +0.000 N 
ATOM      6  C   UNL     1      -1.464  12.350  19.672  0.00  0.00    +0.000 C 
ATOM      7  C   UNL     1      -1.190  10.933  20.237  0.00  0.00    +0.000 C 
ATOM      8  C   UNL     1      -1.387  12.329  18.123  0.00  0.00    +0.000 C 
ENDROOT
BRANCH   5   9
ATOM      9  C   UNL     1      -3.020  13.402  21.353  0.00  0.00    +0.000 A 
ATOM     10  C   UNL     1      -2.961  14.790  21.516  0.00  0.00    +0.000 A 
ATOM     11  C   UNL     1      -2.947  15.348  22.798  0.00  0.00    +0.000 A 
ATOM     12  C   UNL     1      -2.977  14.518  23.916  0.00  0.00    +0.000 A 
ATOM     13 CL   UNL     1      -2.896  15.197  25.494  0.00  0.00    +0.000 Cl
ATOM     14  C   UNL     1      -3.041  13.134  23.764  0.00  0.00    +0.000 A 
ATOM     15  C   UNL     1      -3.063  12.577  22.484  0.00  0.00    +0.000 A 
ENDBRANCH   5   9
BRANCH   6  16
ATOM     16  C   UNL     1      -0.272  13.214  20.242  0.00  0.00    +0.000 C 
ATOM     17  O   UNL     1       0.193  13.011  21.371  0.00  0.00    +0.000 OA
ATOM     18  N   UNL     1       0.226  14.246  19.464  0.00  0.00    +0.000 N 
ATOM     19  H   UNL     1      -0.346  14.650  18.740  0.00  0.00    +0.000 HD
BRANCH  18  20
ATOM     20  C   UNL     1       1.405  15.016  19.894  0.00  0.00    +0.000 C 
ATOM     21  C   UNL     1       2.698  14.252  19.571  0.00  0.00    +0.000 C 
ATOM     22  C   UNL     1       3.082  14.174  18.096  0.00  0.00    +0.000 C 
ATOM     23  C   UNL     1       3.847  15.391  17.589  0.00  0.00    +0.000 C 
ATOM     24  C   UNL     1       3.071  16.701  17.598  0.00  0.00    +0.000 C 
ATOM     25  C   UNL     1       2.598  17.152  18.977  0.00  0.00    +0.000 C 
ATOM     26  C   UNL     1       1.305  16.470  19.413  0.00  0.00    +0.000 C 
ENDBRANCH  18  20
ENDBRANCH   6  16
BRANCH   1  27
ATOM     27  S   UNL     1      -2.325   9.956  17.122  0.00  0.00    +0.000 S 
ATOM     28  O   UNL     1      -3.446   9.253  17.706  0.00  0.00    +0.000 OA
ATOM     29  O   UNL     1      -0.959   9.595  17.425  0.00  0.00    +0.000 OA
BRANCH  27  31
ATOM     30  C   UNL     1      -3.943  10.260  14.946  0.00  0.00    +0.000 C 
ATOM     31  C   UNL     1      -2.510   9.961  15.341  0.00  0.00    +0.000 C 
ENDBRANCH  27  31
ENDBRANCH   1  27
TORSDOF 5
ENDMDL
MODEL 8
REMARK VINA RESULT:      -5.3      4.983      8.738
REMARK  Name = 
REMARK  7 active torsions:
REMARK  status: ('A' for Active; 'I' for Inactive)
REMARK    1  A    between atoms: C_1  and  C_2
REMARK    2  A    between atoms: C_2  and  S_3
REMARK    3  A    between atoms: S_3  and  N_6
REMARK    4  A    between atoms: N_10  and  C_11
REMARK    5  A    between atoms: C_18  and  C_19
REMARK    6  A    between atoms: C_18  and  C_20
REMARK    7  A    between atoms: N_22  and  C_23
REMARK                            x       y       z     vdW  Elec       q    Type
REMARK                         _______ _______ _______ _____ _____    ______ ____
ROOT
ATOM      1  N   UNL     1       3.651  17.608  19.952  0.00  0.00    +0.000 NA
ATOM      2  C   UNL     1       3.322  17.470  21.385  0.00  0.00    +0.000 C 
ATOM      3  C   UNL     1       3.806  16.190  22.045  0.00  0.00    +0.000 C 
ATOM      4  O   UNL     1       3.158  15.680  22.958  0.00  0.00    +0.000 OA
ATOM      5  N   UNL     1       5.131  15.847  21.697  0.00  0.00    +0.000 N 
ATOM      6  C   UNL     1       5.513  15.896  20.247  0.00  0.00    +0.000 C 
ATOM      7  C   UNL     1       4.808  14.734  19.505  0.00  0.00    +0.000 C 
ATOM      8  C   UNL     1       5.068  17.257  19.649  0.00  0.00    +0.000 C 
ENDROOT
BRANCH   5   9
ATOM      9  C   UNL     1       5.869  15.021  22.584  0.00  0.00    +0.000 A 
ATOM     10  C   UNL     1       6.963  15.500  23.313  0.00  0.00    +0.000 A 
ATOM     11  C   UNL     1       7.780  14.612  24.019  0.00  0.00    +0.000 A 
ATOM     12  C   UNL     1       7.512  13.246  23.984  0.00  0.00    +0.000 A 
ATOM     13 CL   UNL     1       8.552  12.144  24.800  0.00  0.00    +0.000 Cl
ATOM     14  C   UNL     1       6.422  12.760  23.265  0.00  0.00    +0.000 A 
ATOM     15  C   UNL     1       5.602  13.648  22.566  0.00  0.00    +0.000 A 
ENDBRANCH   5   9
BRANCH   6  16
ATOM     16  C   UNL     1       7.042  15.665  19.932  0.00  0.00    +0.000 C 
ATOM     17  O   UNL     1       7.872  16.577  20.044  0.00  0.00    +0.000 OA
ATOM     18  N   UNL     1       7.442  14.418  19.480  0.00  0.00    +0.000 N 
ATOM     19  H   UNL     1       6.773  13.802  19.047  0.00  0.00    +0.000 HD
BRANCH  18  20
ATOM     20  C   UNL     1       8.867  14.110  19.273  0.00  0.00    +0.000 C 
ATOM     21  C   UNL     1       9.468  13.459  20.528  0.00  0.00    +0.000 C 
ATOM     22  C   UNL     1       9.031  12.026  20.817  0.00  0.00    +0.000 C 
ATOM     23  C   UNL     1       9.830  10.969  20.064  0.00  0.00    +0.000 C 
ATOM     24  C   UNL     1       9.685  10.996  18.548  0.00  0.00    +0.000 C 
ATOM     25  C   UNL     1      10.138  12.295  17.888  0.00  0.00    +0.000 C 
ATOM     26  C   UNL     1       9.075  13.387  17.935  0.00  0.00    +0.000 C 
ENDBRANCH  18  20
ENDBRANCH   6  16
BRANCH   1  27
ATOM     27  S   UNL     1       2.446  17.172  18.853  0.00  0.00    +0.000 S 
ATOM     28  O   UNL     1       3.091  16.512  17.740  0.00  0.00    +0.000 OA
ATOM     29  O   UNL     1       1.589  18.320  18.665  0.00  0.00    +0.000 OA
BRANCH  27  31
ATOM     30  C   UNL     1       0.797  14.999  18.881  0.00  0.00    +0.000 C 
ATOM     31  C   UNL     1       1.534  15.955  19.798  0.00  0.00    +0.000 C 
ENDBRANCH  27  31
ENDBRANCH   1  27
TORSDOF 5
ENDMDL
MODEL 9
REMARK VINA RESULT:      -5.3      1.200      1.452
REMARK  Name = 
REMARK  7 active torsions:
REMARK  status: ('A' for Active; 'I' for Inactive)
REMARK    1  A    between atoms: C_1  and  C_2
REMARK    2  A    between atoms: C_2  and  S_3
REMARK    3  A    between atoms: S_3  and  N_6
REMARK    4  A    between atoms: N_10  and  C_11
REMARK    5  A    between atoms: C_18  and  C_19
REMARK    6  A    between atoms: C_18  and  C_20
REMARK    7  A    between atoms: N_22  and  C_23
REMARK                            x       y       z     vdW  Elec       q    Type
REMARK                         _______ _______ _______ _____ _____    ______ ____
ROOT
ATOM      1  N   UNL     1       2.917  14.126  20.332  0.00  0.00    +0.000 NA
ATOM      2  C   UNL     1       2.513  14.534  21.694  0.00  0.00    +0.000 C 
ATOM      3  C   UNL     1       1.014  14.620  21.929  0.00  0.00    +0.000 C 
ATOM      4  O   UNL     1       0.558  15.450  22.716  0.00  0.00    +0.000 OA
ATOM      5  N   UNL     1       0.298  13.529  21.391  0.00  0.00    +0.000 N 
ATOM      6  C   UNL     1       0.609  13.108  19.985  0.00  0.00    +0.000 C 
ATOM      7  C   UNL     1       0.080  14.190  19.011  0.00  0.00    +0.000 C 
ATOM      8  C   UNL     1       2.145  12.955  19.827  0.00  0.00    +0.000 C 
ENDROOT
BRANCH   5   9
ATOM      9  C   UNL     1      -0.967  13.210  21.949  0.00  0.00    +0.000 A 
ATOM     10  C   UNL     1      -2.072  14.059  21.827  0.00  0.00    +0.000 A 
ATOM     11  C   UNL     1      -3.239  13.805  22.555  0.00  0.00    +0.000 A 
ATOM     12  C   UNL     1      -3.294  12.711  23.415  0.00  0.00    +0.000 A 
ATOM     13 CL   UNL     1      -4.704  12.431  24.360  0.00  0.00    +0.000 Cl
ATOM     14  C   UNL     1      -2.200  11.857  23.540  0.00  0.00    +0.000 A 
ATOM     15  C   UNL     1      -1.038  12.107  22.807  0.00  0.00    +0.000 A 
ENDBRANCH   5   9
BRANCH   6  16
ATOM     16  C   UNL     1      -0.098  11.786  19.492  0.00  0.00    +0.000 C 
ATOM     17  O   UNL     1       0.388  10.670  19.715  0.00  0.00    +0.000 OA
ATOM     18  N   UNL     1      -1.267  11.897  18.758  0.00  0.00    +0.000 N 
ATOM     19  H   UNL     1      -1.474  12.753  18.269  0.00  0.00    +0.000 HD
BRANCH  18  20
ATOM     20  C   UNL     1      -2.030  10.700  18.364  0.00  0.00    +0.000 C 
ATOM     21  C   UNL     1      -3.529  10.900  18.632  0.00  0.00    +0.000 C 
ATOM     22  C   UNL     1      -4.254  11.870  17.704  0.00  0.00    +0.000 C 
ATOM     23  C   UNL     1      -4.721  11.244  16.395  0.00  0.00    +0.000 C 
ATOM     24  C   UNL     1      -3.613  10.761  15.469  0.00  0.00    +0.000 C 
ATOM     25  C   UNL     1      -2.717   9.676  16.060  0.00  0.00    +0.000 C 
ATOM     26  C   UNL     1      -1.619  10.237  16.958  0.00  0.00    +0.000 C 
ENDBRANCH  18  20
ENDBRANCH   6  16
BRANCH   1  27
ATOM     27  S   UNL     1       3.321  15.366  19.260  0.00  0.00    +0.000 S 
ATOM     28  O   UNL     1       2.816  14.996  17.957  0.00  0.00    +0.000 OA
ATOM     29  O   UNL     1       4.712  15.693  19.473  0.00  0.00    +0.000 OA
BRANCH  27  31
ATOM     30  C   UNL     1       1.659  17.475  18.774  0.00  0.00    +0.000 C 
ATOM     31  C   UNL     1       2.335  16.717  19.900  0.00  0.00    +0.000 C 
ENDBRANCH  27  31
ENDBRANCH   1  27
TORSDOF 5
ENDMDL
