MODEL 1
REMARK VINA RESULT:      -8.9      0.000      0.000
REMARK  Name = 
REMARK  6 active torsions:
REMARK  status: ('A' for Active; 'I' for Inactive)
REMARK    1  A    between atoms: C_2  and  OXT_3
REMARK    2  A    between atoms: C_2  and  CA_4
REMARK    3  A    between atoms: C_8  and  C_9
REMARK    4  A    between atoms: N_11  and  C_12
REMARK    5  A    between atoms: N_11  and  C_22
REMARK    6  A    between atoms: C_12  and  C_13
REMARK                            x       y       z     vdW  Elec       q    Type
REMARK                         _______ _______ _______ _____ _____    ______ ____
ROOT
ATOM      1  C   UNL     1       3.245   6.531  18.789  0.00  0.00    +0.000 C 
ATOM      2  O   UNL     1       4.412   6.924  18.663  0.00  0.00    +0.000 OA
ATOM      3  N   UNL     1       2.959   5.140  18.779  0.00  0.00    +0.000 N 
ENDROOT
BRANCH   1   8
ATOM      4  CA  UNL     1       1.030   9.196  20.230  0.00  0.00    +0.000 A 
ATOM      5  C   UNL     1       0.810  10.020  19.136  0.00  0.00    +0.000 A 
ATOM      6  C   UNL     1       1.247   9.586  17.898  0.00  0.00    +0.000 A 
ATOM      7  C   UNL     1       1.937   8.380  17.804  0.00  0.00    +0.000 A 
ATOM      8  C   UNL     1       2.206   7.638  18.958  0.00  0.00    +0.000 A 
ATOM      9  N   UNL     1       1.721   8.006  20.185  0.00  0.00    +0.000 NA
BRANCH   4  11
ATOM     10  O   UNL     1       0.710  10.673  22.107  0.00  0.00    +0.000 OA
ATOM     11  C   UNL     1       0.440   9.627  21.542  0.00  0.00    +0.000 C 
BRANCH  11  12
ATOM     12  OXT UNL     1      -0.455   8.727  22.008  0.00  0.00    +0.000 OA
ATOM     13  HXT UNL     1      -1.306   8.853  21.540  0.00  0.00    +0.000 HD
ENDBRANCH  11  12
ENDBRANCH   4  11
ENDBRANCH   1   8
BRANCH   3  14
ATOM     14  C   UNL     1       1.616   4.643  19.146  0.00  0.00    +0.000 C 
ATOM     15  C   UNL     1       1.205   3.257  18.632  0.00  0.00    +0.000 C 
ATOM     16  C   UNL     1       1.642   2.061  19.475  0.00  0.00    +0.000 C 
ATOM     17  C   UNL     1       1.651   2.272  20.988  0.00  0.00    +0.000 C 
ATOM     18  C   UNL     1       2.042   3.663  21.463  0.00  0.00    +0.000 C 
ATOM     19  C   UNL     1       1.360   4.753  20.660  0.00  0.00    +0.000 C 
ENDBRANCH   3  14
BRANCH   3  20
ATOM     20  C   UNL     1       4.141   4.232  18.834  0.00  0.00    +0.000 C 
BRANCH  20  21
ATOM     21  C   UNL     1       5.181   4.340  17.724  0.00  0.00    +0.000 A 
ATOM     22  C   UNL     1       6.545   4.586  18.002  0.00  0.00    +0.000 A 
ATOM     23  C   UNL     1       7.503   4.679  16.979  0.00  0.00    +0.000 A 
ATOM     24  C   UNL     1       7.069   4.549  15.682  0.00  0.00    +0.000 A 
ATOM     25  C   UNL     1       5.762   4.244  15.392  0.00  0.00    +0.000 A 
ATOM     26  C   UNL     1       4.813   4.091  16.384  0.00  0.00    +0.000 A 
ATOM     27  O   UNL     1       5.539   4.175  14.049  0.00  0.00    +0.000 OA
ATOM     28  C   UNL     1       6.765   4.769  13.570  0.00  0.00    +0.000 C 
ATOM     29  O   UNL     1       7.817   4.729  14.557  0.00  0.00    +0.000 OA
ENDBRANCH  20  21
ENDBRANCH   3  20
TORSDOF 6
ENDMDL
MODEL 2
REMARK VINA RESULT:      -8.5      1.235      1.802
REMARK  Name = 
REMARK  6 active torsions:
REMARK  status: ('A' for Active; 'I' for Inactive)
REMARK    1  A    between atoms: C_2  and  OXT_3
REMARK    2  A    between atoms: C_2  and  CA_4
REMARK    3  A    between atoms: C_8  and  C_9
REMARK    4  A    between atoms: N_11  and  C_12
REMARK    5  A    between atoms: N_11  and  C_22
REMARK    6  A    between atoms: C_12  and  C_13
REMARK                            x       y       z     vdW  Elec       q    Type
REMARK                         _______ _______ _______ _____ _____    ______ ____
ROOT
ATOM      1  C   UNL     1       3.685   6.885  18.191  0.00  0.00    +0.000 C 
ATOM      2  O   UNL     1       4.644   7.553  17.785  0.00  0.00    +0.000 OA
ATOM      3  N   UNL     1       3.766   5.467  18.214  0.00  0.00    +0.000 N 
ENDROOT
BRANCH   1   8
ATOM      4  CA  UNL     1       1.198   8.765  20.280  0.00  0.00    +0.000 A 
ATOM      5  C   UNL     1       0.671   9.668  19.369  0.00  0.00    +0.000 A 
ATOM      6  C   UNL     1       1.013   9.522  18.037  0.00  0.00    +0.000 A 
ATOM      7  C   UNL     1       1.911   8.523  17.671  0.00  0.00    +0.000 A 
ATOM      8  C   UNL     1       2.478   7.701  18.650  0.00  0.00    +0.000 A 
ATOM      9  N   UNL     1       2.101   7.775  19.965  0.00  0.00    +0.000 NA
BRANCH   4  11
ATOM     10  O   UNL     1       1.359   9.361  22.609  0.00  0.00    +0.000 OA
ATOM     11  C   UNL     1       0.718   8.865  21.700  0.00  0.00    +0.000 C 
BRANCH  11  12
ATOM     12  OXT UNL     1      -0.531   8.365  21.841  0.00  0.00    +0.000 OA
ATOM     13  HXT UNL     1      -1.144   8.877  21.275  0.00  0.00    +0.000 HD
ENDBRANCH  11  12
ENDBRANCH   4  11
ENDBRANCH   1   8
BRANCH   3  14
ATOM     14  C   UNL     1       2.729   4.663  18.895  0.00  0.00    +0.000 C 
ATOM     15  C   UNL     1       1.800   3.812  18.020  0.00  0.00    +0.000 C 
ATOM     16  C   UNL     1       2.311   2.428  17.629  0.00  0.00    +0.000 C 
ATOM     17  C   UNL     1       3.145   1.697  18.680  0.00  0.00    +0.000 C 
ATOM     18  C   UNL     1       4.039   2.572  19.545  0.00  0.00    +0.000 C 
ATOM     19  C   UNL     1       3.321   3.814  20.034  0.00  0.00    +0.000 C 
ENDBRANCH   3  14
BRANCH   3  20
ATOM     20  C   UNL     1       5.113   4.887  17.941  0.00  0.00    +0.000 C 
BRANCH  20  21
ATOM     21  C   UNL     1       5.528   4.689  16.487  0.00  0.00    +0.000 A 
ATOM     22  C   UNL     1       4.783   3.877  15.602  0.00  0.00    +0.000 A 
ATOM     23  C   UNL     1       5.164   3.701  14.261  0.00  0.00    +0.000 A 
ATOM     24  C   UNL     1       6.311   4.326  13.835  0.00  0.00    +0.000 A 
ATOM     25  C   UNL     1       7.014   5.171  14.658  0.00  0.00    +0.000 A 
ATOM     26  C   UNL     1       6.626   5.405  15.963  0.00  0.00    +0.000 A 
ATOM     27  O   UNL     1       8.123   5.674  14.046  0.00  0.00    +0.000 OA
ATOM     28  C   UNL     1       8.176   4.807  12.892  0.00  0.00    +0.000 C 
ATOM     29  O   UNL     1       6.906   4.180  12.618  0.00  0.00    +0.000 OA
ENDBRANCH  20  21
ENDBRANCH   3  20
TORSDOF 6
ENDMDL
MODEL 3
REMARK VINA RESULT:      -8.2      1.919      7.207
REMARK  Name = 
REMARK  6 active torsions:
REMARK  status: ('A' for Active; 'I' for Inactive)
REMARK    1  A    between atoms: C_2  and  OXT_3
REMARK    2  A    between atoms: C_2  and  CA_4
REMARK    3  A    between atoms: C_8  and  C_9
REMARK    4  A    between atoms: N_11  and  C_12
REMARK    5  A    between atoms: N_11  and  C_22
REMARK    6  A    between atoms: C_12  and  C_13
REMARK                            x       y       z     vdW  Elec       q    Type
REMARK                         _______ _______ _______ _____ _____    ______ ____
ROOT
ATOM      1  C   UNL     1       3.567   7.160  17.651  0.00  0.00    +0.000 C 
ATOM      2  O   UNL     1       3.179   8.155  17.025  0.00  0.00    +0.000 OA
ATOM      3  N   UNL     1       2.775   6.629  18.703  0.00  0.00    +0.000 N 
ENDROOT
BRANCH   1   8
ATOM      4  CA  UNL     1       6.873   5.388  17.533  0.00  0.00    +0.000 A 
ATOM      5  C   UNL     1       6.986   5.063  16.189  0.00  0.00    +0.000 A 
ATOM      6  C   UNL     1       6.056   5.592  15.313  0.00  0.00    +0.000 A 
ATOM      7  C   UNL     1       5.018   6.373  15.813  0.00  0.00    +0.000 A 
ATOM      8  C   UNL     1       4.908   6.590  17.189  0.00  0.00    +0.000 A 
ATOM      9  N   UNL     1       5.854   6.141  18.072  0.00  0.00    +0.000 NA
BRANCH   4  11
ATOM     10  O   UNL     1       8.183   5.361  19.556  0.00  0.00    +0.000 OA
ATOM     11  C   UNL     1       7.962   4.904  18.448  0.00  0.00    +0.000 C 
BRANCH  11  12
ATOM     12  OXT UNL     1       8.651   3.875  17.904  0.00  0.00    +0.000 OA
ATOM     13  HXT UNL     1       8.197   3.036  18.126  0.00  0.00    +0.000 HD
ENDBRANCH  11  12
ENDBRANCH   4  11
ENDBRANCH   1   8
BRANCH   3  14
ATOM     14  C   UNL     1       3.106   5.323  19.312  0.00  0.00    +0.000 C 
ATOM     15  C   UNL     1       2.425   4.964  20.639  0.00  0.00    +0.000 C 
ATOM     16  C   UNL     1       1.042   4.326  20.544  0.00  0.00    +0.000 C 
ATOM     17  C   UNL     1       0.816   3.382  19.364  0.00  0.00    +0.000 C 
ATOM     18  C   UNL     1       1.523   3.755  18.070  0.00  0.00    +0.000 C 
ATOM     19  C   UNL     1       2.962   4.169  18.305  0.00  0.00    +0.000 C 
ENDBRANCH   3  14
BRANCH   3  20
ATOM     20  C   UNL     1       1.402   7.196  18.835  0.00  0.00    +0.000 C 
BRANCH  20  21
ATOM     21  C   UNL     1       1.218   8.438  19.700  0.00  0.00    +0.000 A 
ATOM     22  C   UNL     1       1.288   8.381  21.111  0.00  0.00    +0.000 A 
ATOM     23  C   UNL     1       1.124   9.528  21.906  0.00  0.00    +0.000 A 
ATOM     24  C   UNL     1       0.863  10.717  21.269  0.00  0.00    +0.000 A 
ATOM     25  C   UNL     1       0.856  10.807  19.898  0.00  0.00    +0.000 A 
ATOM     26  C   UNL     1       1.072   9.705  19.095  0.00  0.00    +0.000 A 
ATOM     27  O   UNL     1       0.564  12.069  19.472  0.00  0.00    +0.000 OA
ATOM     28  C   UNL     1       0.098  12.641  20.713  0.00  0.00    +0.000 C 
ATOM     29  O   UNL     1       0.556  11.902  21.865  0.00  0.00    +0.000 OA
ENDBRANCH  20  21
ENDBRANCH   3  20
TORSDOF 6
ENDMDL
MODEL 4
REMARK VINA RESULT:      -8.2      1.185      1.461
REMARK  Name = 
REMARK  6 active torsions:
REMARK  status: ('A' for Active; 'I' for Inactive)
REMARK    1  A    between atoms: C_2  and  OXT_3
REMARK    2  A    between atoms: C_2  and  CA_4
REMARK    3  A    between atoms: C_8  and  C_9
REMARK    4  A    between atoms: N_11  and  C_12
REMARK    5  A    between atoms: N_11  and  C_22
REMARK    6  A    between atoms: C_12  and  C_13
REMARK                            x       y       z     vdW  Elec       q    Type
REMARK                         _______ _______ _______ _____ _____    ______ ____
ROOT
ATOM      1  C   UNL     1       3.811   6.757  18.246  0.00  0.00    +0.000 C 
ATOM      2  O   UNL     1       4.820   7.401  17.929  0.00  0.00    +0.000 OA
ATOM      3  N   UNL     1       3.843   5.338  18.239  0.00  0.00    +0.000 N 
ENDROOT
BRANCH   1   8
ATOM      4  CA  UNL     1       1.270   8.726  20.182  0.00  0.00    +0.000 A 
ATOM      5  C   UNL     1       0.801   9.619  19.230  0.00  0.00    +0.000 A 
ATOM      6  C   UNL     1       1.199   9.439  17.918  0.00  0.00    +0.000 A 
ATOM      7  C   UNL     1       2.094   8.416  17.613  0.00  0.00    +0.000 A 
ATOM      8  C   UNL     1       2.600   7.605  18.633  0.00  0.00    +0.000 A 
ATOM      9  N   UNL     1       2.167   7.713  19.928  0.00  0.00    +0.000 NA
BRANCH   4  11
ATOM     10  O   UNL     1       1.334   9.380  22.500  0.00  0.00    +0.000 OA
ATOM     11  C   UNL     1       0.729   8.865  21.577  0.00  0.00    +0.000 C 
BRANCH  11  12
ATOM     12  OXT UNL     1      -0.528   8.377  21.675  0.00  0.00    +0.000 OA
ATOM     13  HXT UNL     1      -0.493   7.399  21.646  0.00  0.00    +0.000 HD
ENDBRANCH  11  12
ENDBRANCH   4  11
ENDBRANCH   1   8
BRANCH   3  14
ATOM     14  C   UNL     1       2.732   4.555  18.820  0.00  0.00    +0.000 C 
ATOM     15  C   UNL     1       1.895   3.692  17.868  0.00  0.00    +0.000 C 
ATOM     16  C   UNL     1       2.433   2.296  17.563  0.00  0.00    +0.000 C 
ATOM     17  C   UNL     1       3.142   1.583  18.713  0.00  0.00    +0.000 C 
ATOM     18  C   UNL     1       3.945   2.471  19.652  0.00  0.00    +0.000 C 
ATOM     19  C   UNL     1       3.189   3.728  20.035  0.00  0.00    +0.000 C 
ENDBRANCH   3  14
BRANCH   3  20
ATOM     20  C   UNL     1       5.187   4.717  18.053  0.00  0.00    +0.000 C 
BRANCH  20  21
ATOM     21  C   UNL     1       5.752   4.638  16.639  0.00  0.00    +0.000 A 
ATOM     22  C   UNL     1       7.010   5.188  16.307  0.00  0.00    +0.000 A 
ATOM     23  C   UNL     1       7.531   5.109  15.004  0.00  0.00    +0.000 A 
ATOM     24  C   UNL     1       6.763   4.498  14.044  0.00  0.00    +0.000 A 
ATOM     25  C   UNL     1       5.568   3.898  14.358  0.00  0.00    +0.000 A 
ATOM     26  C   UNL     1       5.062   3.913  15.643  0.00  0.00    +0.000 A 
ATOM     27  O   UNL     1       4.961   3.363  13.261  0.00  0.00    +0.000 OA
ATOM     28  C   UNL     1       5.760   3.972  12.223  0.00  0.00    +0.000 C 
ATOM     29  O   UNL     1       7.038   4.431  12.711  0.00  0.00    +0.000 OA
ENDBRANCH  20  21
ENDBRANCH   3  20
TORSDOF 6
ENDMDL
MODEL 5
REMARK VINA RESULT:      -8.1      1.471      7.366
REMARK  Name = 
REMARK  6 active torsions:
REMARK  status: ('A' for Active; 'I' for Inactive)
REMARK    1  A    between atoms: C_2  and  OXT_3
REMARK    2  A    between atoms: C_2  and  CA_4
REMARK    3  A    between atoms: C_8  and  C_9
REMARK    4  A    between atoms: N_11  and  C_12
REMARK    5  A    between atoms: N_11  and  C_22
REMARK    6  A    between atoms: C_12  and  C_13
REMARK                            x       y       z     vdW  Elec       q    Type
REMARK                         _______ _______ _______ _____ _____    ______ ____
ROOT
ATOM      1  C   UNL     1       3.722   6.577  17.971  0.00  0.00    +0.000 C 
ATOM      2  O   UNL     1       3.419   7.565  17.290  0.00  0.00    +0.000 OA
ATOM      3  N   UNL     1       2.851   6.125  18.997  0.00  0.00    +0.000 N 
ENDROOT
BRANCH   1   8
ATOM      4  CA  UNL     1       6.675   5.253  16.070  0.00  0.00    +0.000 A 
ATOM      5  C   UNL     1       7.690   5.327  17.013  0.00  0.00    +0.000 A 
ATOM      6  C   UNL     1       7.346   5.643  18.315  0.00  0.00    +0.000 A 
ATOM      7  C   UNL     1       6.017   5.930  18.616  0.00  0.00    +0.000 A 
ATOM      8  C   UNL     1       5.055   5.926  17.603  0.00  0.00    +0.000 A 
ATOM      9  N   UNL     1       5.353   5.545  16.321  0.00  0.00    +0.000 NA
BRANCH   4  11
ATOM     10  O   UNL     1       7.816   5.385  13.952  0.00  0.00    +0.000 OA
ATOM     11  C   UNL     1       7.053   4.790  14.692  0.00  0.00    +0.000 C 
BRANCH  11  12
ATOM     12  OXT UNL     1       6.466   3.611  14.384  0.00  0.00    +0.000 OA
ATOM     13  HXT UNL     1       7.155   2.982  14.086  0.00  0.00    +0.000 HD
ENDBRANCH  11  12
ENDBRANCH   4  11
ENDBRANCH   1   8
BRANCH   3  14
ATOM     14  C   UNL     1       3.083   4.830  19.668  0.00  0.00    +0.000 C 
ATOM     15  C   UNL     1       2.194   4.481  20.869  0.00  0.00    +0.000 C 
ATOM     16  C   UNL     1       0.849   3.831  20.554  0.00  0.00    +0.000 C 
ATOM     17  C   UNL     1       0.826   2.872  19.365  0.00  0.00    +0.000 C 
ATOM     18  C   UNL     1       1.735   3.236  18.201  0.00  0.00    +0.000 C 
ATOM     19  C   UNL     1       3.114   3.663  18.665  0.00  0.00    +0.000 C 
ENDBRANCH   3  14
BRANCH   3  20
ATOM     20  C   UNL     1       1.503   6.763  19.034  0.00  0.00    +0.000 C 
BRANCH  20  21
ATOM     21  C   UNL     1       1.333   8.036  19.858  0.00  0.00    +0.000 A 
ATOM     22  C   UNL     1       1.407   8.027  21.269  0.00  0.00    +0.000 A 
ATOM     23  C   UNL     1       1.256   9.201  22.025  0.00  0.00    +0.000 A 
ATOM     24  C   UNL     1       1.005  10.370  21.348  0.00  0.00    +0.000 A 
ATOM     25  C   UNL     1       0.995  10.414  19.976  0.00  0.00    +0.000 A 
ATOM     26  C   UNL     1       1.198   9.283  19.209  0.00  0.00    +0.000 A 
ATOM     27  O   UNL     1       0.715  11.663  19.507  0.00  0.00    +0.000 OA
ATOM     28  C   UNL     1       0.257  12.282  20.729  0.00  0.00    +0.000 C 
ATOM     29  O   UNL     1       0.711  11.578  21.905  0.00  0.00    +0.000 OA
ENDBRANCH  20  21
ENDBRANCH   3  20
TORSDOF 6
ENDMDL
MODEL 6
REMARK VINA RESULT:      -7.7      0.978      1.548
REMARK  Name = 
REMARK  6 active torsions:
REMARK  status: ('A' for Active; 'I' for Inactive)
REMARK    1  A    between atoms: C_2  and  OXT_3
REMARK    2  A    between atoms: C_2  and  CA_4
REMARK    3  A    between atoms: C_8  and  C_9
REMARK    4  A    between atoms: N_11  and  C_12
REMARK    5  A    between atoms: N_11  and  C_22
REMARK    6  A    between atoms: C_12  and  C_13
REMARK                            x       y       z     vdW  Elec       q    Type
REMARK                         _______ _______ _______ _____ _____    ______ ____
ROOT
ATOM      1  C   UNL     1       2.885   7.129  19.205  0.00  0.00    +0.000 C 
ATOM      2  O   UNL     1       3.794   7.652  18.549  0.00  0.00    +0.000 OA
ATOM      3  N   UNL     1       2.986   5.769  19.601  0.00  0.00    +0.000 N 
ENDROOT
BRANCH   1   8
ATOM      4  CA  UNL     1       0.418   9.306  21.011  0.00  0.00    +0.000 A 
ATOM      5  C   UNL     1       0.011  10.179  20.014  0.00  0.00    +0.000 A 
ATOM      6  C   UNL     1       0.420   9.923  18.717  0.00  0.00    +0.000 A 
ATOM      7  C   UNL     1       1.265   8.844  18.473  0.00  0.00    +0.000 A 
ATOM      8  C   UNL     1       1.713   8.053  19.535  0.00  0.00    +0.000 A 
ATOM      9  N   UNL     1       1.266   8.239  20.816  0.00  0.00    +0.000 NA
BRANCH   4  11
ATOM     10  O   UNL     1       0.051  10.538  23.048  0.00  0.00    +0.000 OA
ATOM     11  C   UNL     1      -0.137   9.532  22.388  0.00  0.00    +0.000 C 
BRANCH  11  12
ATOM     12  OXT UNL     1      -0.900   8.492  22.796  0.00  0.00    +0.000 OA
ATOM     13  HXT UNL     1      -1.244   8.683  23.692  0.00  0.00    +0.000 HD
ENDBRANCH  11  12
ENDBRANCH   4  11
ENDBRANCH   1   8
BRANCH   3  14
ATOM     14  C   UNL     1       2.026   5.191  20.565  0.00  0.00    +0.000 C 
ATOM     15  C   UNL     1       0.725   4.602  20.006  0.00  0.00    +0.000 C 
ATOM     16  C   UNL     1       0.783   3.154  19.524  0.00  0.00    +0.000 C 
ATOM     17  C   UNL     1       1.689   2.217  20.319  0.00  0.00    +0.000 C 
ATOM     18  C   UNL     1       2.961   2.837  20.878  0.00  0.00    +0.000 C 
ATOM     19  C   UNL     1       2.704   4.188  21.516  0.00  0.00    +0.000 C 
ENDBRANCH   3  14
BRANCH   3  20
ATOM     20  C   UNL     1       4.310   5.121  19.374  0.00  0.00    +0.000 C 
BRANCH  20  21
ATOM     21  C   UNL     1       4.727   4.824  17.937  0.00  0.00    +0.000 A 
ATOM     22  C   UNL     1       4.009   3.918  17.124  0.00  0.00    +0.000 A 
ATOM     23  C   UNL     1       4.392   3.650  15.799  0.00  0.00    +0.000 A 
ATOM     24  C   UNL     1       5.513   4.282  15.316  0.00  0.00    +0.000 A 
ATOM     25  C   UNL     1       6.186   5.215  16.066  0.00  0.00    +0.000 A 
ATOM     26  C   UNL     1       5.795   5.538  17.351  0.00  0.00    +0.000 A 
ATOM     27  O   UNL     1       7.273   5.709  15.408  0.00  0.00    +0.000 OA
ATOM     28  C   UNL     1       7.354   4.756  14.326  0.00  0.00    +0.000 C 
ATOM     29  O   UNL     1       6.108   4.062  14.111  0.00  0.00    +0.000 OA
ENDBRANCH  20  21
ENDBRANCH   3  20
TORSDOF 6
ENDMDL
MODEL 7
REMARK VINA RESULT:      -7.5      1.400      1.865
REMARK  Name = 
REMARK  6 active torsions:
REMARK  status: ('A' for Active; 'I' for Inactive)
REMARK    1  A    between atoms: C_2  and  OXT_3
REMARK    2  A    between atoms: C_2  and  CA_4
REMARK    3  A    between atoms: C_8  and  C_9
REMARK    4  A    between atoms: N_11  and  C_12
REMARK    5  A    between atoms: N_11  and  C_22
REMARK    6  A    between atoms: C_12  and  C_13
REMARK                            x       y       z     vdW  Elec       q    Type
REMARK                         _______ _______ _______ _____ _____    ______ ____
ROOT
ATOM      1  C   UNL     1       3.285   6.448  19.338  0.00  0.00    +0.000 C 
ATOM      2  O   UNL     1       4.486   6.733  19.439  0.00  0.00    +0.000 OA
ATOM      3  N   UNL     1       2.897   5.140  18.942  0.00  0.00    +0.000 N 
ENDROOT
BRANCH   1   8
ATOM      4  CA  UNL     1       0.714   9.171  19.109  0.00  0.00    +0.000 A 
ATOM      5  C   UNL     1       0.171   9.172  20.385  0.00  0.00    +0.000 A 
ATOM      6  C   UNL     1       0.785   8.399  21.353  0.00  0.00    +0.000 A 
ATOM      7  C   UNL     1       1.877   7.610  21.001  0.00  0.00    +0.000 A 
ATOM      8  C   UNL     1       2.321   7.584  19.676  0.00  0.00    +0.000 A 
ATOM      9  N   UNL     1       1.780   8.395  18.714  0.00  0.00    +0.000 NA
BRANCH   4  11
ATOM     10  O   UNL     1      -0.909   9.881  17.475  0.00  0.00    +0.000 OA
ATOM     11  C   UNL     1       0.107  10.111  18.105  0.00  0.00    +0.000 C 
BRANCH  11  12
ATOM     12  OXT UNL     1       0.812  11.261  18.010  0.00  0.00    +0.000 OA
ATOM     13  HXT UNL     1       1.498  11.157  17.319  0.00  0.00    +0.000 HD
ENDBRANCH  11  12
ENDBRANCH   4  11
ENDBRANCH   1   8
BRANCH   3  14
ATOM     14  C   UNL     1       1.485   4.714  19.028  0.00  0.00    +0.000 C 
ATOM     15  C   UNL     1       1.018   3.603  18.079  0.00  0.00    +0.000 C 
ATOM     16  C   UNL     1       1.254   2.168  18.542  0.00  0.00    +0.000 C 
ATOM     17  C   UNL     1       1.111   1.912  20.041  0.00  0.00    +0.000 C 
ATOM     18  C   UNL     1       1.563   3.043  20.953  0.00  0.00    +0.000 C 
ATOM     19  C   UNL     1       1.070   4.394  20.475  0.00  0.00    +0.000 C 
ENDBRANCH   3  14
BRANCH   3  20
ATOM     20  C   UNL     1       3.989   4.126  18.884  0.00  0.00    +0.000 C 
BRANCH  20  21
ATOM     21  C   UNL     1       5.054   4.277  17.803  0.00  0.00    +0.000 A 
ATOM     22  C   UNL     1       6.403   4.558  18.119  0.00  0.00    +0.000 A 
ATOM     23  C   UNL     1       7.383   4.692  17.121  0.00  0.00    +0.000 A 
ATOM     24  C   UNL     1       6.985   4.566  15.812  0.00  0.00    +0.000 A 
ATOM     25  C   UNL     1       5.695   4.228  15.486  0.00  0.00    +0.000 A 
ATOM     26  C   UNL     1       4.726   4.035  16.451  0.00  0.00    +0.000 A 
ATOM     27  O   UNL     1       5.508   4.170  14.136  0.00  0.00    +0.000 OA
ATOM     28  C   UNL     1       6.728   4.805  13.696  0.00  0.00    +0.000 C 
ATOM     29  O   UNL     1       7.756   4.782  14.710  0.00  0.00    +0.000 OA
ENDBRANCH  20  21
ENDBRANCH   3  20
TORSDOF 6
ENDMDL
MODEL 8
REMARK VINA RESULT:      -7.3      1.442      7.314
REMARK  Name = 
REMARK  6 active torsions:
REMARK  status: ('A' for Active; 'I' for Inactive)
REMARK    1  A    between atoms: C_2  and  OXT_3
REMARK    2  A    between atoms: C_2  and  CA_4
REMARK    3  A    between atoms: C_8  and  C_9
REMARK    4  A    between atoms: N_11  and  C_12
REMARK    5  A    between atoms: N_11  and  C_22
REMARK    6  A    between atoms: C_12  and  C_13
REMARK                            x       y       z     vdW  Elec       q    Type
REMARK                         _______ _______ _______ _____ _____    ______ ____
ROOT
ATOM      1  C   UNL     1       3.792   6.425  17.657  0.00  0.00    +0.000 C 
ATOM      2  O   UNL     1       3.652   7.603  17.303  0.00  0.00    +0.000 OA
ATOM      3  N   UNL     1       2.760   5.773  18.382  0.00  0.00    +0.000 N 
ENDROOT
BRANCH   1   8
ATOM      4  CA  UNL     1       6.701   5.150  15.658  0.00  0.00    +0.000 A 
ATOM      5  C   UNL     1       7.734   5.190  16.582  0.00  0.00    +0.000 A 
ATOM      6  C   UNL     1       7.417   5.466  17.900  0.00  0.00    +0.000 A 
ATOM      7  C   UNL     1       6.095   5.748  18.236  0.00  0.00    +0.000 A 
ATOM      8  C   UNL     1       5.113   5.780  17.242  0.00  0.00    +0.000 A 
ATOM      9  N   UNL     1       5.385   5.439  15.943  0.00  0.00    +0.000 NA
BRANCH   4  11
ATOM     10  O   UNL     1       6.484   3.839  13.647  0.00  0.00    +0.000 OA
ATOM     11  C   UNL     1       7.050   4.728  14.259  0.00  0.00    +0.000 C 
BRANCH  11  12
ATOM     12  OXT UNL     1       8.050   5.480  13.746  0.00  0.00    +0.000 OA
ATOM     13  HXT UNL     1       8.903   5.166  14.112  0.00  0.00    +0.000 HD
ENDBRANCH  11  12
ENDBRANCH   4  11
ENDBRANCH   1   8
BRANCH   3  14
ATOM     14  C   UNL     1       2.809   4.315  18.620  0.00  0.00    +0.000 C 
ATOM     15  C   UNL     1       3.555   3.823  19.867  0.00  0.00    +0.000 C 
ATOM     16  C   UNL     1       2.759   3.790  21.169  0.00  0.00    +0.000 C 
ATOM     17  C   UNL     1       1.282   3.419  21.045  0.00  0.00    +0.000 C 
ATOM     18  C   UNL     1       0.578   3.904  19.787  0.00  0.00    +0.000 C 
ATOM     19  C   UNL     1       1.412   3.675  18.542  0.00  0.00    +0.000 C 
ENDBRANCH   3  14
BRANCH   3  20
ATOM     20  C   UNL     1       1.466   6.510  18.480  0.00  0.00    +0.000 C 
BRANCH  20  21
ATOM     21  C   UNL     1       1.364   7.650  19.487  0.00  0.00    +0.000 A 
ATOM     22  C   UNL     1       1.480   7.429  20.879  0.00  0.00    +0.000 A 
ATOM     23  C   UNL     1       1.391   8.482  21.805  0.00  0.00    +0.000 A 
ATOM     24  C   UNL     1       1.157   9.745  21.317  0.00  0.00    +0.000 A 
ATOM     25  C   UNL     1       1.107   9.993  19.967  0.00  0.00    +0.000 A 
ATOM     26  C   UNL     1       1.249   8.983  19.036  0.00  0.00    +0.000 A 
ATOM     27  O   UNL     1       0.853  11.305  19.699  0.00  0.00    +0.000 OA
ATOM     28  C   UNL     1       0.453  11.747  21.014  0.00  0.00    +0.000 C 
ATOM     29  O   UNL     1       0.920  10.864  22.056  0.00  0.00    +0.000 OA
ENDBRANCH  20  21
ENDBRANCH   3  20
TORSDOF 6
ENDMDL
MODEL 9
REMARK VINA RESULT:      -7.2      4.702      8.268
REMARK  Name = 
REMARK  6 active torsions:
REMARK  status: ('A' for Active; 'I' for Inactive)
REMARK    1  A    between atoms: C_2  and  OXT_3
REMARK    2  A    between atoms: C_2  and  CA_4
REMARK    3  A    between atoms: C_8  and  C_9
REMARK    4  A    between atoms: N_11  and  C_12
REMARK    5  A    between atoms: N_11  and  C_22
REMARK    6  A    between atoms: C_12  and  C_13
REMARK                            x       y       z     vdW  Elec       q    Type
REMARK                         _______ _______ _______ _____ _____    ______ ____
ROOT
ATOM      1  C   UNL     1      -2.477  10.950  17.864  0.00  0.00    +0.000 C 
ATOM      2  O   UNL     1      -1.966  10.339  16.917  0.00  0.00    +0.000 OA
ATOM      3  N   UNL     1      -1.652  11.535  18.860  0.00  0.00    +0.000 N 
ENDROOT
BRANCH   1   8
ATOM      4  CA  UNL     1      -6.101  10.705  18.808  0.00  0.00    +0.000 A 
ATOM      5  C   UNL     1      -6.676  11.702  18.033  0.00  0.00    +0.000 A 
ATOM      6  C   UNL     1      -5.888  12.318  17.078  0.00  0.00    +0.000 A 
ATOM      7  C   UNL     1      -4.546  11.961  16.971  0.00  0.00    +0.000 A 
ATOM      8  C   UNL     1      -4.004  11.013  17.842  0.00  0.00    +0.000 A 
ATOM      9  N   UNL     1      -4.777  10.334  18.747  0.00  0.00    +0.000 NA
BRANCH   4  11
ATOM     10  O   UNL     1      -7.226  10.305  20.901  0.00  0.00    +0.000 OA
ATOM     11  C   UNL     1      -7.006   9.965  19.752  0.00  0.00    +0.000 C 
BRANCH  11  12
ATOM     12  OXT UNL     1      -7.573   8.890  19.161  0.00  0.00    +0.000 OA
ATOM     13  HXT UNL     1      -8.474   9.129  18.864  0.00  0.00    +0.000 HD
ENDBRANCH  11  12
ENDBRANCH   4  11
ENDBRANCH   1   8
BRANCH   3  14
ATOM     14  C   UNL     1      -2.223  12.450  19.871  0.00  0.00    +0.000 C 
ATOM     15  C   UNL     1      -2.359  11.927  21.307  0.00  0.00    +0.000 C 
ATOM     16  C   UNL     1      -1.126  12.058  22.199  0.00  0.00    +0.000 C 
ATOM     17  C   UNL     1      -0.272  13.306  21.987  0.00  0.00    +0.000 C 
ATOM     18  C   UNL     1      -0.176  13.810  20.555  0.00  0.00    +0.000 C 
ATOM     19  C   UNL     1      -1.525  13.821  19.862  0.00  0.00    +0.000 C 
ENDBRANCH   3  14
BRANCH   3  20
ATOM     20  C   UNL     1      -0.190  11.553  18.567  0.00  0.00    +0.000 C 
BRANCH  20  21
ATOM     21  C   UNL     1       0.604  10.270  18.794  0.00  0.00    +0.000 A 
ATOM     22  C   UNL     1       1.472   9.746  17.809  0.00  0.00    +0.000 A 
ATOM     23  C   UNL     1       2.206   8.568  18.022  0.00  0.00    +0.000 A 
ATOM     24  C   UNL     1       2.035   7.915  19.219  0.00  0.00    +0.000 A 
ATOM     25  C   UNL     1       1.249   8.440  20.214  0.00  0.00    +0.000 A 
ATOM     26  C   UNL     1       0.562   9.627  20.050  0.00  0.00    +0.000 A 
ATOM     27  O   UNL     1       1.205   7.630  21.310  0.00  0.00    +0.000 OA
ATOM     28  C   UNL     1       1.789   6.435  20.751  0.00  0.00    +0.000 C 
ATOM     29  O   UNL     1       2.560   6.705  19.560  0.00  0.00    +0.000 OA
ENDBRANCH  20  21
ENDBRANCH   3  20
TORSDOF 6
ENDMDL
