MODEL 1
REMARK VINA RESULT:      -5.9      0.000      0.000
REMARK  Name = 
REMARK  7 active torsions:
REMARK  status: ('A' for Active; 'I' for Inactive)
REMARK    1  A    between atoms: C_1  and  C_2
REMARK    2  A    between atoms: C_2  and  O_3
REMARK    3  A    between atoms: O_3  and  C_4
REMARK    4  A    between atoms: C_4  and  C_6
REMARK    5  A    between atoms: C_7  and  C_8
REMARK    6  A    between atoms: C_12  and  C_13
REMARK    7  A    between atoms: C_12  and  C_14
REMARK                            x       y       z     vdW  Elec       q    Type
REMARK                         _______ _______ _______ _____ _____    ______ ____
ROOT
ATOM      1  C   UNL     1       3.231   4.435  19.175  0.00  0.00    +0.000 C 
ATOM      2  C   UNL     1       2.337   5.260  19.775  0.00  0.00    +0.000 C 
ATOM      3  C   UNL     1       2.348   6.772  19.792  0.00  0.00    +0.000 C 
ATOM      4  C   UNL     1       1.206   4.719  20.510  0.00  0.00    +0.000 C 
ATOM      5  C   UNL     1       0.996   3.409  20.648  0.00  0.00    +0.000 C 
ATOM      6  C   UNL     1       1.882   2.372  20.043  0.00  0.00    +0.000 C 
ATOM      7  C   UNL     1       3.087   2.893  19.180  0.00  0.00    +0.000 C 
ATOM      8  C   UNL     1       4.372   2.267  19.772  0.00  0.00    +0.000 C 
ATOM      9  C   UNL     1       2.854   2.321  17.754  0.00  0.00    +0.000 C 
ENDROOT
BRANCH   1  10
ATOM     10  C   UNL     1       4.450   5.050  18.547  0.00  0.00    +0.000 C 
ATOM     11  O   UNL     1       5.478   5.342  19.135  0.00  0.00    +0.000 OA
BRANCH  10  12
ATOM     12  O   UNL     1       4.224   5.271  17.234  0.00  0.00    +0.000 OA
BRANCH  12  14
ATOM     13  C   UNL     1       5.647   3.944  15.895  0.00  0.00    +0.000 C 
ATOM     14  C   UNL     1       5.365   5.354  16.375  0.00  0.00    +0.000 C 
ENDBRANCH  12  14
ENDBRANCH  10  12
ENDBRANCH   1  10
TORSDOF 3
ENDMDL
MODEL 2
REMARK VINA RESULT:      -5.8      1.511      2.967
REMARK  Name = 
REMARK  7 active torsions:
REMARK  status: ('A' for Active; 'I' for Inactive)
REMARK    1  A    between atoms: C_1  and  C_2
REMARK    2  A    between atoms: C_2  and  O_3
REMARK    3  A    between atoms: O_3  and  C_4
REMARK    4  A    between atoms: C_4  and  C_6
REMARK    5  A    between atoms: C_7  and  C_8
REMARK    6  A    between atoms: C_12  and  C_13
REMARK    7  A    between atoms: C_12  and  C_14
REMARK                            x       y       z     vdW  Elec       q    Type
REMARK                         _______ _______ _______ _____ _____    ______ ____
ROOT
ATOM      1  C   UNL     1       3.398   3.785  19.257  0.00  0.00    +0.000 C 
ATOM      2  C   UNL     1       3.558   2.819  20.196  0.00  0.00    +0.000 C 
ATOM      3  C   UNL     1       4.759   1.922  20.396  0.00  0.00    +0.000 C 
ATOM      4  C   UNL     1       2.509   2.542  21.162  0.00  0.00    +0.000 C 
ATOM      5  C   UNL     1       1.345   3.195  21.171  0.00  0.00    +0.000 C 
ATOM      6  C   UNL     1       1.017   4.289  20.210  0.00  0.00    +0.000 C 
ATOM      7  C   UNL     1       2.137   4.681  19.181  0.00  0.00    +0.000 C 
ATOM      8  C   UNL     1       1.516   4.562  17.769  0.00  0.00    +0.000 C 
ATOM      9  C   UNL     1       2.461   6.174  19.470  0.00  0.00    +0.000 C 
ENDROOT
BRANCH   1  10
ATOM     10  C   UNL     1       4.460   3.932  18.205  0.00  0.00    +0.000 C 
ATOM     11  O   UNL     1       4.506   3.312  17.154  0.00  0.00    +0.000 OA
BRANCH  10  12
ATOM     12  O   UNL     1       5.384   4.828  18.612  0.00  0.00    +0.000 OA
BRANCH  12  14
ATOM     13  C   UNL     1       7.576   5.682  18.830  0.00  0.00    +0.000 C 
ATOM     14  C   UNL     1       6.701   4.708  18.064  0.00  0.00    +0.000 C 
ENDBRANCH  12  14
ENDBRANCH  10  12
ENDBRANCH   1  10
TORSDOF 3
ENDMDL
MODEL 3
REMARK VINA RESULT:      -5.7      1.446      1.911
REMARK  Name = 
REMARK  7 active torsions:
REMARK  status: ('A' for Active; 'I' for Inactive)
REMARK    1  A    between atoms: C_1  and  C_2
REMARK    2  A    between atoms: C_2  and  O_3
REMARK    3  A    between atoms: O_3  and  C_4
REMARK    4  A    between atoms: C_4  and  C_6
REMARK    5  A    between atoms: C_7  and  C_8
REMARK    6  A    between atoms: C_12  and  C_13
REMARK    7  A    between atoms: C_12  and  C_14
REMARK                            x       y       z     vdW  Elec       q    Type
REMARK                         _______ _______ _______ _____ _____    ______ ____
ROOT
ATOM      1  C   UNL     1       3.831   4.231  18.599  0.00  0.00    +0.000 C 
ATOM      2  C   UNL     1       3.307   5.472  18.761  0.00  0.00    +0.000 C 
ATOM      3  C   UNL     1       3.745   6.751  18.083  0.00  0.00    +0.000 C 
ATOM      4  C   UNL     1       2.196   5.695  19.670  0.00  0.00    +0.000 C 
ATOM      5  C   UNL     1       1.649   4.718  20.395  0.00  0.00    +0.000 C 
ATOM      6  C   UNL     1       2.105   3.299  20.326  0.00  0.00    +0.000 C 
ATOM      7  C   UNL     1       3.262   2.980  19.312  0.00  0.00    +0.000 C 
ATOM      8  C   UNL     1       4.393   2.297  20.115  0.00  0.00    +0.000 C 
ATOM      9  C   UNL     1       2.662   1.956  18.308  0.00  0.00    +0.000 C 
ENDROOT
BRANCH   1  10
ATOM     10  C   UNL     1       5.062   4.089  17.750  0.00  0.00    +0.000 C 
ATOM     11  O   UNL     1       5.075   3.785  16.568  0.00  0.00    +0.000 OA
BRANCH  10  12
ATOM     12  O   UNL     1       6.162   4.310  18.502  0.00  0.00    +0.000 OA
BRANCH  12  14
ATOM     13  C   UNL     1       7.457   6.236  18.061  0.00  0.00    +0.000 C 
ATOM     14  C   UNL     1       7.346   4.742  17.823  0.00  0.00    +0.000 C 
ENDBRANCH  12  14
ENDBRANCH  10  12
ENDBRANCH   1  10
TORSDOF 3
ENDMDL
MODEL 4
REMARK VINA RESULT:      -5.7      1.041      1.510
REMARK  Name = 
REMARK  7 active torsions:
REMARK  status: ('A' for Active; 'I' for Inactive)
REMARK    1  A    between atoms: C_1  and  C_2
REMARK    2  A    between atoms: C_2  and  O_3
REMARK    3  A    between atoms: O_3  and  C_4
REMARK    4  A    between atoms: C_4  and  C_6
REMARK    5  A    between atoms: C_7  and  C_8
REMARK    6  A    between atoms: C_12  and  C_13
REMARK    7  A    between atoms: C_12  and  C_14
REMARK                            x       y       z     vdW  Elec       q    Type
REMARK                         _______ _______ _______ _____ _____    ______ ____
ROOT
ATOM      1  C   UNL     1       3.176   4.428  18.941  0.00  0.00    +0.000 C 
ATOM      2  C   UNL     1       2.409   5.332  19.602  0.00  0.00    +0.000 C 
ATOM      3  C   UNL     1       2.487   6.840  19.518  0.00  0.00    +0.000 C 
ATOM      4  C   UNL     1       1.369   4.894  20.516  0.00  0.00    +0.000 C 
ATOM      5  C   UNL     1       1.123   3.608  20.768  0.00  0.00    +0.000 C 
ATOM      6  C   UNL     1       1.873   2.492  20.117  0.00  0.00    +0.000 C 
ATOM      7  C   UNL     1       2.969   2.899  19.068  0.00  0.00    +0.000 C 
ATOM      8  C   UNL     1       4.294   2.244  19.521  0.00  0.00    +0.000 C 
ATOM      9  C   UNL     1       2.516   2.256  17.727  0.00  0.00    +0.000 C 
ENDROOT
BRANCH   1  10
ATOM     10  C   UNL     1       4.322   4.942  18.116  0.00  0.00    +0.000 C 
ATOM     11  O   UNL     1       4.312   5.086  16.904  0.00  0.00    +0.000 OA
BRANCH  10  12
ATOM     12  O   UNL     1       5.385   5.185  18.913  0.00  0.00    +0.000 OA
BRANCH  12  14
ATOM     13  C   UNL     1       7.442   6.222  18.390  0.00  0.00    +0.000 C 
ATOM     14  C   UNL     1       6.683   4.909  18.377  0.00  0.00    +0.000 C 
ENDBRANCH  12  14
ENDBRANCH  10  12
ENDBRANCH   1  10
TORSDOF 3
ENDMDL
MODEL 5
REMARK VINA RESULT:      -5.7      1.092      1.248
REMARK  Name = 
REMARK  7 active torsions:
REMARK  status: ('A' for Active; 'I' for Inactive)
REMARK    1  A    between atoms: C_1  and  C_2
REMARK    2  A    between atoms: C_2  and  O_3
REMARK    3  A    between atoms: O_3  and  C_4
REMARK    4  A    between atoms: C_4  and  C_6
REMARK    5  A    between atoms: C_7  and  C_8
REMARK    6  A    between atoms: C_12  and  C_13
REMARK    7  A    between atoms: C_12  and  C_14
REMARK                            x       y       z     vdW  Elec       q    Type
REMARK                         _______ _______ _______ _____ _____    ______ ____
ROOT
ATOM      1  C   UNL     1       3.919   4.045  18.726  0.00  0.00    +0.000 C 
ATOM      2  C   UNL     1       3.137   5.153  18.736  0.00  0.00    +0.000 C 
ATOM      3  C   UNL     1       3.476   6.522  18.190  0.00  0.00    +0.000 C 
ATOM      4  C   UNL     1       1.806   5.118  19.317  0.00  0.00    +0.000 C 
ATOM      5  C   UNL     1       1.292   4.022  19.878  0.00  0.00    +0.000 C 
ATOM      6  C   UNL     1       2.021   2.720  19.941  0.00  0.00    +0.000 C 
ATOM      7  C   UNL     1       3.441   2.676  19.272  0.00  0.00    +0.000 C 
ATOM      8  C   UNL     1       4.435   2.186  20.350  0.00  0.00    +0.000 C 
ATOM      9  C   UNL     1       3.337   1.603  18.152  0.00  0.00    +0.000 C 
ENDROOT
BRANCH   1  10
ATOM     10  C   UNL     1       5.332   4.180  18.235  0.00  0.00    +0.000 C 
ATOM     11  O   UNL     1       6.288   4.515  18.915  0.00  0.00    +0.000 OA
BRANCH  10  12
ATOM     12  O   UNL     1       5.381   3.914  16.912  0.00  0.00    +0.000 OA
BRANCH  12  14
ATOM     13  C   UNL     1       5.593   5.460  15.139  0.00  0.00    +0.000 C 
ATOM     14  C   UNL     1       6.359   4.614  16.137  0.00  0.00    +0.000 C 
ENDBRANCH  12  14
ENDBRANCH  10  12
ENDBRANCH   1  10
TORSDOF 3
ENDMDL
MODEL 6
REMARK VINA RESULT:      -5.6      1.958      4.286
REMARK  Name = 
REMARK  7 active torsions:
REMARK  status: ('A' for Active; 'I' for Inactive)
REMARK    1  A    between atoms: C_1  and  C_2
REMARK    2  A    between atoms: C_2  and  O_3
REMARK    3  A    between atoms: O_3  and  C_4
REMARK    4  A    between atoms: C_4  and  C_6
REMARK    5  A    between atoms: C_7  and  C_8
REMARK    6  A    between atoms: C_12  and  C_13
REMARK    7  A    between atoms: C_12  and  C_14
REMARK                            x       y       z     vdW  Elec       q    Type
REMARK                         _______ _______ _______ _____ _____    ______ ____
ROOT
ATOM      1  C   UNL     1       3.265   5.141  18.039  0.00  0.00    +0.000 C 
ATOM      2  C   UNL     1       3.419   6.475  17.842  0.00  0.00    +0.000 C 
ATOM      3  C   UNL     1       2.356   7.546  17.932  0.00  0.00    +0.000 C 
ATOM      4  C   UNL     1       4.717   7.029  17.500  0.00  0.00    +0.000 C 
ATOM      5  C   UNL     1       5.807   6.274  17.346  0.00  0.00    +0.000 C 
ATOM      6  C   UNL     1       5.806   4.794  17.536  0.00  0.00    +0.000 C 
ATOM      7  C   UNL     1       4.445   4.140  17.971  0.00  0.00    +0.000 C 
ATOM      8  C   UNL     1       4.117   3.043  16.932  0.00  0.00    +0.000 C 
ATOM      9  C   UNL     1       4.727   3.472  19.345  0.00  0.00    +0.000 C 
ENDROOT
BRANCH   1  10
ATOM     10  C   UNL     1       1.875   4.615  18.256  0.00  0.00    +0.000 C 
ATOM     11  O   UNL     1       1.092   4.298  17.375  0.00  0.00    +0.000 OA
BRANCH  10  12
ATOM     12  O   UNL     1       1.602   4.580  19.579  0.00  0.00    +0.000 OA
BRANCH  12  14
ATOM     13  C   UNL     1       1.626   3.071  21.395  0.00  0.00    +0.000 C 
ATOM     14  C   UNL     1       0.947   3.412  20.084  0.00  0.00    +0.000 C 
ENDBRANCH  12  14
ENDBRANCH  10  12
ENDBRANCH   1  10
TORSDOF 3
ENDMDL
MODEL 7
REMARK VINA RESULT:      -5.6      1.680      3.951
REMARK  Name = 
REMARK  7 active torsions:
REMARK  status: ('A' for Active; 'I' for Inactive)
REMARK    1  A    between atoms: C_1  and  C_2
REMARK    2  A    between atoms: C_2  and  O_3
REMARK    3  A    between atoms: O_3  and  C_4
REMARK    4  A    between atoms: C_4  and  C_6
REMARK    5  A    between atoms: C_7  and  C_8
REMARK    6  A    between atoms: C_12  and  C_13
REMARK    7  A    between atoms: C_12  and  C_14
REMARK                            x       y       z     vdW  Elec       q    Type
REMARK                         _______ _______ _______ _____ _____    ______ ____
ROOT
ATOM      1  C   UNL     1       4.050   4.792  18.542  0.00  0.00    +0.000 C 
ATOM      2  C   UNL     1       3.127   5.614  19.102  0.00  0.00    +0.000 C 
ATOM      3  C   UNL     1       2.210   5.309  20.265  0.00  0.00    +0.000 C 
ATOM      4  C   UNL     1       2.926   6.959  18.592  0.00  0.00    +0.000 C 
ATOM      5  C   UNL     1       3.609   7.448  17.556  0.00  0.00    +0.000 C 
ATOM      6  C   UNL     1       4.663   6.674  16.836  0.00  0.00    +0.000 C 
ATOM      7  C   UNL     1       4.975   5.234  17.381  0.00  0.00    +0.000 C 
ATOM      8  C   UNL     1       4.803   4.254  16.197  0.00  0.00    +0.000 C 
ATOM      9  C   UNL     1       6.470   5.265  17.802  0.00  0.00    +0.000 C 
ENDROOT
BRANCH   1  10
ATOM     10  C   UNL     1       4.117   3.370  19.026  0.00  0.00    +0.000 C 
ATOM     11  O   UNL     1       4.908   2.940  19.849  0.00  0.00    +0.000 OA
BRANCH  10  12
ATOM     12  O   UNL     1       3.193   2.626  18.381  0.00  0.00    +0.000 OA
BRANCH  12  14
ATOM     13  C   UNL     1       0.871   2.346  18.712  0.00  0.00    +0.000 C 
ATOM     14  C   UNL     1       2.246   1.915  19.184  0.00  0.00    +0.000 C 
ENDBRANCH  12  14
ENDBRANCH  10  12
ENDBRANCH   1  10
TORSDOF 3
ENDMDL
MODEL 8
REMARK VINA RESULT:      -5.5      1.739      2.840
REMARK  Name = 
REMARK  7 active torsions:
REMARK  status: ('A' for Active; 'I' for Inactive)
REMARK    1  A    between atoms: C_1  and  C_2
REMARK    2  A    between atoms: C_2  and  O_3
REMARK    3  A    between atoms: O_3  and  C_4
REMARK    4  A    between atoms: C_4  and  C_6
REMARK    5  A    between atoms: C_7  and  C_8
REMARK    6  A    between atoms: C_12  and  C_13
REMARK    7  A    between atoms: C_12  and  C_14
REMARK                            x       y       z     vdW  Elec       q    Type
REMARK                         _______ _______ _______ _____ _____    ______ ____
ROOT
ATOM      1  C   UNL     1       4.599   5.108  17.704  0.00  0.00    +0.000 C 
ATOM      2  C   UNL     1       4.618   6.447  17.482  0.00  0.00    +0.000 C 
ATOM      3  C   UNL     1       5.758   7.271  16.927  0.00  0.00    +0.000 C 
ATOM      4  C   UNL     1       3.455   7.264  17.782  0.00  0.00    +0.000 C 
ATOM      5  C   UNL     1       2.333   6.762  18.298  0.00  0.00    +0.000 C 
ATOM      6  C   UNL     1       2.150   5.310  18.594  0.00  0.00    +0.000 C 
ATOM      7  C   UNL     1       3.349   4.361  18.230  0.00  0.00    +0.000 C 
ATOM      8  C   UNL     1       3.723   3.592  19.518  0.00  0.00    +0.000 C 
ATOM      9  C   UNL     1       2.782   3.360  17.186  0.00  0.00    +0.000 C 
ENDROOT
BRANCH   1  10
ATOM     10  C   UNL     1       5.875   4.340  17.501  0.00  0.00    +0.000 C 
ATOM     11  O   UNL     1       6.805   4.294  18.289  0.00  0.00    +0.000 OA
BRANCH  10  12
ATOM     12  O   UNL     1       5.856   3.737  16.294  0.00  0.00    +0.000 OA
BRANCH  12  14
ATOM     13  C   UNL     1       6.050   4.056  13.961  0.00  0.00    +0.000 C 
ATOM     14  C   UNL     1       6.749   4.239  15.294  0.00  0.00    +0.000 C 
ENDBRANCH  12  14
ENDBRANCH  10  12
ENDBRANCH   1  10
TORSDOF 3
ENDMDL
MODEL 9
REMARK VINA RESULT:      -5.5      2.011      4.883
REMARK  Name = 
REMARK  7 active torsions:
REMARK  status: ('A' for Active; 'I' for Inactive)
REMARK    1  A    between atoms: C_1  and  C_2
REMARK    2  A    between atoms: C_2  and  O_3
REMARK    3  A    between atoms: O_3  and  C_4
REMARK    4  A    between atoms: C_4  and  C_6
REMARK    5  A    between atoms: C_7  and  C_8
REMARK    6  A    between atoms: C_12  and  C_13
REMARK    7  A    between atoms: C_12  and  C_14
REMARK                            x       y       z     vdW  Elec       q    Type
REMARK                         _______ _______ _______ _____ _____    ______ ____
ROOT
ATOM      1  C   UNL     1       5.445   4.579  17.567  0.00  0.00    +0.000 C 
ATOM      2  C   UNL     1       4.593   4.060  16.648  0.00  0.00    +0.000 C 
ATOM      3  C   UNL     1       3.241   3.431  16.898  0.00  0.00    +0.000 C 
ATOM      4  C   UNL     1       4.935   4.062  15.236  0.00  0.00    +0.000 C 
ATOM      5  C   UNL     1       6.087   4.549  14.773  0.00  0.00    +0.000 C 
ATOM      6  C   UNL     1       7.126   5.161  15.653  0.00  0.00    +0.000 C 
ATOM      7  C   UNL     1       6.788   5.247  17.185  0.00  0.00    +0.000 C 
ATOM      8  C   UNL     1       7.938   4.543  17.942  0.00  0.00    +0.000 C 
ATOM      9  C   UNL     1       6.807   6.763  17.528  0.00  0.00    +0.000 C 
ENDROOT
BRANCH   1  10
ATOM     10  C   UNL     1       5.096   4.425  19.021  0.00  0.00    +0.000 C 
ATOM     11  O   UNL     1       5.206   3.397  19.670  0.00  0.00    +0.000 OA
BRANCH  10  12
ATOM     12  O   UNL     1       4.602   5.588  19.496  0.00  0.00    +0.000 OA
BRANCH  12  14
ATOM     13  C   UNL     1       2.690   6.770  18.770  0.00  0.00    +0.000 C 
ATOM     14  C   UNL     1       3.186   5.671  19.689  0.00  0.00    +0.000 C 
ENDBRANCH  12  14
ENDBRANCH  10  12
ENDBRANCH   1  10
TORSDOF 3
ENDMDL
