MODEL 1
REMARK VINA RESULT:      -7.4      0.000      0.000
REMARK  Name = 
REMARK  12 active torsions:
REMARK  status: ('A' for Active; 'I' for Inactive)
REMARK    1  A    between atoms: C_1  and  C_2
REMARK    2  A    between atoms: C_6  and  S_7
REMARK    3  A    between atoms: S_7  and  C_8
REMARK    4  A    between atoms: C_8  and  C_9
REMARK    5  A    between atoms: C_11  and  S_12
REMARK    6  A    between atoms: S_12  and  C_13
REMARK    7  A    between atoms: C_14  and  C_15
REMARK    8  A    between atoms: C_15  and  O_17
REMARK    9  A    between atoms: C_21  and  C_22
REMARK   10  A    between atoms: C_22  and  C_23
REMARK   11  A    between atoms: C_22  and  O_24
REMARK   12  A    between atoms: C_26  and  C_27
REMARK                            x       y       z     vdW  Elec       q    Type
REMARK                         _______ _______ _______ _____ _____    ______ ____
ROOT
ATOM      1  C   UNL     1       2.231   5.899  20.197  0.00  0.00    +0.000 C 
ATOM      2  C   UNL     1       2.644   4.622  20.309  0.00  0.00    +0.000 C 
ATOM      3  N   UNL     1       3.776   4.374  19.551  0.00  0.00    +0.000 N 
ATOM      4  C   UNL     1       3.717   3.598  18.425  0.00  0.00    +0.000 C 
ATOM      5  O   UNL     1       3.233   2.508  18.239  0.00  0.00    +0.000 OA
ATOM      6  C   UNL     1       4.420   4.671  17.581  0.00  0.00    +0.000 C 
ATOM      7  C   UNL     1       4.172   5.609  18.822  0.00  0.00    +0.000 C 
ATOM      8  C   UNL     1       3.005   6.584  19.069  0.00  0.00    +0.000 C 
ATOM      9  C   UNL     1       2.164   6.765  17.806  0.00  0.00    +0.000 C 
ENDROOT
BRANCH   2  10
ATOM     10  C   UNL     1       2.068   3.488  21.080  0.00  0.00    +0.000 C 
ATOM     11  O   UNL     1       2.629   2.883  21.979  0.00  0.00    +0.000 OA
BRANCH  10  12
ATOM     12  O   UNL     1       0.817   3.173  20.668  0.00  0.00    +0.000 OA
ATOM     13  H   UNL     1       0.523   3.734  19.924  0.00  0.00    +0.000 HD
ENDBRANCH  10  12
ENDBRANCH   2  10
BRANCH   6  14
ATOM     14  C   UNL     1       5.880   4.376  17.266  0.00  0.00    +0.000 C 
ATOM     15  C   UNL     1       6.080   3.931  15.824  0.00  0.00    +0.000 C 
BRANCH  14  16
ATOM     16  O   UNL     1       6.636   5.560  17.515  0.00  0.00    +0.000 OA
ATOM     17  H   UNL     1       6.884   5.954  16.660  0.00  0.00    +0.000 HD
ENDBRANCH  14  16
ENDBRANCH   6  14
BRANCH   1  18
ATOM     18  S   UNL     1       0.986   6.788  21.006  0.00  0.00    +0.000 S 
BRANCH  18  21
ATOM     19  C   UNL     1       0.969  10.755  20.155  0.00  0.00    +0.000 C 
ATOM     20  C   UNL     1       0.561   9.326  19.800  0.00  0.00    +0.000 C 
ATOM     21  C   UNL     1       1.385   8.549  20.816  0.00  0.00    +0.000 C 
ATOM     22  C   UNL     1       1.216   9.401  22.087  0.00  0.00    +0.000 C 
ATOM     23  N   UNL     1       0.831  10.753  21.626  0.00  0.00    +0.000 NA
ATOM     24  H   UNL     1       1.440  11.467  22.029  0.00  0.00    +0.000 HD
BRANCH  19  25
ATOM     25  C   UNL     1       0.141  11.820  19.421  0.00  0.00    +0.000 C 
BRANCH  25  26
ATOM     26  S   UNL     1      -1.373  12.193  20.370  0.00  0.00    +0.000 S 
BRANCH  26  32
ATOM     27  C   UNL     1      -2.599  10.569  15.755  0.00  0.00    +0.000 C 
ATOM     28  C   UNL     1      -3.117  11.148  17.035  0.00  0.00    +0.000 A 
ATOM     29  C   UNL     1      -4.455  11.425  17.216  0.00  0.00    +0.000 A 
ATOM     30  C   UNL     1      -4.801  11.956  18.439  0.00  0.00    +0.000 A 
ATOM     31  N   UNL     1      -3.918  12.207  19.427  0.00  0.00    +0.000 NA
ATOM     32  C   UNL     1      -2.635  11.911  19.155  0.00  0.00    +0.000 A 
ATOM     33  N   UNL     1      -2.203  11.386  17.996  0.00  0.00    +0.000 NA
ENDBRANCH  26  32
ENDBRANCH  25  26
ENDBRANCH  19  25
ENDBRANCH  18  21
ENDBRANCH   1  18
TORSDOF 9
ENDMDL
MODEL 2
REMARK VINA RESULT:      -7.3      0.553      1.233
REMARK  Name = 
REMARK  12 active torsions:
REMARK  status: ('A' for Active; 'I' for Inactive)
REMARK    1  A    between atoms: C_1  and  C_2
REMARK    2  A    between atoms: C_6  and  S_7
REMARK    3  A    between atoms: S_7  and  C_8
REMARK    4  A    between atoms: C_8  and  C_9
REMARK    5  A    between atoms: C_11  and  S_12
REMARK    6  A    between atoms: S_12  and  C_13
REMARK    7  A    between atoms: C_14  and  C_15
REMARK    8  A    between atoms: C_15  and  O_17
REMARK    9  A    between atoms: C_21  and  C_22
REMARK   10  A    between atoms: C_22  and  C_23
REMARK   11  A    between atoms: C_22  and  O_24
REMARK   12  A    between atoms: C_26  and  C_27
REMARK                            x       y       z     vdW  Elec       q    Type
REMARK                         _______ _______ _______ _____ _____    ______ ____
ROOT
ATOM      1  C   UNL     1       2.275   5.967  20.101  0.00  0.00    +0.000 C 
ATOM      2  C   UNL     1       2.662   4.677  20.108  0.00  0.00    +0.000 C 
ATOM      3  N   UNL     1       3.774   4.464  19.309  0.00  0.00    +0.000 N 
ATOM      4  C   UNL     1       3.674   3.778  18.129  0.00  0.00    +0.000 C 
ATOM      5  O   UNL     1       3.163   2.714  17.872  0.00  0.00    +0.000 OA
ATOM      6  C   UNL     1       4.384   4.898  17.353  0.00  0.00    +0.000 C 
ATOM      7  C   UNL     1       4.181   5.744  18.666  0.00  0.00    +0.000 C 
ATOM      8  C   UNL     1       3.040   6.719  19.012  0.00  0.00    +0.000 C 
ATOM      9  C   UNL     1       2.178   7.013  17.784  0.00  0.00    +0.000 C 
ENDROOT
BRANCH   2  10
ATOM     10  C   UNL     1       2.078   3.500  20.804  0.00  0.00    +0.000 C 
ATOM     11  O   UNL     1       2.393   3.102  21.913  0.00  0.00    +0.000 OA
BRANCH  10  12
ATOM     12  O   UNL     1       1.133   2.881  20.055  0.00  0.00    +0.000 OA
ATOM     13  H   UNL     1       1.406   2.791  19.122  0.00  0.00    +0.000 HD
ENDBRANCH  10  12
ENDBRANCH   2  10
BRANCH   6  14
ATOM     14  C   UNL     1       5.831   4.598  16.986  0.00  0.00    +0.000 C 
ATOM     15  C   UNL     1       5.942   3.780  15.706  0.00  0.00    +0.000 C 
BRANCH  14  16
ATOM     16  O   UNL     1       6.514   5.840  16.827  0.00  0.00    +0.000 OA
ATOM     17  H   UNL     1       5.868   6.516  16.555  0.00  0.00    +0.000 HD
ENDBRANCH  14  16
ENDBRANCH   6  14
BRANCH   1  18
ATOM     18  S   UNL     1       1.066   6.816  21.002  0.00  0.00    +0.000 S 
BRANCH  18  21
ATOM     19  C   UNL     1       0.999  10.805  20.258  0.00  0.00    +0.000 C 
ATOM     20  C   UNL     1       0.604   9.382  19.869  0.00  0.00    +0.000 C 
ATOM     21  C   UNL     1       1.444   8.587  20.857  0.00  0.00    +0.000 C 
ATOM     22  C   UNL     1       1.277   9.402  22.151  0.00  0.00    +0.000 C 
ATOM     23  N   UNL     1       0.873  10.762  21.730  0.00  0.00    +0.000 NA
ATOM     24  H   UNL     1       1.478  11.471  22.148  0.00  0.00    +0.000 HD
BRANCH  19  25
ATOM     25  C   UNL     1       0.153  11.880  19.561  0.00  0.00    +0.000 C 
BRANCH  25  26
ATOM     26  S   UNL     1      -1.591  11.729  20.076  0.00  0.00    +0.000 S 
BRANCH  26  32
ATOM     27  C   UNL     1      -5.695  12.105  17.167  0.00  0.00    +0.000 C 
ATOM     28  C   UNL     1      -4.298  11.575  17.263  0.00  0.00    +0.000 A 
ATOM     29  C   UNL     1      -3.719  10.867  16.232  0.00  0.00    +0.000 A 
ATOM     30  C   UNL     1      -2.429  10.434  16.448  0.00  0.00    +0.000 A 
ATOM     31  N   UNL     1      -1.738  10.665  17.583  0.00  0.00    +0.000 NA
ATOM     32  C   UNL     1      -2.388  11.357  18.534  0.00  0.00    +0.000 A 
ATOM     33  N   UNL     1      -3.643  11.825  18.414  0.00  0.00    +0.000 NA
ENDBRANCH  26  32
ENDBRANCH  25  26
ENDBRANCH  19  25
ENDBRANCH  18  21
ENDBRANCH   1  18
TORSDOF 9
ENDMDL
MODEL 3
REMARK VINA RESULT:      -7.2      3.509      4.669
REMARK  Name = 
REMARK  12 active torsions:
REMARK  status: ('A' for Active; 'I' for Inactive)
REMARK    1  A    between atoms: C_1  and  C_2
REMARK    2  A    between atoms: C_6  and  S_7
REMARK    3  A    between atoms: S_7  and  C_8
REMARK    4  A    between atoms: C_8  and  C_9
REMARK    5  A    between atoms: C_11  and  S_12
REMARK    6  A    between atoms: S_12  and  C_13
REMARK    7  A    between atoms: C_14  and  C_15
REMARK    8  A    between atoms: C_15  and  O_17
REMARK    9  A    between atoms: C_21  and  C_22
REMARK   10  A    between atoms: C_22  and  C_23
REMARK   11  A    between atoms: C_22  and  O_24
REMARK   12  A    between atoms: C_26  and  C_27
REMARK                            x       y       z     vdW  Elec       q    Type
REMARK                         _______ _______ _______ _____ _____    ______ ____
ROOT
ATOM      1  C   UNL     1       4.621   5.387  18.229  0.00  0.00    +0.000 C 
ATOM      2  C   UNL     1       5.903   5.676  17.936  0.00  0.00    +0.000 C 
ATOM      3  N   UNL     1       6.193   5.455  16.600  0.00  0.00    +0.000 N 
ATOM      4  C   UNL     1       6.994   4.415  16.214  0.00  0.00    +0.000 C 
ATOM      5  O   UNL     1       8.079   4.061  16.610  0.00  0.00    +0.000 OA
ATOM      6  C   UNL     1       5.957   3.921  15.194  0.00  0.00    +0.000 C 
ATOM      7  C   UNL     1       4.984   4.937  15.904  0.00  0.00    +0.000 C 
ATOM      8  C   UNL     1       3.980   4.669  17.041  0.00  0.00    +0.000 C 
ATOM      9  C   UNL     1       3.811   3.169  17.282  0.00  0.00    +0.000 C 
ENDROOT
BRANCH   2  10
ATOM     10  C   UNL     1       7.006   6.157  18.811  0.00  0.00    +0.000 C 
ATOM     11  O   UNL     1       7.782   7.060  18.545  0.00  0.00    +0.000 OA
BRANCH  10  12
ATOM     12  O   UNL     1       7.076   5.463  19.973  0.00  0.00    +0.000 OA
ATOM     13  H   UNL     1       7.232   4.511  19.823  0.00  0.00    +0.000 HD
ENDBRANCH  10  12
ENDBRANCH   2  10
BRANCH   6  14
ATOM     14  C   UNL     1       6.290   4.239  13.743  0.00  0.00    +0.000 C 
ATOM     15  C   UNL     1       7.614   4.979  13.606  0.00  0.00    +0.000 C 
BRANCH  14  16
ATOM     16  O   UNL     1       6.346   3.011  13.021  0.00  0.00    +0.000 OA
ATOM     17  H   UNL     1       6.711   2.324  13.607  0.00  0.00    +0.000 HD
ENDBRANCH  14  16
ENDBRANCH   6  14
BRANCH   1  18
ATOM     18  S   UNL     1       3.687   5.599  19.671  0.00  0.00    +0.000 S 
BRANCH  18  21
ATOM     19  C   UNL     1       1.184   8.791  19.546  0.00  0.00    +0.000 C 
ATOM     20  C   UNL     1       2.071   7.837  20.346  0.00  0.00    +0.000 C 
ATOM     21  C   UNL     1       2.376   6.794  19.281  0.00  0.00    +0.000 C 
ATOM     22  C   UNL     1       2.631   7.666  18.039  0.00  0.00    +0.000 C 
ATOM     23  N   UNL     1       1.967   8.962  18.304  0.00  0.00    +0.000 NA
ATOM     24  H   UNL     1       1.343   9.220  17.537  0.00  0.00    +0.000 HD
BRANCH  19  25
ATOM     25  C   UNL     1       0.860  10.089  20.299  0.00  0.00    +0.000 C 
BRANCH  25  26
ATOM     26  S   UNL     1       0.020   9.701  21.872  0.00  0.00    +0.000 S 
BRANCH  26  32
ATOM     27  C   UNL     1      -3.686  12.357  24.029  0.00  0.00    +0.000 C 
ATOM     28  C   UNL     1      -2.361  12.430  23.335  0.00  0.00    +0.000 A 
ATOM     29  C   UNL     1      -1.737  13.634  23.090  0.00  0.00    +0.000 A 
ATOM     30  C   UNL     1      -0.523  13.563  22.443  0.00  0.00    +0.000 A 
ATOM     31  N   UNL     1       0.056  12.408  22.054  0.00  0.00    +0.000 NA
ATOM     32  C   UNL     1      -0.631  11.287  22.330  0.00  0.00    +0.000 A 
ATOM     33  N   UNL     1      -1.818  11.255  22.961  0.00  0.00    +0.000 NA
ENDBRANCH  26  32
ENDBRANCH  25  26
ENDBRANCH  19  25
ENDBRANCH  18  21
ENDBRANCH   1  18
TORSDOF 9
ENDMDL
MODEL 4
REMARK VINA RESULT:      -7.1      2.630      3.729
REMARK  Name = 
REMARK  12 active torsions:
REMARK  status: ('A' for Active; 'I' for Inactive)
REMARK    1  A    between atoms: C_1  and  C_2
REMARK    2  A    between atoms: C_6  and  S_7
REMARK    3  A    between atoms: S_7  and  C_8
REMARK    4  A    between atoms: C_8  and  C_9
REMARK    5  A    between atoms: C_11  and  S_12
REMARK    6  A    between atoms: S_12  and  C_13
REMARK    7  A    between atoms: C_14  and  C_15
REMARK    8  A    between atoms: C_15  and  O_17
REMARK    9  A    between atoms: C_21  and  C_22
REMARK   10  A    between atoms: C_22  and  C_23
REMARK   11  A    between atoms: C_22  and  O_24
REMARK   12  A    between atoms: C_26  and  C_27
REMARK                            x       y       z     vdW  Elec       q    Type
REMARK                         _______ _______ _______ _____ _____    ______ ____
ROOT
ATOM      1  C   UNL     1       4.683   5.493  18.156  0.00  0.00    +0.000 C 
ATOM      2  C   UNL     1       5.974   5.735  17.858  0.00  0.00    +0.000 C 
ATOM      3  N   UNL     1       6.256   5.482  16.525  0.00  0.00    +0.000 N 
ATOM      4  C   UNL     1       7.022   4.411  16.157  0.00  0.00    +0.000 C 
ATOM      5  O   UNL     1       8.095   4.028  16.559  0.00  0.00    +0.000 OA
ATOM      6  C   UNL     1       5.968   3.933  15.146  0.00  0.00    +0.000 C 
ATOM      7  C   UNL     1       5.030   4.992  15.838  0.00  0.00    +0.000 C 
ATOM      8  C   UNL     1       4.018   4.776  16.980  0.00  0.00    +0.000 C 
ATOM      9  C   UNL     1       3.801   3.287  17.246  0.00  0.00    +0.000 C 
ENDROOT
BRANCH   2  10
ATOM     10  C   UNL     1       7.092   6.195  18.724  0.00  0.00    +0.000 C 
ATOM     11  O   UNL     1       7.880   7.086  18.454  0.00  0.00    +0.000 OA
BRANCH  10  12
ATOM     12  O   UNL     1       7.162   5.495  19.882  0.00  0.00    +0.000 OA
ATOM     13  H   UNL     1       6.366   4.949  20.029  0.00  0.00    +0.000 HD
ENDBRANCH  10  12
ENDBRANCH   2  10
BRANCH   6  14
ATOM     14  C   UNL     1       6.311   4.216  13.690  0.00  0.00    +0.000 C 
ATOM     15  C   UNL     1       7.629   4.965  13.544  0.00  0.00    +0.000 C 
BRANCH  14  16
ATOM     16  O   UNL     1       6.384   2.970  13.001  0.00  0.00    +0.000 OA
ATOM     17  H   UNL     1       7.109   2.445  13.387  0.00  0.00    +0.000 HD
ENDBRANCH  14  16
ENDBRANCH   6  14
BRANCH   1  18
ATOM     18  S   UNL     1       3.758   5.760  19.594  0.00  0.00    +0.000 S 
BRANCH  18  21
ATOM     19  C   UNL     1       1.108   8.829  19.449  0.00  0.00    +0.000 C 
ATOM     20  C   UNL     1       1.960   7.857  20.263  0.00  0.00    +0.000 C 
ATOM     21  C   UNL     1       2.429   6.920  19.160  0.00  0.00    +0.000 C 
ATOM     22  C   UNL     1       2.760   7.901  18.022  0.00  0.00    +0.000 C 
ATOM     23  N   UNL     1       2.002   9.138  18.314  0.00  0.00    +0.000 NA
ATOM     24  H   UNL     1       1.445   9.427  17.507  0.00  0.00    +0.000 HD
BRANCH  19  25
ATOM     25  C   UNL     1       0.637  10.045  20.261  0.00  0.00    +0.000 C 
BRANCH  25  26
ATOM     26  S   UNL     1       0.484  11.500  19.169  0.00  0.00    +0.000 S 
BRANCH  26  32
ATOM     27  C   UNL     1      -3.970  10.948  16.867  0.00  0.00    +0.000 C 
ATOM     28  C   UNL     1      -3.266  11.482  18.076  0.00  0.00    +0.000 A 
ATOM     29  C   UNL     1      -3.948  12.125  19.086  0.00  0.00    +0.000 A 
ATOM     30  C   UNL     1      -3.183  12.570  20.142  0.00  0.00    +0.000 A 
ATOM     31  N   UNL     1      -1.846  12.408  20.223  0.00  0.00    +0.000 NA
ATOM     32  C   UNL     1      -1.269  11.777  19.187  0.00  0.00    +0.000 A 
ATOM     33  N   UNL     1      -1.931  11.303  18.117  0.00  0.00    +0.000 NA
ENDBRANCH  26  32
ENDBRANCH  25  26
ENDBRANCH  19  25
ENDBRANCH  18  21
ENDBRANCH   1  18
TORSDOF 9
ENDMDL
MODEL 5
REMARK VINA RESULT:      -7.1      1.454      1.966
REMARK  Name = 
REMARK  12 active torsions:
REMARK  status: ('A' for Active; 'I' for Inactive)
REMARK    1  A    between atoms: C_1  and  C_2
REMARK    2  A    between atoms: C_6  and  S_7
REMARK    3  A    between atoms: S_7  and  C_8
REMARK    4  A    between atoms: C_8  and  C_9
REMARK    5  A    between atoms: C_11  and  S_12
REMARK    6  A    between atoms: S_12  and  C_13
REMARK    7  A    between atoms: C_14  and  C_15
REMARK    8  A    between atoms: C_15  and  O_17
REMARK    9  A    between atoms: C_21  and  C_22
REMARK   10  A    between atoms: C_22  and  C_23
REMARK   11  A    between atoms: C_22  and  O_24
REMARK   12  A    between atoms: C_26  and  C_27
REMARK                            x       y       z     vdW  Elec       q    Type
REMARK                         _______ _______ _______ _____ _____    ______ ____
ROOT
ATOM      1  C   UNL     1       2.051   6.097  20.281  0.00  0.00    +0.000 C 
ATOM      2  C   UNL     1       2.409   4.804  20.389  0.00  0.00    +0.000 C 
ATOM      3  N   UNL     1       3.566   4.525  19.679  0.00  0.00    +0.000 N 
ATOM      4  C   UNL     1       3.529   3.770  18.539  0.00  0.00    +0.000 C 
ATOM      5  O   UNL     1       3.013   2.702  18.311  0.00  0.00    +0.000 OA
ATOM      6  C   UNL     1       4.311   4.829  17.746  0.00  0.00    +0.000 C 
ATOM      7  C   UNL     1       4.041   5.756  18.991  0.00  0.00    +0.000 C 
ATOM      8  C   UNL     1       2.901   6.770  19.203  0.00  0.00    +0.000 C 
ATOM      9  C   UNL     1       2.127   7.004  17.905  0.00  0.00    +0.000 C 
ENDROOT
BRANCH   2  10
ATOM     10  C   UNL     1       1.756   3.681  21.113  0.00  0.00    +0.000 C 
ATOM     11  O   UNL     1       2.126   3.210  22.176  0.00  0.00    +0.000 OA
BRANCH  10  12
ATOM     12  O   UNL     1       0.674   3.206  20.450  0.00  0.00    +0.000 OA
ATOM     13  H   UNL     1       0.739   3.358  19.487  0.00  0.00    +0.000 HD
ENDBRANCH  10  12
ENDBRANCH   2  10
BRANCH   6  14
ATOM     14  C   UNL     1       5.772   4.483  17.494  0.00  0.00    +0.000 C 
ATOM     15  C   UNL     1       5.999   3.932  16.093  0.00  0.00    +0.000 C 
BRANCH  14  16
ATOM     16  O   UNL     1       6.546   5.666  17.679  0.00  0.00    +0.000 OA
ATOM     17  H   UNL     1       6.070   6.414  17.275  0.00  0.00    +0.000 HD
ENDBRANCH  14  16
ENDBRANCH   6  14
BRANCH   1  18
ATOM     18  S   UNL     1       0.803   7.020  21.048  0.00  0.00    +0.000 S 
BRANCH  18  21
ATOM     19  C   UNL     1       1.032  11.012  20.354  0.00  0.00    +0.000 C 
ATOM     20  C   UNL     1       0.574   9.620  19.922  0.00  0.00    +0.000 C 
ATOM     21  C   UNL     1       1.299   8.765  20.950  0.00  0.00    +0.000 C 
ATOM     22  C   UNL     1       1.102   9.577  22.242  0.00  0.00    +0.000 C 
ATOM     23  N   UNL     1       0.811  10.963  21.814  0.00  0.00    +0.000 NA
ATOM     24  H   UNL     1       1.431  11.630  22.279  0.00  0.00    +0.000 HD
BRANCH  19  25
ATOM     25  C   UNL     1       0.301  12.144  19.619  0.00  0.00    +0.000 C 
BRANCH  25  26
ATOM     26  S   UNL     1      -1.281  11.529  18.947  0.00  0.00    +0.000 S 
BRANCH  26  32
ATOM     27  C   UNL     1      -5.901  13.266  19.984  0.00  0.00    +0.000 C 
ATOM     28  C   UNL     1      -4.567  12.897  20.555  0.00  0.00    +0.000 A 
ATOM     29  C   UNL     1      -4.297  13.017  21.902  0.00  0.00    +0.000 A 
ATOM     30  C   UNL     1      -3.031  12.645  22.298  0.00  0.00    +0.000 A 
ATOM     31  N   UNL     1      -2.082  12.188  21.454  0.00  0.00    +0.000 NA
ATOM     32  C   UNL     1      -2.436  12.114  20.160  0.00  0.00    +0.000 A 
ATOM     33  N   UNL     1      -3.647  12.447  19.680  0.00  0.00    +0.000 NA
ENDBRANCH  26  32
ENDBRANCH  25  26
ENDBRANCH  19  25
ENDBRANCH  18  21
ENDBRANCH   1  18
TORSDOF 9
ENDMDL
MODEL 6
REMARK VINA RESULT:      -7.1      3.354      4.612
REMARK  Name = 
REMARK  12 active torsions:
REMARK  status: ('A' for Active; 'I' for Inactive)
REMARK    1  A    between atoms: C_1  and  C_2
REMARK    2  A    between atoms: C_6  and  S_7
REMARK    3  A    between atoms: S_7  and  C_8
REMARK    4  A    between atoms: C_8  and  C_9
REMARK    5  A    between atoms: C_11  and  S_12
REMARK    6  A    between atoms: S_12  and  C_13
REMARK    7  A    between atoms: C_14  and  C_15
REMARK    8  A    between atoms: C_15  and  O_17
REMARK    9  A    between atoms: C_21  and  C_22
REMARK   10  A    between atoms: C_22  and  C_23
REMARK   11  A    between atoms: C_22  and  O_24
REMARK   12  A    between atoms: C_26  and  C_27
REMARK                            x       y       z     vdW  Elec       q    Type
REMARK                         _______ _______ _______ _____ _____    ______ ____
ROOT
ATOM      1  C   UNL     1       4.622   5.359  18.226  0.00  0.00    +0.000 C 
ATOM      2  C   UNL     1       5.911   5.633  17.952  0.00  0.00    +0.000 C 
ATOM      3  N   UNL     1       6.211   5.441  16.613  0.00  0.00    +0.000 N 
ATOM      4  C   UNL     1       6.997   4.398  16.208  0.00  0.00    +0.000 C 
ATOM      5  O   UNL     1       8.072   4.015  16.605  0.00  0.00    +0.000 OA
ATOM      6  C   UNL     1       5.961   3.947  15.167  0.00  0.00    +0.000 C 
ATOM      7  C   UNL     1       5.000   4.962  15.893  0.00  0.00    +0.000 C 
ATOM      8  C   UNL     1       3.980   4.682  17.014  0.00  0.00    +0.000 C 
ATOM      9  C   UNL     1       3.784   3.180  17.215  0.00  0.00    +0.000 C 
ENDROOT
BRANCH   2  10
ATOM     10  C   UNL     1       7.014   6.073  18.848  0.00  0.00    +0.000 C 
ATOM     11  O   UNL     1       7.275   5.596  19.941  0.00  0.00    +0.000 OA
BRANCH  10  12
ATOM     12  O   UNL     1       7.723   7.100  18.320  0.00  0.00    +0.000 OA
ATOM     13  H   UNL     1       7.928   7.784  18.986  0.00  0.00    +0.000 HD
ENDBRANCH  10  12
ENDBRANCH   2  10
BRANCH   6  14
ATOM     14  C   UNL     1       6.314   4.297  13.728  0.00  0.00    +0.000 C 
ATOM     15  C   UNL     1       7.656   5.008  13.620  0.00  0.00    +0.000 C 
BRANCH  14  16
ATOM     16  O   UNL     1       6.347   3.087  12.973  0.00  0.00    +0.000 OA
ATOM     17  H   UNL     1       6.604   3.300  12.058  0.00  0.00    +0.000 HD
ENDBRANCH  14  16
ENDBRANCH   6  14
BRANCH   1  18
ATOM     18  S   UNL     1       3.678   5.551  19.663  0.00  0.00    +0.000 S 
BRANCH  18  21
ATOM     19  C   UNL     1       1.104   8.688  19.616  0.00  0.00    +0.000 C 
ATOM     20  C   UNL     1       1.961   7.693  20.398  0.00  0.00    +0.000 C 
ATOM     21  C   UNL     1       2.365   6.745  19.279  0.00  0.00    +0.000 C 
ATOM     22  C   UNL     1       2.679   7.719  18.129  0.00  0.00    +0.000 C 
ATOM     23  N   UNL     1       1.964   8.974  18.449  0.00  0.00    +0.000 NA
ATOM     24  H   UNL     1       1.386   9.279  17.663  0.00  0.00    +0.000 HD
BRANCH  19  25
ATOM     25  C   UNL     1       0.696   9.915  20.444  0.00  0.00    +0.000 C 
BRANCH  25  26
ATOM     26  S   UNL     1      -0.404  10.990  19.461  0.00  0.00    +0.000 S 
BRANCH  26  32
ATOM     27  C   UNL     1       0.333  15.963  19.050  0.00  0.00    +0.000 C 
ATOM     28  C   UNL     1       0.949  14.609  18.881  0.00  0.00    +0.000 A 
ATOM     29  C   UNL     1       2.243  14.452  18.434  0.00  0.00    +0.000 A 
ATOM     30  C   UNL     1       2.689  13.153  18.321  0.00  0.00    +0.000 A 
ATOM     31  N   UNL     1       1.938  12.072  18.618  0.00  0.00    +0.000 NA
ATOM     32  C   UNL     1       0.687  12.325  19.038  0.00  0.00    +0.000 A 
ATOM     33  N   UNL     1       0.166  13.555  19.186  0.00  0.00    +0.000 NA
ENDBRANCH  26  32
ENDBRANCH  25  26
ENDBRANCH  19  25
ENDBRANCH  18  21
ENDBRANCH   1  18
TORSDOF 9
ENDMDL
MODEL 7
REMARK VINA RESULT:      -7.0      4.294      9.652
REMARK  Name = 
REMARK  12 active torsions:
REMARK  status: ('A' for Active; 'I' for Inactive)
REMARK    1  A    between atoms: C_1  and  C_2
REMARK    2  A    between atoms: C_6  and  S_7
REMARK    3  A    between atoms: S_7  and  C_8
REMARK    4  A    between atoms: C_8  and  C_9
REMARK    5  A    between atoms: C_11  and  S_12
REMARK    6  A    between atoms: S_12  and  C_13
REMARK    7  A    between atoms: C_14  and  C_15
REMARK    8  A    between atoms: C_15  and  O_17
REMARK    9  A    between atoms: C_21  and  C_22
REMARK   10  A    between atoms: C_22  and  C_23
REMARK   11  A    between atoms: C_22  and  O_24
REMARK   12  A    between atoms: C_26  and  C_27
REMARK                            x       y       z     vdW  Elec       q    Type
REMARK                         _______ _______ _______ _____ _____    ______ ____
ROOT
ATOM      1  C   UNL     1       1.153  10.726  18.821  0.00  0.00    +0.000 C 
ATOM      2  C   UNL     1       1.358  12.028  19.097  0.00  0.00    +0.000 C 
ATOM      3  N   UNL     1       0.398  12.534  19.959  0.00  0.00    +0.000 N 
ATOM      4  C   UNL     1      -0.547  13.420  19.520  0.00  0.00    +0.000 C 
ATOM      5  O   UNL     1      -0.441  14.440  18.882  0.00  0.00    +0.000 OA
ATOM      6  C   UNL     1      -1.690  12.575  20.102  0.00  0.00    +0.000 C 
ATOM      7  C   UNL     1      -0.586  11.468  20.294  0.00  0.00    +0.000 C 
ATOM      8  C   UNL     1      -0.218  10.306  19.351  0.00  0.00    +0.000 C 
ATOM      9  C   UNL     1      -1.256  10.152  18.239  0.00  0.00    +0.000 C 
ENDROOT
BRANCH   2  10
ATOM     10  C   UNL     1       2.410  12.961  18.613  0.00  0.00    +0.000 C 
ATOM     11  O   UNL     1       3.099  13.683  19.316  0.00  0.00    +0.000 OA
BRANCH  10  12
ATOM     12  O   UNL     1       2.530  12.940  17.263  0.00  0.00    +0.000 OA
ATOM     13  H   UNL     1       3.136  13.634  16.939  0.00  0.00    +0.000 HD
ENDBRANCH  10  12
ENDBRANCH   2  10
BRANCH   6  14
ATOM     14  C   UNL     1      -2.296  13.123  21.386  0.00  0.00    +0.000 C 
ATOM     15  C   UNL     1      -3.447  14.082  21.116  0.00  0.00    +0.000 C 
BRANCH  14  16
ATOM     16  O   UNL     1      -2.758  12.021  22.164  0.00  0.00    +0.000 OA
ATOM     17  H   UNL     1      -2.118  11.858  22.881  0.00  0.00    +0.000 HD
ENDBRANCH  14  16
ENDBRANCH   6  14
BRANCH   1  18
ATOM     18  S   UNL     1       2.090   9.569  17.939  0.00  0.00    +0.000 S 
BRANCH  18  21
ATOM     19  C   UNL     1       1.977   5.629  18.904  0.00  0.00    +0.000 C 
ATOM     20  C   UNL     1       2.274   6.733  17.890  0.00  0.00    +0.000 C 
ATOM     21  C   UNL     1       1.686   7.933  18.617  0.00  0.00    +0.000 C 
ATOM     22  C   UNL     1       2.146   7.691  20.066  0.00  0.00    +0.000 C 
ATOM     23  N   UNL     1       2.440   6.244  20.165  0.00  0.00    +0.000 NA
ATOM     24  H   UNL     1       1.947   5.822  20.955  0.00  0.00    +0.000 HD
BRANCH  19  25
ATOM     25  C   UNL     1       2.637   4.289  18.548  0.00  0.00    +0.000 C 
BRANCH  25  26
ATOM     26  S   UNL     1       4.131   4.042  19.567  0.00  0.00    +0.000 S 
BRANCH  26  32
ATOM     27  C   UNL     1       5.499   4.328  14.721  0.00  0.00    +0.000 C 
ATOM     28  C   UNL     1       5.968   4.415  16.140  0.00  0.00    +0.000 A 
ATOM     29  C   UNL     1       7.286   4.666  16.453  0.00  0.00    +0.000 A 
ATOM     30  C   UNL     1       7.587   4.720  17.797  0.00  0.00    +0.000 A 
ATOM     31  N   UNL     1       6.679   4.542  18.779  0.00  0.00    +0.000 NA
ATOM     32  C   UNL     1       5.422   4.295  18.376  0.00  0.00    +0.000 A 
ATOM     33  N   UNL     1       5.031   4.229  17.091  0.00  0.00    +0.000 NA
ENDBRANCH  26  32
ENDBRANCH  25  26
ENDBRANCH  19  25
ENDBRANCH  18  21
ENDBRANCH   1  18
TORSDOF 9
ENDMDL
MODEL 8
REMARK VINA RESULT:      -7.0      3.660      4.920
REMARK  Name = 
REMARK  12 active torsions:
REMARK  status: ('A' for Active; 'I' for Inactive)
REMARK    1  A    between atoms: C_1  and  C_2
REMARK    2  A    between atoms: C_6  and  S_7
REMARK    3  A    between atoms: S_7  and  C_8
REMARK    4  A    between atoms: C_8  and  C_9
REMARK    5  A    between atoms: C_11  and  S_12
REMARK    6  A    between atoms: S_12  and  C_13
REMARK    7  A    between atoms: C_14  and  C_15
REMARK    8  A    between atoms: C_15  and  O_17
REMARK    9  A    between atoms: C_21  and  C_22
REMARK   10  A    between atoms: C_22  and  C_23
REMARK   11  A    between atoms: C_22  and  O_24
REMARK   12  A    between atoms: C_26  and  C_27
REMARK                            x       y       z     vdW  Elec       q    Type
REMARK                         _______ _______ _______ _____ _____    ______ ____
ROOT
ATOM      1  C   UNL     1       4.586   5.440  18.185  0.00  0.00    +0.000 C 
ATOM      2  C   UNL     1       5.884   5.684  17.925  0.00  0.00    +0.000 C 
ATOM      3  N   UNL     1       6.197   5.472  16.592  0.00  0.00    +0.000 N 
ATOM      4  C   UNL     1       6.966   4.408  16.208  0.00  0.00    +0.000 C 
ATOM      5  O   UNL     1       8.026   4.006  16.622  0.00  0.00    +0.000 OA
ATOM      6  C   UNL     1       5.934   3.970  15.157  0.00  0.00    +0.000 C 
ATOM      7  C   UNL     1       4.985   5.012  15.861  0.00  0.00    +0.000 C 
ATOM      8  C   UNL     1       3.945   4.766  16.971  0.00  0.00    +0.000 C 
ATOM      9  C   UNL     1       3.714   3.270  17.184  0.00  0.00    +0.000 C 
ENDROOT
BRANCH   2  10
ATOM     10  C   UNL     1       6.984   6.108  18.832  0.00  0.00    +0.000 C 
ATOM     11  O   UNL     1       7.242   5.614  19.917  0.00  0.00    +0.000 OA
BRANCH  10  12
ATOM     12  O   UNL     1       7.695   7.144  18.323  0.00  0.00    +0.000 OA
ATOM     13  H   UNL     1       7.135   7.754  17.806  0.00  0.00    +0.000 HD
ENDBRANCH  10  12
ENDBRANCH   2  10
BRANCH   6  14
ATOM     14  C   UNL     1       6.312   4.298  13.720  0.00  0.00    +0.000 C 
ATOM     15  C   UNL     1       7.658   5.003  13.626  0.00  0.00    +0.000 C 
BRANCH  14  16
ATOM     16  O   UNL     1       6.354   3.077  12.983  0.00  0.00    +0.000 OA
ATOM     17  H   UNL     1       7.218   3.014  12.537  0.00  0.00    +0.000 HD
ENDBRANCH  14  16
ENDBRANCH   6  14
BRANCH   1  18
ATOM     18  S   UNL     1       3.628   5.667  19.608  0.00  0.00    +0.000 S 
BRANCH  18  21
ATOM     19  C   UNL     1       1.168   8.892  19.508  0.00  0.00    +0.000 C 
ATOM     20  C   UNL     1       1.984   7.878  20.307  0.00  0.00    +0.000 C 
ATOM     21  C   UNL     1       2.360   6.901  19.202  0.00  0.00    +0.000 C 
ATOM     22  C   UNL     1       2.713   7.848  18.041  0.00  0.00    +0.000 C 
ATOM     23  N   UNL     1       2.042   9.132  18.341  0.00  0.00    +0.000 NA
ATOM     24  H   UNL     1       1.479   9.447  17.549  0.00  0.00    +0.000 HD
BRANCH  19  25
ATOM     25  C   UNL     1       0.799  10.143  20.318  0.00  0.00    +0.000 C 
BRANCH  25  26
ATOM     26  S   UNL     1       0.360  11.508  19.188  0.00  0.00    +0.000 S 
BRANCH  26  32
ATOM     27  C   UNL     1       3.494  15.149  17.649  0.00  0.00    +0.000 C 
ATOM     28  C   UNL     1       2.985  14.379  18.828  0.00  0.00    +0.000 A 
ATOM     29  C   UNL     1       3.448  14.618  20.104  0.00  0.00    +0.000 A 
ATOM     30  C   UNL     1       2.899  13.840  21.100  0.00  0.00    +0.000 A 
ATOM     31  N   UNL     1       1.965  12.890  20.885  0.00  0.00    +0.000 NA
ATOM     32  C   UNL     1       1.583  12.725  19.608  0.00  0.00    +0.000 A 
ATOM     33  N   UNL     1       2.055  13.438  18.571  0.00  0.00    +0.000 NA
ENDBRANCH  26  32
ENDBRANCH  25  26
ENDBRANCH  19  25
ENDBRANCH  18  21
ENDBRANCH   1  18
TORSDOF 9
ENDMDL
MODEL 9
REMARK VINA RESULT:      -6.9      2.330      3.205
REMARK  Name = 
REMARK  12 active torsions:
REMARK  status: ('A' for Active; 'I' for Inactive)
REMARK    1  A    between atoms: C_1  and  C_2
REMARK    2  A    between atoms: C_6  and  S_7
REMARK    3  A    between atoms: S_7  and  C_8
REMARK    4  A    between atoms: C_8  and  C_9
REMARK    5  A    between atoms: C_11  and  S_12
REMARK    6  A    between atoms: S_12  and  C_13
REMARK    7  A    between atoms: C_14  and  C_15
REMARK    8  A    between atoms: C_15  and  O_17
REMARK    9  A    between atoms: C_21  and  C_22
REMARK   10  A    between atoms: C_22  and  C_23
REMARK   11  A    between atoms: C_22  and  O_24
REMARK   12  A    between atoms: C_26  and  C_27
REMARK                            x       y       z     vdW  Elec       q    Type
REMARK                         _______ _______ _______ _____ _____    ______ ____
ROOT
ATOM      1  C   UNL     1       2.119   5.868  20.176  0.00  0.00    +0.000 C 
ATOM      2  C   UNL     1       2.510   4.581  20.216  0.00  0.00    +0.000 C 
ATOM      3  N   UNL     1       3.649   4.360  19.460  0.00  0.00    +0.000 N 
ATOM      4  C   UNL     1       3.594   3.654  18.289  0.00  0.00    +0.000 C 
ATOM      5  O   UNL     1       3.096   2.585  18.031  0.00  0.00    +0.000 OA
ATOM      6  C   UNL     1       4.327   4.765  17.521  0.00  0.00    +0.000 C 
ATOM      7  C   UNL     1       4.075   5.630  18.813  0.00  0.00    +0.000 C 
ATOM      8  C   UNL     1       2.919   6.607  19.103  0.00  0.00    +0.000 C 
ATOM      9  C   UNL     1       2.100   6.878  17.841  0.00  0.00    +0.000 C 
ENDROOT
BRANCH   2  10
ATOM     10  C   UNL     1       1.905   3.412  20.910  0.00  0.00    +0.000 C 
ATOM     11  O   UNL     1       2.322   2.901  21.937  0.00  0.00    +0.000 OA
BRANCH  10  12
ATOM     12  O   UNL     1       0.811   2.944  20.263  0.00  0.00    +0.000 OA
ATOM     13  H   UNL     1       0.060   2.798  20.871  0.00  0.00    +0.000 HD
ENDBRANCH  10  12
ENDBRANCH   2  10
BRANCH   6  14
ATOM     14  C   UNL     1       5.786   4.465  17.209  0.00  0.00    +0.000 C 
ATOM     15  C   UNL     1       5.962   3.822  15.840  0.00  0.00    +0.000 C 
BRANCH  14  16
ATOM     16  O   UNL     1       6.513   5.691  17.264  0.00  0.00    +0.000 OA
ATOM     17  H   UNL     1       5.884   6.428  17.160  0.00  0.00    +0.000 HD
ENDBRANCH  14  16
ENDBRANCH   6  14
BRANCH   1  18
ATOM     18  S   UNL     1       0.876   6.727  21.020  0.00  0.00    +0.000 S 
BRANCH  18  21
ATOM     19  C   UNL     1       1.011  10.765  20.637  0.00  0.00    +0.000 C 
ATOM     20  C   UNL     1       0.522   9.406  20.138  0.00  0.00    +0.000 C 
ATOM     21  C   UNL     1       1.349   8.480  21.018  0.00  0.00    +0.000 C 
ATOM     22  C   UNL     1       1.273   9.183  22.386  0.00  0.00    +0.000 C 
ATOM     23  N   UNL     1       0.933  10.595  22.103  0.00  0.00    +0.000 NA
ATOM     24  H   UNL     1       1.592  11.230  22.558  0.00  0.00    +0.000 HD
BRANCH  19  25
ATOM     25  C   UNL     1       0.204  11.942  20.072  0.00  0.00    +0.000 C 
BRANCH  25  26
ATOM     26  S   UNL     1       0.911  13.519  20.659  0.00  0.00    +0.000 S 
BRANCH  26  32
ATOM     27  C   UNL     1      -3.102  12.272  23.449  0.00  0.00    +0.000 C 
ATOM     28  C   UNL     1      -1.999  13.266  23.252  0.00  0.00    +0.000 A 
ATOM     29  C   UNL     1      -1.861  14.366  24.071  0.00  0.00    +0.000 A 
ATOM     30  C   UNL     1      -0.806  15.203  23.782  0.00  0.00    +0.000 A 
ATOM     31  N   UNL     1       0.062  14.999  22.770  0.00  0.00    +0.000 NA
ATOM     32  C   UNL     1      -0.158  13.904  22.022  0.00  0.00    +0.000 A 
ATOM     33  N   UNL     1      -1.155  13.027  22.229  0.00  0.00    +0.000 NA
ENDBRANCH  26  32
ENDBRANCH  25  26
ENDBRANCH  19  25
ENDBRANCH  18  21
ENDBRANCH   1  18
TORSDOF 9
ENDMDL
