MODEL 1
REMARK VINA RESULT:      -7.6      0.000      0.000
REMARK  Name = 
REMARK  8 active torsions:
REMARK  status: ('A' for Active; 'I' for Inactive)
REMARK    1  A    between atoms: C_1  and  O_2
REMARK    2  A    between atoms: O_2  and  C_3
REMARK    3  A    between atoms: C_8  and  C_9
REMARK    4  A    between atoms: C_9  and  C_10
REMARK    5  A    between atoms: C_10  and  C_11
REMARK    6  A    between atoms: N_13  and  C_14
REMARK    7  A    between atoms: C_19  and  C_20
REMARK    8  A    between atoms: C_22  and  N_23
REMARK                            x       y       z     vdW  Elec       q    Type
REMARK                         _______ _______ _______ _____ _____    ______ ____
ROOT
ATOM      1  C   UNL     1       2.450   5.150  18.341  0.00  0.00    +0.000 C 
ATOM      2  O   UNL     1       1.412   5.136  17.672  0.00  0.00    +0.000 OA
ATOM      3  N   UNL     1       2.921   6.246  19.038  0.00  0.00    +0.000 N 
ATOM      4  H   UNL     1       3.625   6.079  19.755  0.00  0.00    +0.000 HD
ENDROOT
BRANCH   3   5
ATOM      5  C   UNL     1       2.316   7.531  19.024  0.00  0.00    +0.000 A 
ATOM      6  C   UNL     1       2.262   8.315  17.884  0.00  0.00    +0.000 A 
ATOM      7  C   UNL     1       1.719   9.593  17.917  0.00  0.00    +0.000 A 
ATOM      8  C   UNL     1       1.067  10.077  19.022  0.00  0.00    +0.000 A 
ATOM      9  N   UNL     1       0.477  11.265  18.883  0.00  0.00    +0.000 NA
ATOM     10  C   UNL     1      -0.422  11.641  19.807  0.00  0.00    +0.000 A 
ATOM     11  C   UNL     1      -1.195  12.887  19.505  0.00  0.00    +0.000 C 
ATOM     12  C   UNL     1      -0.724  10.847  20.902  0.00  0.00    +0.000 A 
ATOM     13  C   UNL     1       0.005   9.672  21.129  0.00  0.00    +0.000 A 
ATOM     14  C   UNL     1       0.956   9.254  20.157  0.00  0.00    +0.000 A 
ATOM     15  C   UNL     1       1.710   8.040  20.189  0.00  0.00    +0.000 A 
BRANCH  13  16
ATOM     16  N   UNL     1      -0.478   8.788  22.119  0.00  0.00    +0.000 N 
ATOM     17  H   UNL     1      -0.717   7.860  21.782  0.00  0.00    +0.000 HD
ATOM     18  H   UNL     1      -1.173   9.174  22.742  0.00  0.00    +0.000 HD
ENDBRANCH  13  16
ENDBRANCH   3   5
BRANCH   1  19
ATOM     19  C   UNL     1       3.272   3.873  18.344  0.00  0.00    +0.000 C 
BRANCH  19  20
ATOM     20  C   UNL     1       4.552   3.726  17.531  0.00  0.00    +0.000 C 
BRANCH  20  26
ATOM     21  C   UNL     1       6.363   5.425  16.994  0.00  0.00    +0.000 A 
ATOM     22  C   UNL     1       7.394   6.258  17.417  0.00  0.00    +0.000 A 
ATOM     23  C   UNL     1       7.746   6.235  18.756  0.00  0.00    +0.000 A 
ATOM     24  N   UNL     1       7.134   5.473  19.679  0.00  0.00    +0.000 NA
ATOM     25  C   UNL     1       6.110   4.702  19.250  0.00  0.00    +0.000 A 
ATOM     26  C   UNL     1       5.679   4.639  17.926  0.00  0.00    +0.000 A 
BRANCH  21  28
ATOM     27  C   UNL     1       6.845   4.741  14.771  0.00  0.00    +0.000 C 
ATOM     28  O   UNL     1       5.934   5.326  15.695  0.00  0.00    +0.000 OA
ENDBRANCH  21  28
ENDBRANCH  20  26
ENDBRANCH  19  20
ENDBRANCH   1  19
TORSDOF 6
ENDMDL
MODEL 2
REMARK VINA RESULT:      -7.6      1.464      2.045
REMARK  Name = 
REMARK  8 active torsions:
REMARK  status: ('A' for Active; 'I' for Inactive)
REMARK    1  A    between atoms: C_1  and  O_2
REMARK    2  A    between atoms: O_2  and  C_3
REMARK    3  A    between atoms: C_8  and  C_9
REMARK    4  A    between atoms: C_9  and  C_10
REMARK    5  A    between atoms: C_10  and  C_11
REMARK    6  A    between atoms: N_13  and  C_14
REMARK    7  A    between atoms: C_19  and  C_20
REMARK    8  A    between atoms: C_22  and  N_23
REMARK                            x       y       z     vdW  Elec       q    Type
REMARK                         _______ _______ _______ _____ _____    ______ ____
ROOT
ATOM      1  C   UNL     1       2.495   4.684  19.585  0.00  0.00    +0.000 C 
ATOM      2  O   UNL     1       1.559   4.513  18.798  0.00  0.00    +0.000 OA
ATOM      3  N   UNL     1       2.895   5.912  20.076  0.00  0.00    +0.000 N 
ATOM      4  H   UNL     1       3.489   5.915  20.903  0.00  0.00    +0.000 HD
ENDROOT
BRANCH   3   5
ATOM      5  C   UNL     1       2.333   7.157  19.689  0.00  0.00    +0.000 A 
ATOM      6  C   UNL     1       2.368   7.615  18.382  0.00  0.00    +0.000 A 
ATOM      7  C   UNL     1       1.864   8.865  18.046  0.00  0.00    +0.000 A 
ATOM      8  C   UNL     1       1.166   9.632  18.942  0.00  0.00    +0.000 A 
ATOM      9  N   UNL     1       0.622  10.751  18.461  0.00  0.00    +0.000 NA
ATOM     10  C   UNL     1      -0.315  11.370  19.196  0.00  0.00    +0.000 A 
ATOM     11  C   UNL     1      -1.030  12.505  18.531  0.00  0.00    +0.000 C 
ATOM     12  C   UNL     1      -0.702  10.897  20.439  0.00  0.00    +0.000 A 
ATOM     13  C   UNL     1      -0.025   9.812  21.012  0.00  0.00    +0.000 A 
ATOM     14  C   UNL     1       0.966   9.138  20.244  0.00  0.00    +0.000 A 
ATOM     15  C   UNL     1       1.678   7.964  20.639  0.00  0.00    +0.000 A 
BRANCH  13  16
ATOM     16  N   UNL     1      -0.590   9.226  22.165  0.00  0.00    +0.000 N 
ATOM     17  H   UNL     1      -0.939   8.282  22.038  0.00  0.00    +0.000 HD
ATOM     18  H   UNL     1      -1.227   9.817  22.682  0.00  0.00    +0.000 HD
ENDBRANCH  13  16
ENDBRANCH   3   5
BRANCH   1  19
ATOM     19  C   UNL     1       3.274   3.445  19.991  0.00  0.00    +0.000 C 
BRANCH  19  20
ATOM     20  C   UNL     1       4.623   3.094  19.377  0.00  0.00    +0.000 C 
BRANCH  20  26
ATOM     21  C   UNL     1       5.947   5.002  18.345  0.00  0.00    +0.000 A 
ATOM     22  C   UNL     1       6.307   5.750  17.229  0.00  0.00    +0.000 A 
ATOM     23  C   UNL     1       5.708   5.448  16.018  0.00  0.00    +0.000 A 
ATOM     24  N   UNL     1       4.814   4.457  15.850  0.00  0.00    +0.000 NA
ATOM     25  C   UNL     1       4.510   3.721  16.942  0.00  0.00    +0.000 A 
ATOM     26  C   UNL     1       5.045   3.942  18.210  0.00  0.00    +0.000 A 
BRANCH  21  28
ATOM     27  C   UNL     1       7.777   5.689  19.693  0.00  0.00    +0.000 C 
ATOM     28  O   UNL     1       6.440   5.213  19.608  0.00  0.00    +0.000 OA
ENDBRANCH  21  28
ENDBRANCH  20  26
ENDBRANCH  19  20
ENDBRANCH   1  19
TORSDOF 6
ENDMDL
MODEL 3
REMARK VINA RESULT:      -7.6      4.701      7.394
REMARK  Name = 
REMARK  8 active torsions:
REMARK  status: ('A' for Active; 'I' for Inactive)
REMARK    1  A    between atoms: C_1  and  O_2
REMARK    2  A    between atoms: O_2  and  C_3
REMARK    3  A    between atoms: C_8  and  C_9
REMARK    4  A    between atoms: C_9  and  C_10
REMARK    5  A    between atoms: C_10  and  C_11
REMARK    6  A    between atoms: N_13  and  C_14
REMARK    7  A    between atoms: C_19  and  C_20
REMARK    8  A    between atoms: C_22  and  N_23
REMARK                            x       y       z     vdW  Elec       q    Type
REMARK                         _______ _______ _______ _____ _____    ______ ____
ROOT
ATOM      1  C   UNL     1       7.877   8.183  17.829  0.00  0.00    +0.000 C 
ATOM      2  O   UNL     1       8.263   7.364  18.668  0.00  0.00    +0.000 OA
ATOM      3  N   UNL     1       6.734   8.047  17.066  0.00  0.00    +0.000 N 
ATOM      4  H   UNL     1       6.373   8.883  16.608  0.00  0.00    +0.000 HD
ENDROOT
BRANCH   3   5
ATOM      5  C   UNL     1       5.880   6.913  17.087  0.00  0.00    +0.000 A 
ATOM      6  C   UNL     1       6.226   5.711  16.492  0.00  0.00    +0.000 A 
ATOM      7  C   UNL     1       5.344   4.638  16.476  0.00  0.00    +0.000 A 
ATOM      8  C   UNL     1       4.168   4.654  17.181  0.00  0.00    +0.000 A 
ATOM      9  N   UNL     1       3.472   3.516  17.190  0.00  0.00    +0.000 NA
ATOM     10  C   UNL     1       2.494   3.375  18.099  0.00  0.00    +0.000 A 
ATOM     11  C   UNL     1       1.876   2.016  18.198  0.00  0.00    +0.000 C 
ATOM     12  C   UNL     1       2.175   4.384  18.994  0.00  0.00    +0.000 A 
ATOM     13  C   UNL     1       2.800   5.634  18.884  0.00  0.00    +0.000 A 
ATOM     14  C   UNL     1       3.844   5.799  17.932  0.00  0.00    +0.000 A 
ATOM     15  C   UNL     1       4.644   6.970  17.758  0.00  0.00    +0.000 A 
BRANCH  13  16
ATOM     16  N   UNL     1       2.612   6.550  19.942  0.00  0.00    +0.000 N 
ATOM     17  H   UNL     1       3.154   6.354  20.777  0.00  0.00    +0.000 HD
ATOM     18  H   UNL     1       1.651   6.791  20.139  0.00  0.00    +0.000 HD
ENDBRANCH  13  16
ENDBRANCH   3   5
BRANCH   1  19
ATOM     19  C   UNL     1       8.765   9.395  17.607  0.00  0.00    +0.000 C 
BRANCH  19  20
ATOM     20  C   UNL     1       9.019  10.429  18.696  0.00  0.00    +0.000 C 
BRANCH  20  26
ATOM     21  C   UNL     1       9.371  12.781  17.798  0.00  0.00    +0.000 A 
ATOM     22  C   UNL     1      10.230  13.820  17.455  0.00  0.00    +0.000 A 
ATOM     23  C   UNL     1      11.593  13.609  17.572  0.00  0.00    +0.000 A 
ATOM     24  N   UNL     1      12.139  12.465  18.022  0.00  0.00    +0.000 NA
ATOM     25  C   UNL     1      11.283  11.485  18.386  0.00  0.00    +0.000 A 
ATOM     26  C   UNL     1       9.895  11.585  18.300  0.00  0.00    +0.000 A 
BRANCH  21  28
ATOM     27  C   UNL     1       7.431  14.145  17.698  0.00  0.00    +0.000 C 
ATOM     28  O   UNL     1       8.004  12.843  17.702  0.00  0.00    +0.000 OA
ENDBRANCH  21  28
ENDBRANCH  20  26
ENDBRANCH  19  20
ENDBRANCH   1  19
TORSDOF 6
ENDMDL
MODEL 4
REMARK VINA RESULT:      -7.6      4.934      7.774
REMARK  Name = 
REMARK  8 active torsions:
REMARK  status: ('A' for Active; 'I' for Inactive)
REMARK    1  A    between atoms: C_1  and  O_2
REMARK    2  A    between atoms: O_2  and  C_3
REMARK    3  A    between atoms: C_8  and  C_9
REMARK    4  A    between atoms: C_9  and  C_10
REMARK    5  A    between atoms: C_10  and  C_11
REMARK    6  A    between atoms: N_13  and  C_14
REMARK    7  A    between atoms: C_19  and  C_20
REMARK    8  A    between atoms: C_22  and  N_23
REMARK                            x       y       z     vdW  Elec       q    Type
REMARK                         _______ _______ _______ _____ _____    ______ ____
ROOT
ATOM      1  C   UNL     1       8.095   8.336  18.051  0.00  0.00    +0.000 C 
ATOM      2  O   UNL     1       8.481   7.469  18.840  0.00  0.00    +0.000 OA
ATOM      3  N   UNL     1       6.984   8.221  17.238  0.00  0.00    +0.000 N 
ATOM      4  H   UNL     1       6.610   9.076  16.831  0.00  0.00    +0.000 HD
ENDROOT
BRANCH   3   5
ATOM      5  C   UNL     1       6.172   7.060  17.142  0.00  0.00    +0.000 A 
ATOM      6  C   UNL     1       6.588   5.914  16.486  0.00  0.00    +0.000 A 
ATOM      7  C   UNL     1       5.747   4.816  16.356  0.00  0.00    +0.000 A 
ATOM      8  C   UNL     1       4.540   4.744  17.003  0.00  0.00    +0.000 A 
ATOM      9  N   UNL     1       3.887   3.586  16.903  0.00  0.00    +0.000 NA
ATOM     10  C   UNL     1       2.874   3.351  17.752  0.00  0.00    +0.000 A 
ATOM     11  C   UNL     1       2.302   1.968  17.730  0.00  0.00    +0.000 C 
ATOM     12  C   UNL     1       2.478   4.285  18.696  0.00  0.00    +0.000 A 
ATOM     13  C   UNL     1       3.062   5.559  18.700  0.00  0.00    +0.000 A 
ATOM     14  C   UNL     1       4.142   5.823  17.813  0.00  0.00    +0.000 A 
ATOM     15  C   UNL     1       4.905   7.030  17.756  0.00  0.00    +0.000 A 
BRANCH  13  16
ATOM     16  N   UNL     1       2.793   6.395  19.807  0.00  0.00    +0.000 N 
ATOM     17  H   UNL     1       2.131   7.142  19.627  0.00  0.00    +0.000 HD
ATOM     18  H   UNL     1       3.605   6.701  20.324  0.00  0.00    +0.000 HD
ENDBRANCH  13  16
ENDBRANCH   3   5
BRANCH   1  19
ATOM     19  C   UNL     1       8.945   9.591  17.953  0.00  0.00    +0.000 C 
BRANCH  19  20
ATOM     20  C   UNL     1       9.439  10.338  19.186  0.00  0.00    +0.000 C 
BRANCH  20  26
ATOM     21  C   UNL     1      10.715  12.417  19.900  0.00  0.00    +0.000 A 
ATOM     22  C   UNL     1      11.596  13.450  19.597  0.00  0.00    +0.000 A 
ATOM     23  C   UNL     1      12.072  13.545  18.300  0.00  0.00    +0.000 A 
ATOM     24  N   UNL     1      11.751  12.684  17.319  0.00  0.00    +0.000 NA
ATOM     25  C   UNL     1      10.924  11.667  17.648  0.00  0.00    +0.000 A 
ATOM     26  C   UNL     1      10.379  11.480  18.917  0.00  0.00    +0.000 A 
BRANCH  21  28
ATOM     27  C   UNL     1       9.642  13.382  21.785  0.00  0.00    +0.000 C 
ATOM     28  O   UNL     1      10.146  12.223  21.133  0.00  0.00    +0.000 OA
ENDBRANCH  21  28
ENDBRANCH  20  26
ENDBRANCH  19  20
ENDBRANCH   1  19
TORSDOF 6
ENDMDL
MODEL 5
REMARK VINA RESULT:      -7.5      1.634      2.394
REMARK  Name = 
REMARK  8 active torsions:
REMARK  status: ('A' for Active; 'I' for Inactive)
REMARK    1  A    between atoms: C_1  and  O_2
REMARK    2  A    between atoms: O_2  and  C_3
REMARK    3  A    between atoms: C_8  and  C_9
REMARK    4  A    between atoms: C_9  and  C_10
REMARK    5  A    between atoms: C_10  and  C_11
REMARK    6  A    between atoms: N_13  and  C_14
REMARK    7  A    between atoms: C_19  and  C_20
REMARK    8  A    between atoms: C_22  and  N_23
REMARK                            x       y       z     vdW  Elec       q    Type
REMARK                         _______ _______ _______ _____ _____    ______ ____
ROOT
ATOM      1  C   UNL     1       1.935   4.753  20.709  0.00  0.00    +0.000 C 
ATOM      2  O   UNL     1       0.710   4.693  20.561  0.00  0.00    +0.000 OA
ATOM      3  N   UNL     1       2.696   5.885  20.496  0.00  0.00    +0.000 N 
ATOM      4  H   UNL     1       3.634   5.901  20.893  0.00  0.00    +0.000 HD
ENDROOT
BRANCH   3   5
ATOM      5  C   UNL     1       2.190   7.119  20.007  0.00  0.00    +0.000 A 
ATOM      6  C   UNL     1       2.237   7.464  18.667  0.00  0.00    +0.000 A 
ATOM      7  C   UNL     1       1.789   8.703  18.228  0.00  0.00    +0.000 A 
ATOM      8  C   UNL     1       1.133   9.574  19.059  0.00  0.00    +0.000 A 
ATOM      9  N   UNL     1       0.638  10.673  18.487  0.00  0.00    +0.000 NA
ATOM     10  C   UNL     1      -0.265  11.394  19.170  0.00  0.00    +0.000 A 
ATOM     11  C   UNL     1      -0.931  12.501  18.415  0.00  0.00    +0.000 C 
ATOM     12  C   UNL     1      -0.666  11.044  20.450  0.00  0.00    +0.000 A 
ATOM     13  C   UNL     1      -0.035   9.981  21.109  0.00  0.00    +0.000 A 
ATOM     14  C   UNL     1       0.919   9.200  20.398  0.00  0.00    +0.000 A 
ATOM     15  C   UNL     1       1.579   8.032  20.888  0.00  0.00    +0.000 A 
BRANCH  13  16
ATOM     16  N   UNL     1      -0.619   9.521  22.310  0.00  0.00    +0.000 N 
ATOM     17  H   UNL     1      -1.314  10.142  22.712  0.00  0.00    +0.000 HD
ATOM     18  H   UNL     1       0.029   9.155  22.993  0.00  0.00    +0.000 HD
ENDBRANCH  13  16
ENDBRANCH   3   5
BRANCH   1  19
ATOM     19  C   UNL     1       2.633   3.466  21.110  0.00  0.00    +0.000 C 
BRANCH  19  20
ATOM     20  C   UNL     1       3.378   2.597  20.105  0.00  0.00    +0.000 C 
BRANCH  20  26
ATOM     21  C   UNL     1       3.680   3.547  17.768  0.00  0.00    +0.000 A 
ATOM     22  C   UNL     1       4.450   4.250  16.846  0.00  0.00    +0.000 A 
ATOM     23  C   UNL     1       5.708   4.677  17.233  0.00  0.00    +0.000 A 
ATOM     24  N   UNL     1       6.224   4.474  18.459  0.00  0.00    +0.000 NA
ATOM     25  C   UNL     1       5.442   3.823  19.348  0.00  0.00    +0.000 A 
ATOM     26  C   UNL     1       4.166   3.341  19.063  0.00  0.00    +0.000 A 
BRANCH  21  28
ATOM     27  C   UNL     1       1.388   3.993  17.341  0.00  0.00    +0.000 C 
ATOM     28  O   UNL     1       2.432   3.042  17.507  0.00  0.00    +0.000 OA
ENDBRANCH  21  28
ENDBRANCH  20  26
ENDBRANCH  19  20
ENDBRANCH   1  19
TORSDOF 6
ENDMDL
MODEL 6
REMARK VINA RESULT:      -7.4      4.201      7.097
REMARK  Name = 
REMARK  8 active torsions:
REMARK  status: ('A' for Active; 'I' for Inactive)
REMARK    1  A    between atoms: C_1  and  O_2
REMARK    2  A    between atoms: O_2  and  C_3
REMARK    3  A    between atoms: C_8  and  C_9
REMARK    4  A    between atoms: C_9  and  C_10
REMARK    5  A    between atoms: C_10  and  C_11
REMARK    6  A    between atoms: N_13  and  C_14
REMARK    7  A    between atoms: C_19  and  C_20
REMARK    8  A    between atoms: C_22  and  N_23
REMARK                            x       y       z     vdW  Elec       q    Type
REMARK                         _______ _______ _______ _____ _____    ______ ____
ROOT
ATOM      1  C   UNL     1       7.468   7.659  17.810  0.00  0.00    +0.000 C 
ATOM      2  O   UNL     1       6.861   7.958  16.777  0.00  0.00    +0.000 OA
ATOM      3  N   UNL     1       7.148   6.594  18.629  0.00  0.00    +0.000 N 
ATOM      4  H   UNL     1       7.856   6.284  19.293  0.00  0.00    +0.000 HD
ENDROOT
BRANCH   3   5
ATOM      5  C   UNL     1       6.032   5.736  18.439  0.00  0.00    +0.000 A 
ATOM      6  C   UNL     1       6.141   4.502  17.821  0.00  0.00    +0.000 A 
ATOM      7  C   UNL     1       5.021   3.712  17.595  0.00  0.00    +0.000 A 
ATOM      8  C   UNL     1       3.791   4.030  18.111  0.00  0.00    +0.000 A 
ATOM      9  N   UNL     1       2.827   3.126  17.933  0.00  0.00    +0.000 NA
ATOM     10  C   UNL     1       1.709   3.234  18.669  0.00  0.00    +0.000 A 
ATOM     11  C   UNL     1       0.745   2.094  18.576  0.00  0.00    +0.000 C 
ATOM     12  C   UNL     1       1.525   4.268  19.574  0.00  0.00    +0.000 A 
ATOM     13  C   UNL     1       2.469   5.302  19.649  0.00  0.00    +0.000 A 
ATOM     14  C   UNL     1       3.663   5.199  18.883  0.00  0.00    +0.000 A 
ATOM     15  C   UNL     1       4.762   6.112  18.916  0.00  0.00    +0.000 A 
BRANCH  13  16
ATOM     16  N   UNL     1       2.358   6.206  20.728  0.00  0.00    +0.000 N 
ATOM     17  H   UNL     1       3.204   6.727  20.937  0.00  0.00    +0.000 HD
ATOM     18  H   UNL     1       1.903   5.842  21.553  0.00  0.00    +0.000 HD
ENDBRANCH  13  16
ENDBRANCH   3   5
BRANCH   1  19
ATOM     19  C   UNL     1       8.615   8.570  18.210  0.00  0.00    +0.000 C 
BRANCH  19  20
ATOM     20  C   UNL     1       8.454  10.081  18.326  0.00  0.00    +0.000 C 
BRANCH  20  26
ATOM     21  C   UNL     1      10.007  11.186  20.007  0.00  0.00    +0.000 A 
ATOM     22  C   UNL     1      11.179  11.883  20.283  0.00  0.00    +0.000 A 
ATOM     23  C   UNL     1      11.982  12.261  19.221  0.00  0.00    +0.000 A 
ATOM     24  N   UNL     1      11.709  11.973  17.936  0.00  0.00    +0.000 NA
ATOM     25  C   UNL     1      10.586  11.262  17.697  0.00  0.00    +0.000 A 
ATOM     26  C   UNL     1       9.700  10.840  18.687  0.00  0.00    +0.000 A 
BRANCH  21  28
ATOM     27  C   UNL     1       8.684  11.765  21.892  0.00  0.00    +0.000 C 
ATOM     28  O   UNL     1       9.107  10.778  20.959  0.00  0.00    +0.000 OA
ENDBRANCH  21  28
ENDBRANCH  20  26
ENDBRANCH  19  20
ENDBRANCH   1  19
TORSDOF 6
ENDMDL
MODEL 7
REMARK VINA RESULT:      -7.3      3.023      4.488
REMARK  Name = 
REMARK  8 active torsions:
REMARK  status: ('A' for Active; 'I' for Inactive)
REMARK    1  A    between atoms: C_1  and  O_2
REMARK    2  A    between atoms: O_2  and  C_3
REMARK    3  A    between atoms: C_8  and  C_9
REMARK    4  A    between atoms: C_9  and  C_10
REMARK    5  A    between atoms: C_10  and  C_11
REMARK    6  A    between atoms: N_13  and  C_14
REMARK    7  A    between atoms: C_19  and  C_20
REMARK    8  A    between atoms: C_22  and  N_23
REMARK                            x       y       z     vdW  Elec       q    Type
REMARK                         _______ _______ _______ _____ _____    ______ ____
ROOT
ATOM      1  C   UNL     1       1.622   8.843  18.479  0.00  0.00    +0.000 C 
ATOM      2  O   UNL     1       1.343   8.550  19.646  0.00  0.00    +0.000 OA
ATOM      3  N   UNL     1       0.872   9.683  17.680  0.00  0.00    +0.000 N 
ATOM      4  H   UNL     1       1.319  10.060  16.846  0.00  0.00    +0.000 HD
ENDROOT
BRANCH   3   5
ATOM      5  C   UNL     1      -0.364  10.270  18.061  0.00  0.00    +0.000 A 
ATOM      6  C   UNL     1      -0.473  11.143  19.130  0.00  0.00    +0.000 A 
ATOM      7  C   UNL     1      -1.706  11.654  19.517  0.00  0.00    +0.000 A 
ATOM      8  C   UNL     1      -2.840  11.456  18.772  0.00  0.00    +0.000 A 
ATOM      9  N   UNL     1      -3.932  12.106  19.179  0.00  0.00    +0.000 NA
ATOM     10  C   UNL     1      -4.969  12.200  18.331  0.00  0.00    +0.000 A 
ATOM     11  C   UNL     1      -6.087  13.099  18.756  0.00  0.00    +0.000 C 
ATOM     12  C   UNL     1      -4.942  11.620  17.073  0.00  0.00    +0.000 A 
ATOM     13  C   UNL     1      -3.860  10.809  16.705  0.00  0.00    +0.000 A 
ATOM     14  C   UNL     1      -2.748  10.704  17.586  0.00  0.00    +0.000 A 
ATOM     15  C   UNL     1      -1.532  10.001  17.323  0.00  0.00    +0.000 A 
BRANCH  13  16
ATOM     16  N   UNL     1      -3.767  10.424  15.349  0.00  0.00    +0.000 N 
ATOM     17  H   UNL     1      -2.832  10.183  15.037  0.00  0.00    +0.000 HD
ATOM     18  H   UNL     1      -4.261  11.017  14.697  0.00  0.00    +0.000 HD
ENDBRANCH  13  16
ENDBRANCH   3   5
BRANCH   1  19
ATOM     19  C   UNL     1       2.858   8.184  17.892  0.00  0.00    +0.000 C 
BRANCH  19  20
ATOM     20  C   UNL     1       3.285   6.771  18.269  0.00  0.00    +0.000 C 
BRANCH  20  26
ATOM     21  C   UNL     1       4.196   4.668  17.170  0.00  0.00    +0.000 A 
ATOM     22  C   UNL     1       5.003   4.067  16.210  0.00  0.00    +0.000 A 
ATOM     23  C   UNL     1       5.778   4.881  15.402  0.00  0.00    +0.000 A 
ATOM     24  N   UNL     1       5.779   6.225  15.474  0.00  0.00    +0.000 NA
ATOM     25  C   UNL     1       4.957   6.786  16.387  0.00  0.00    +0.000 A 
ATOM     26  C   UNL     1       4.143   6.063  17.258  0.00  0.00    +0.000 A 
BRANCH  21  28
ATOM     27  C   UNL     1       2.540   2.998  17.495  0.00  0.00    +0.000 C 
ATOM     28  O   UNL     1       3.403   3.981  18.054  0.00  0.00    +0.000 OA
ENDBRANCH  21  28
ENDBRANCH  20  26
ENDBRANCH  19  20
ENDBRANCH   1  19
TORSDOF 6
ENDMDL
MODEL 8
REMARK VINA RESULT:      -7.3      2.387      8.288
REMARK  Name = 
REMARK  8 active torsions:
REMARK  status: ('A' for Active; 'I' for Inactive)
REMARK    1  A    between atoms: C_1  and  O_2
REMARK    2  A    between atoms: O_2  and  C_3
REMARK    3  A    between atoms: C_8  and  C_9
REMARK    4  A    between atoms: C_9  and  C_10
REMARK    5  A    between atoms: C_10  and  C_11
REMARK    6  A    between atoms: N_13  and  C_14
REMARK    7  A    between atoms: C_19  and  C_20
REMARK    8  A    between atoms: C_22  and  N_23
REMARK                            x       y       z     vdW  Elec       q    Type
REMARK                         _______ _______ _______ _____ _____    ______ ____
ROOT
ATOM      1  C   UNL     1       1.892   7.447  20.112  0.00  0.00    +0.000 C 
ATOM      2  O   UNL     1       1.851   8.183  19.121  0.00  0.00    +0.000 OA
ATOM      3  N   UNL     1       2.534   6.225  20.157  0.00  0.00    +0.000 N 
ATOM      4  H   UNL     1       2.730   5.832  21.076  0.00  0.00    +0.000 HD
ENDROOT
BRANCH   3   5
ATOM      5  C   UNL     1       3.176   5.609  19.050  0.00  0.00    +0.000 A 
ATOM      6  C   UNL     1       2.554   4.649  18.270  0.00  0.00    +0.000 A 
ATOM      7  C   UNL     1       3.229   4.020  17.232  0.00  0.00    +0.000 A 
ATOM      8  C   UNL     1       4.472   4.428  16.821  0.00  0.00    +0.000 A 
ATOM      9  N   UNL     1       4.957   3.831  15.731  0.00  0.00    +0.000 NA
ATOM     10  C   UNL     1       6.007   4.393  15.111  0.00  0.00    +0.000 A 
ATOM     11  C   UNL     1       6.389   3.799  13.792  0.00  0.00    +0.000 C 
ATOM     12  C   UNL     1       6.609   5.547  15.590  0.00  0.00    +0.000 A 
ATOM     13  C   UNL     1       6.199   6.087  16.816  0.00  0.00    +0.000 A 
ATOM     14  C   UNL     1       5.083   5.509  17.483  0.00  0.00    +0.000 A 
ATOM     15  C   UNL     1       4.481   5.994  18.685  0.00  0.00    +0.000 A 
BRANCH  13  16
ATOM     16  N   UNL     1       6.677   7.372  17.153  0.00  0.00    +0.000 N 
ATOM     17  H   UNL     1       5.969   8.016  17.492  0.00  0.00    +0.000 HD
ATOM     18  H   UNL     1       7.304   7.790  16.480  0.00  0.00    +0.000 HD
ENDBRANCH  13  16
ENDBRANCH   3   5
BRANCH   1  19
ATOM     19  C   UNL     1       1.136   7.922  21.341  0.00  0.00    +0.000 C 
BRANCH  19  20
ATOM     20  C   UNL     1       1.447   9.246  22.027  0.00  0.00    +0.000 C 
BRANCH  20  26
ATOM     21  C   UNL     1       0.165  11.239  21.110  0.00  0.00    +0.000 A 
ATOM     22  C   UNL     1      -0.907  12.122  21.196  0.00  0.00    +0.000 A 
ATOM     23  C   UNL     1      -1.766  12.006  22.276  0.00  0.00    +0.000 A 
ATOM     24  N   UNL     1      -1.640  11.073  23.236  0.00  0.00    +0.000 NA
ATOM     25  C   UNL     1      -0.615  10.203  23.109  0.00  0.00    +0.000 A 
ATOM     26  C   UNL     1       0.315  10.234  22.071  0.00  0.00    +0.000 A 
BRANCH  21  28
ATOM     27  C   UNL     1       1.066  12.376  19.230  0.00  0.00    +0.000 C 
ATOM     28  O   UNL     1       1.106  11.261  20.113  0.00  0.00    +0.000 OA
ENDBRANCH  21  28
ENDBRANCH  20  26
ENDBRANCH  19  20
ENDBRANCH   1  19
TORSDOF 6
ENDMDL
MODEL 9
REMARK VINA RESULT:      -7.3      4.299      6.942
REMARK  Name = 
REMARK  8 active torsions:
REMARK  status: ('A' for Active; 'I' for Inactive)
REMARK    1  A    between atoms: C_1  and  O_2
REMARK    2  A    between atoms: O_2  and  C_3
REMARK    3  A    between atoms: C_8  and  C_9
REMARK    4  A    between atoms: C_9  and  C_10
REMARK    5  A    between atoms: C_10  and  C_11
REMARK    6  A    between atoms: N_13  and  C_14
REMARK    7  A    between atoms: C_19  and  C_20
REMARK    8  A    between atoms: C_22  and  N_23
REMARK                            x       y       z     vdW  Elec       q    Type
REMARK                         _______ _______ _______ _____ _____    ______ ____
ROOT
ATOM      1  C   UNL     1       7.736   7.860  17.849  0.00  0.00    +0.000 C 
ATOM      2  O   UNL     1       8.064   7.044  18.715  0.00  0.00    +0.000 OA
ATOM      3  N   UNL     1       6.576   7.791  17.102  0.00  0.00    +0.000 N 
ATOM      4  H   UNL     1       6.280   8.636  16.616  0.00  0.00    +0.000 HD
ENDROOT
BRANCH   3   5
ATOM      5  C   UNL     1       5.632   6.732  17.174  0.00  0.00    +0.000 A 
ATOM      6  C   UNL     1       5.848   5.502  16.575  0.00  0.00    +0.000 A 
ATOM      7  C   UNL     1       4.880   4.507  16.611  0.00  0.00    +0.000 A 
ATOM      8  C   UNL     1       3.744   4.625  17.371  0.00  0.00    +0.000 A 
ATOM      9  N   UNL     1       2.957   3.549  17.424  0.00  0.00    +0.000 NA
ATOM     10  C   UNL     1       2.015   3.496  18.379  0.00  0.00    +0.000 A 
ATOM     11  C   UNL     1       1.292   2.194  18.519  0.00  0.00    +0.000 C 
ATOM     12  C   UNL     1       1.825   4.533  19.279  0.00  0.00    +0.000 A 
ATOM     13  C   UNL     1       2.546   5.725  19.128  0.00  0.00    +0.000 A 
ATOM     14  C   UNL     1       3.554   5.797  18.126  0.00  0.00    +0.000 A 
ATOM     15  C   UNL     1       4.439   6.896  17.903  0.00  0.00    +0.000 A 
BRANCH  13  16
ATOM     16  N   UNL     1       2.487   6.660  20.185  0.00  0.00    +0.000 N 
ATOM     17  H   UNL     1       2.759   7.605  19.934  0.00  0.00    +0.000 HD
ATOM     18  H   UNL     1       2.889   6.350  21.058  0.00  0.00    +0.000 HD
ENDBRANCH  13  16
ENDBRANCH   3   5
BRANCH   1  19
ATOM     19  C   UNL     1       8.717   8.986  17.573  0.00  0.00    +0.000 C 
BRANCH  19  20
ATOM     20  C   UNL     1       8.409  10.438  17.916  0.00  0.00    +0.000 C 
BRANCH  20  26
ATOM     21  C   UNL     1      10.453  11.793  18.581  0.00  0.00    +0.000 A 
ATOM     22  C   UNL     1      11.249  12.360  19.571  0.00  0.00    +0.000 A 
ATOM     23  C   UNL     1      10.909  12.135  20.894  0.00  0.00    +0.000 A 
ATOM     24  N   UNL     1       9.838  11.419  21.281  0.00  0.00    +0.000 NA
ATOM     25  C   UNL     1       9.059  10.912  20.301  0.00  0.00    +0.000 A 
ATOM     26  C   UNL     1       9.313  11.067  18.939  0.00  0.00    +0.000 A 
BRANCH  21  28
ATOM     27  C   UNL     1      11.136  13.184  16.782  0.00  0.00    +0.000 C 
ATOM     28  O   UNL     1      10.692  11.911  17.236  0.00  0.00    +0.000 OA
ENDBRANCH  21  28
ENDBRANCH  20  26
ENDBRANCH  19  20
ENDBRANCH   1  19
TORSDOF 6
ENDMDL
