MODEL 1
REMARK VINA RESULT:      -6.6      0.000      0.000
REMARK  Name = 
REMARK  8 active torsions:
REMARK  status: ('A' for Active; 'I' for Inactive)
REMARK    1  A    between atoms: C_1  and  C_2
REMARK    2  A    between atoms: C_2  and  C_3
REMARK    3  A    between atoms: C_2  and  C_4
REMARK    4  A    between atoms: C_4  and  N_5
REMARK    5  A    between atoms: C_9  and  C_10
REMARK    6  A    between atoms: C_10  and  N_11
REMARK    7  A    between atoms: N_11  and  C_12
REMARK    8  A    between atoms: C_17  and  C_18
REMARK                            x       y       z     vdW  Elec       q    Type
REMARK                         _______ _______ _______ _____ _____    ______ ____
ROOT
ATOM      1  C   UNL     1       3.403   3.614  17.335  0.00  0.00    +0.000 C 
ENDROOT
BRANCH   1   6
ATOM      2  N   UNL     1       2.184   4.710  19.325  0.00  0.00    +0.000 N 
ATOM      3  C   UNL     1       1.178   4.331  20.182  0.00  0.00    +0.000 A 
ATOM      4  C   UNL     1       0.888   3.032  19.857  0.00  0.00    +0.000 A 
ATOM      5  N   UNL     1       1.688   2.606  18.834  0.00  0.00    +0.000 NA
ATOM      6  C   UNL     1       2.451   3.637  18.500  0.00  0.00    +0.000 A 
BRANCH   2   7
ATOM      7  C   UNL     1       2.836   6.005  19.397  0.00  0.00    +0.000 C 
BRANCH   7   9
ATOM      8  C   UNL     1       1.980   8.290  18.679  0.00  0.00    +0.000 C 
ATOM      9  C   UNL     1       2.584   6.964  18.222  0.00  0.00    +0.000 C 
ATOM     10  C   UNL     1       3.883   7.213  17.454  0.00  0.00    +0.000 C 
ENDBRANCH   7   9
ENDBRANCH   2   7
ENDBRANCH   1   6
BRANCH   1  11
ATOM     11  N   UNL     1       4.764   3.169  17.616  0.00  0.00    +0.000 N 
ATOM     12  H   UNL     1       4.755   2.396  18.278  0.00  0.00    +0.000 HD
BRANCH  11  13
ATOM     13  C   UNL     1       5.758   4.112  17.875  0.00  0.00    +0.000 A 
ATOM     14  N   UNL     1       5.909   4.592  19.136  0.00  0.00    +0.000 NA
ATOM     15  C   UNL     1       6.863   5.540  19.331  0.00  0.00    +0.000 A 
ATOM     16  C   UNL     1       7.651   6.032  18.310  0.00  0.00    +0.000 A 
ATOM     17  N   UNL     1       7.511   5.605  17.042  0.00  0.00    +0.000 NA
ATOM     18  C   UNL     1       6.550   4.652  16.845  0.00  0.00    +0.000 A 
BRANCH  18  19
ATOM     19  C   UNL     1       6.384   4.240  15.483  0.00  0.00    +0.000 C 
ATOM     20  N   UNL     1       6.265   3.912  14.374  0.00  0.00    +0.000 NA
ENDBRANCH  18  19
ENDBRANCH  11  13
ENDBRANCH   1  11
TORSDOF 6
ENDMDL
MODEL 2
REMARK VINA RESULT:      -6.5      0.950      2.302
REMARK  Name = 
REMARK  8 active torsions:
REMARK  status: ('A' for Active; 'I' for Inactive)
REMARK    1  A    between atoms: C_1  and  C_2
REMARK    2  A    between atoms: C_2  and  C_3
REMARK    3  A    between atoms: C_2  and  C_4
REMARK    4  A    between atoms: C_4  and  N_5
REMARK    5  A    between atoms: C_9  and  C_10
REMARK    6  A    between atoms: C_10  and  N_11
REMARK    7  A    between atoms: N_11  and  C_12
REMARK    8  A    between atoms: C_17  and  C_18
REMARK                            x       y       z     vdW  Elec       q    Type
REMARK                         _______ _______ _______ _____ _____    ______ ____
ROOT
ATOM      1  C   UNL     1       3.338   3.516  17.483  0.00  0.00    +0.000 C 
ENDROOT
BRANCH   1   6
ATOM      2  N   UNL     1       2.444   4.813  19.524  0.00  0.00    +0.000 N 
ATOM      3  C   UNL     1       1.562   4.542  20.543  0.00  0.00    +0.000 A 
ATOM      4  C   UNL     1       1.195   3.233  20.373  0.00  0.00    +0.000 A 
ATOM      5  N   UNL     1       1.830   2.697  19.289  0.00  0.00    +0.000 NA
ATOM      6  C   UNL     1       2.563   3.668  18.764  0.00  0.00    +0.000 A 
BRANCH   2   7
ATOM      7  C   UNL     1       3.133   6.085  19.394  0.00  0.00    +0.000 C 
BRANCH   7   9
ATOM      8  C   UNL     1       2.105   8.233  18.501  0.00  0.00    +0.000 C 
ATOM      9  C   UNL     1       2.797   6.919  18.147  0.00  0.00    +0.000 C 
ATOM     10  C   UNL     1       4.066   7.193  17.336  0.00  0.00    +0.000 C 
ENDBRANCH   7   9
ENDBRANCH   2   7
ENDBRANCH   1   6
BRANCH   1  11
ATOM     11  N   UNL     1       4.793   3.560  17.594  0.00  0.00    +0.000 N 
ATOM     12  H   UNL     1       5.069   3.962  18.487  0.00  0.00    +0.000 HD
BRANCH  11  13
ATOM     13  C   UNL     1       5.552   4.017  16.518  0.00  0.00    +0.000 A 
ATOM     14  N   UNL     1       5.125   3.777  15.252  0.00  0.00    +0.000 NA
ATOM     15  C   UNL     1       5.918   4.206  14.236  0.00  0.00    +0.000 A 
ATOM     16  C   UNL     1       7.124   4.847  14.444  0.00  0.00    +0.000 A 
ATOM     17  N   UNL     1       7.595   5.077  15.683  0.00  0.00    +0.000 NA
ATOM     18  C   UNL     1       6.798   4.644  16.706  0.00  0.00    +0.000 A 
BRANCH  18  19
ATOM     19  C   UNL     1       7.335   4.857  18.017  0.00  0.00    +0.000 C 
ATOM     20  N   UNL     1       7.754   5.033  19.086  0.00  0.00    +0.000 NA
ENDBRANCH  18  19
ENDBRANCH  11  13
ENDBRANCH   1  11
TORSDOF 6
ENDMDL
MODEL 3
REMARK VINA RESULT:      -6.4      1.391      3.760
REMARK  Name = 
REMARK  8 active torsions:
REMARK  status: ('A' for Active; 'I' for Inactive)
REMARK    1  A    between atoms: C_1  and  C_2
REMARK    2  A    between atoms: C_2  and  C_3
REMARK    3  A    between atoms: C_2  and  C_4
REMARK    4  A    between atoms: C_4  and  N_5
REMARK    5  A    between atoms: C_9  and  C_10
REMARK    6  A    between atoms: C_10  and  N_11
REMARK    7  A    between atoms: N_11  and  C_12
REMARK    8  A    between atoms: C_17  and  C_18
REMARK                            x       y       z     vdW  Elec       q    Type
REMARK                         _______ _______ _______ _____ _____    ______ ____
ROOT
ATOM      1  C   UNL     1       3.836   3.701  17.133  0.00  0.00    +0.000 C 
ENDROOT
BRANCH   1   6
ATOM      2  N   UNL     1       3.092   4.918  19.281  0.00  0.00    +0.000 N 
ATOM      3  C   UNL     1       2.897   6.231  19.641  0.00  0.00    +0.000 A 
ATOM      4  C   UNL     1       3.105   6.960  18.500  0.00  0.00    +0.000 A 
ATOM      5  N   UNL     1       3.413   6.135  17.455  0.00  0.00    +0.000 NA
ATOM      6  C   UNL     1       3.430   4.902  17.943  0.00  0.00    +0.000 A 
BRANCH   2   7
ATOM      7  C   UNL     1       2.886   3.810  20.195  0.00  0.00    +0.000 C 
BRANCH   7   9
ATOM      8  C   UNL     1       0.750   2.746  19.314  0.00  0.00    +0.000 C 
ATOM      9  C   UNL     1       1.426   3.436  20.497  0.00  0.00    +0.000 C 
ATOM     10  C   UNL     1       1.354   2.544  21.739  0.00  0.00    +0.000 C 
ENDBRANCH   7   9
ENDBRANCH   2   7
ENDBRANCH   1   6
BRANCH   1  11
ATOM     11  N   UNL     1       5.269   3.466  16.992  0.00  0.00    +0.000 N 
ATOM     12  H   UNL     1       5.742   3.607  17.882  0.00  0.00    +0.000 HD
BRANCH  11  13
ATOM     13  C   UNL     1       5.953   4.012  15.906  0.00  0.00    +0.000 A 
ATOM     14  N   UNL     1       5.753   3.497  14.666  0.00  0.00    +0.000 NA
ATOM     15  C   UNL     1       6.472   4.034  13.646  0.00  0.00    +0.000 A 
ATOM     16  C   UNL     1       7.389   5.049  13.828  0.00  0.00    +0.000 A 
ATOM     17  N   UNL     1       7.637   5.567  15.045  0.00  0.00    +0.000 NA
ATOM     18  C   UNL     1       6.916   5.025  16.072  0.00  0.00    +0.000 A 
BRANCH  18  19
ATOM     19  C   UNL     1       7.223   5.556  17.367  0.00  0.00    +0.000 C 
ATOM     20  N   UNL     1       7.460   5.976  18.424  0.00  0.00    +0.000 NA
ENDBRANCH  18  19
ENDBRANCH  11  13
ENDBRANCH   1  11
TORSDOF 6
ENDMDL
MODEL 4
REMARK VINA RESULT:      -6.4      1.103      2.877
REMARK  Name = 
REMARK  8 active torsions:
REMARK  status: ('A' for Active; 'I' for Inactive)
REMARK    1  A    between atoms: C_1  and  C_2
REMARK    2  A    between atoms: C_2  and  C_3
REMARK    3  A    between atoms: C_2  and  C_4
REMARK    4  A    between atoms: C_4  and  N_5
REMARK    5  A    between atoms: C_9  and  C_10
REMARK    6  A    between atoms: C_10  and  N_11
REMARK    7  A    between atoms: N_11  and  C_12
REMARK    8  A    between atoms: C_17  and  C_18
REMARK                            x       y       z     vdW  Elec       q    Type
REMARK                         _______ _______ _______ _____ _____    ______ ____
ROOT
ATOM      1  C   UNL     1       3.792   3.860  17.309  0.00  0.00    +0.000 C 
ENDROOT
BRANCH   1   6
ATOM      2  N   UNL     1       2.899   5.096  19.388  0.00  0.00    +0.000 N 
ATOM      3  C   UNL     1       2.580   6.399  19.686  0.00  0.00    +0.000 A 
ATOM      4  C   UNL     1       2.744   7.095  18.517  0.00  0.00    +0.000 A 
ATOM      5  N   UNL     1       3.146   6.257  17.516  0.00  0.00    +0.000 NA
ATOM      6  C   UNL     1       3.264   5.053  18.058  0.00  0.00    +0.000 A 
BRANCH   2   7
ATOM      7  C   UNL     1       2.775   4.013  20.347  0.00  0.00    +0.000 C 
BRANCH   7   9
ATOM      8  C   UNL     1       0.770   2.776  19.389  0.00  0.00    +0.000 C 
ATOM      9  C   UNL     1       1.353   3.490  20.607  0.00  0.00    +0.000 C 
ATOM     10  C   UNL     1       1.346   2.556  21.819  0.00  0.00    +0.000 C 
ENDBRANCH   7   9
ENDBRANCH   2   7
ENDBRANCH   1   6
BRANCH   1  11
ATOM     11  N   UNL     1       5.195   3.523  17.528  0.00  0.00    +0.000 N 
ATOM     12  H   UNL     1       5.276   2.742  18.176  0.00  0.00    +0.000 HD
BRANCH  11  13
ATOM     13  C   UNL     1       6.119   4.541  17.764  0.00  0.00    +0.000 A 
ATOM     14  N   UNL     1       6.443   4.863  19.042  0.00  0.00    +0.000 NA
ATOM     15  C   UNL     1       7.316   5.888  19.224  0.00  0.00    +0.000 A 
ATOM     16  C   UNL     1       7.857   6.607  18.176  0.00  0.00    +0.000 A 
ATOM     17  N   UNL     1       7.539   6.337  16.897  0.00  0.00    +0.000 NA
ATOM     18  C   UNL     1       6.659   5.307  16.715  0.00  0.00    +0.000 A 
BRANCH  18  19
ATOM     19  C   UNL     1       6.296   5.062  15.350  0.00  0.00    +0.000 C 
ATOM     20  N   UNL     1       5.988   4.854  14.249  0.00  0.00    +0.000 NA
ENDBRANCH  18  19
ENDBRANCH  11  13
ENDBRANCH   1  11
TORSDOF 6
ENDMDL
MODEL 5
REMARK VINA RESULT:      -6.2      1.387      2.663
REMARK  Name = 
REMARK  8 active torsions:
REMARK  status: ('A' for Active; 'I' for Inactive)
REMARK    1  A    between atoms: C_1  and  C_2
REMARK    2  A    between atoms: C_2  and  C_3
REMARK    3  A    between atoms: C_2  and  C_4
REMARK    4  A    between atoms: C_4  and  N_5
REMARK    5  A    between atoms: C_9  and  C_10
REMARK    6  A    between atoms: C_10  and  N_11
REMARK    7  A    between atoms: N_11  and  C_12
REMARK    8  A    between atoms: C_17  and  C_18
REMARK                            x       y       z     vdW  Elec       q    Type
REMARK                         _______ _______ _______ _____ _____    ______ ____
ROOT
ATOM      1  C   UNL     1       4.997   4.482  19.228  0.00  0.00    +0.000 C 
ENDROOT
BRANCH   1   6
ATOM      2  N   UNL     1       2.550   4.176  18.475  0.00  0.00    +0.000 N 
ATOM      3  C   UNL     1       1.645   3.141  18.497  0.00  0.00    +0.000 A 
ATOM      4  C   UNL     1       2.273   2.117  19.156  0.00  0.00    +0.000 A 
ATOM      5  N   UNL     1       3.527   2.496  19.542  0.00  0.00    +0.000 NA
ATOM      6  C   UNL     1       3.698   3.734  19.101  0.00  0.00    +0.000 A 
BRANCH   2   7
ATOM      7  C   UNL     1       2.240   5.485  17.931  0.00  0.00    +0.000 C 
BRANCH   7   9
ATOM      8  C   UNL     1       2.471   8.016  18.028  0.00  0.00    +0.000 C 
ATOM      9  C   UNL     1       2.696   6.695  18.761  0.00  0.00    +0.000 C 
ATOM     10  C   UNL     1       1.977   6.713  20.111  0.00  0.00    +0.000 C 
ENDBRANCH   7   9
ENDBRANCH   2   7
ENDBRANCH   1   6
BRANCH   1  11
ATOM     11  N   UNL     1       6.130   3.951  18.476  0.00  0.00    +0.000 N 
ATOM     12  H   UNL     1       6.983   4.017  19.026  0.00  0.00    +0.000 HD
BRANCH  11  13
ATOM     13  C   UNL     1       6.299   4.311  17.139  0.00  0.00    +0.000 A 
ATOM     14  N   UNL     1       5.825   3.494  16.164  0.00  0.00    +0.000 NA
ATOM     15  C   UNL     1       6.049   3.866  14.877  0.00  0.00    +0.000 A 
ATOM     16  C   UNL     1       6.743   5.010  14.537  0.00  0.00    +0.000 A 
ATOM     17  N   UNL     1       7.253   5.830  15.473  0.00  0.00    +0.000 NA
ATOM     18  C   UNL     1       7.029   5.455  16.769  0.00  0.00    +0.000 A 
BRANCH  18  19
ATOM     19  C   UNL     1       7.617   6.315  17.753  0.00  0.00    +0.000 C 
ATOM     20  N   UNL     1       8.083   7.024  18.547  0.00  0.00    +0.000 NA
ENDBRANCH  18  19
ENDBRANCH  11  13
ENDBRANCH   1  11
TORSDOF 6
ENDMDL
MODEL 6
REMARK VINA RESULT:      -6.2      1.780      3.913
REMARK  Name = 
REMARK  8 active torsions:
REMARK  status: ('A' for Active; 'I' for Inactive)
REMARK    1  A    between atoms: C_1  and  C_2
REMARK    2  A    between atoms: C_2  and  C_3
REMARK    3  A    between atoms: C_2  and  C_4
REMARK    4  A    between atoms: C_4  and  N_5
REMARK    5  A    between atoms: C_9  and  C_10
REMARK    6  A    between atoms: C_10  and  N_11
REMARK    7  A    between atoms: N_11  and  C_12
REMARK    8  A    between atoms: C_17  and  C_18
REMARK                            x       y       z     vdW  Elec       q    Type
REMARK                         _______ _______ _______ _____ _____    ______ ____
ROOT
ATOM      1  C   UNL     1       3.297   6.643  17.735  0.00  0.00    +0.000 C 
ENDROOT
BRANCH   1   6
ATOM      2  N   UNL     1       2.210   5.952  19.969  0.00  0.00    +0.000 N 
ATOM      3  C   UNL     1       1.577   6.617  20.992  0.00  0.00    +0.000 A 
ATOM      4  C   UNL     1       1.500   7.924  20.590  0.00  0.00    +0.000 A 
ATOM      5  N   UNL     1       2.059   8.076  19.353  0.00  0.00    +0.000 NA
ATOM      6  C   UNL     1       2.512   6.883  18.996  0.00  0.00    +0.000 A 
BRANCH   2   7
ATOM      7  C   UNL     1       2.416   4.515  19.969  0.00  0.00    +0.000 C 
BRANCH   7   9
ATOM      8  C   UNL     1       0.780   2.760  19.126  0.00  0.00    +0.000 C 
ATOM      9  C   UNL     1       1.191   3.649  20.298  0.00  0.00    +0.000 C 
ATOM     10  C   UNL     1       1.464   2.794  21.537  0.00  0.00    +0.000 C 
ENDBRANCH   7   9
ENDBRANCH   2   7
ENDBRANCH   1   6
BRANCH   1  11
ATOM     11  N   UNL     1       4.748   6.763  17.840  0.00  0.00    +0.000 N 
ATOM     12  H   UNL     1       5.017   7.740  17.936  0.00  0.00    +0.000 HD
BRANCH  11  13
ATOM     13  C   UNL     1       5.564   6.044  16.967  0.00  0.00    +0.000 A 
ATOM     14  N   UNL     1       5.194   5.911  15.668  0.00  0.00    +0.000 NA
ATOM     15  C   UNL     1       5.999   5.167  14.864  0.00  0.00    +0.000 A 
ATOM     16  C   UNL     1       7.143   4.543  15.320  0.00  0.00    +0.000 A 
ATOM     17  N   UNL     1       7.527   4.626  16.607  0.00  0.00    +0.000 NA
ATOM     18  C   UNL     1       6.716   5.373  17.416  0.00  0.00    +0.000 A 
BRANCH  18  19
ATOM     19  C   UNL     1       7.115   5.415  18.791  0.00  0.00    +0.000 C 
ATOM     20  N   UNL     1       7.430   5.465  19.909  0.00  0.00    +0.000 NA
ENDBRANCH  18  19
ENDBRANCH  11  13
ENDBRANCH   1  11
TORSDOF 6
ENDMDL
MODEL 7
REMARK VINA RESULT:      -6.2      1.805      3.861
REMARK  Name = 
REMARK  8 active torsions:
REMARK  status: ('A' for Active; 'I' for Inactive)
REMARK    1  A    between atoms: C_1  and  C_2
REMARK    2  A    between atoms: C_2  and  C_3
REMARK    3  A    between atoms: C_2  and  C_4
REMARK    4  A    between atoms: C_4  and  N_5
REMARK    5  A    between atoms: C_9  and  C_10
REMARK    6  A    between atoms: C_10  and  N_11
REMARK    7  A    between atoms: N_11  and  C_12
REMARK    8  A    between atoms: C_17  and  C_18
REMARK                            x       y       z     vdW  Elec       q    Type
REMARK                         _______ _______ _______ _____ _____    ______ ____
ROOT
ATOM      1  C   UNL     1       3.416   6.707  17.788  0.00  0.00    +0.000 C 
ENDROOT
BRANCH   1   6
ATOM      2  N   UNL     1       2.201   5.906  19.917  0.00  0.00    +0.000 N 
ATOM      3  C   UNL     1       1.519   6.520  20.940  0.00  0.00    +0.000 A 
ATOM      4  C   UNL     1       1.475   7.848  20.609  0.00  0.00    +0.000 A 
ATOM      5  N   UNL     1       2.103   8.063  19.414  0.00  0.00    +0.000 NA
ATOM      6  C   UNL     1       2.564   6.886  19.016  0.00  0.00    +0.000 A 
BRANCH   2   7
ATOM      7  C   UNL     1       2.395   4.469  19.847  0.00  0.00    +0.000 C 
BRANCH   7   9
ATOM      8  C   UNL     1       0.802   2.657  19.044  0.00  0.00    +0.000 C 
ATOM      9  C   UNL     1       1.176   3.598  20.188  0.00  0.00    +0.000 C 
ATOM     10  C   UNL     1       1.437   2.797  21.465  0.00  0.00    +0.000 C 
ENDBRANCH   7   9
ENDBRANCH   2   7
ENDBRANCH   1   6
BRANCH   1  11
ATOM     11  N   UNL     1       4.743   6.136  17.995  0.00  0.00    +0.000 N 
ATOM     12  H   UNL     1       5.301   6.741  18.593  0.00  0.00    +0.000 HD
BRANCH  11  13
ATOM     13  C   UNL     1       5.449   5.622  16.907  0.00  0.00    +0.000 A 
ATOM     14  N   UNL     1       4.909   4.611  16.181  0.00  0.00    +0.000 NA
ATOM     15  C   UNL     1       5.651   4.115  15.156  0.00  0.00    +0.000 A 
ATOM     16  C   UNL     1       6.913   4.584  14.849  0.00  0.00    +0.000 A 
ATOM     17  N   UNL     1       7.494   5.565  15.563  0.00  0.00    +0.000 NA
ATOM     18  C   UNL     1       6.749   6.062  16.595  0.00  0.00    +0.000 A 
BRANCH  18  19
ATOM     19  C   UNL     1       7.399   7.075  17.373  0.00  0.00    +0.000 C 
ATOM     20  N   UNL     1       7.937   7.884  18.011  0.00  0.00    +0.000 NA
ENDBRANCH  18  19
ENDBRANCH  11  13
ENDBRANCH   1  11
TORSDOF 6
ENDMDL
MODEL 8
REMARK VINA RESULT:      -6.1      1.544      4.921
REMARK  Name = 
REMARK  8 active torsions:
REMARK  status: ('A' for Active; 'I' for Inactive)
REMARK    1  A    between atoms: C_1  and  C_2
REMARK    2  A    between atoms: C_2  and  C_3
REMARK    3  A    between atoms: C_2  and  C_4
REMARK    4  A    between atoms: C_4  and  N_5
REMARK    5  A    between atoms: C_9  and  C_10
REMARK    6  A    between atoms: C_10  and  N_11
REMARK    7  A    between atoms: N_11  and  C_12
REMARK    8  A    between atoms: C_17  and  C_18
REMARK                            x       y       z     vdW  Elec       q    Type
REMARK                         _______ _______ _______ _____ _____    ______ ____
ROOT
ATOM      1  C   UNL     1       4.901   3.718  16.600  0.00  0.00    +0.000 C 
ENDROOT
BRANCH   1   6
ATOM      2  N   UNL     1       5.582   6.066  17.418  0.00  0.00    +0.000 N 
ATOM      3  C   UNL     1       6.688   6.602  18.036  0.00  0.00    +0.000 A 
ATOM      4  C   UNL     1       7.595   5.579  18.117  0.00  0.00    +0.000 A 
ATOM      5  N   UNL     1       7.081   4.440  17.564  0.00  0.00    +0.000 NA
ATOM      6  C   UNL     1       5.851   4.736  17.168  0.00  0.00    +0.000 A 
BRANCH   2   7
ATOM      7  C   UNL     1       4.414   6.854  17.068  0.00  0.00    +0.000 C 
BRANCH   7   9
ATOM      8  C   UNL     1       3.538   6.143  19.347  0.00  0.00    +0.000 C 
ATOM      9  C   UNL     1       3.177   6.676  17.962  0.00  0.00    +0.000 C 
ATOM     10  C   UNL     1       2.420   8.000  18.089  0.00  0.00    +0.000 C 
ENDBRANCH   7   9
ENDBRANCH   2   7
ENDBRANCH   1   6
BRANCH   1  11
ATOM     11  N   UNL     1       4.473   2.653  17.502  0.00  0.00    +0.000 N 
ATOM     12  H   UNL     1       4.614   1.743  17.067  0.00  0.00    +0.000 HD
BRANCH  11  13
ATOM     13  C   UNL     1       3.258   2.767  18.176  0.00  0.00    +0.000 A 
ATOM     14  N   UNL     1       2.171   3.237  17.514  0.00  0.00    +0.000 NA
ATOM     15  C   UNL     1       1.019   3.370  18.223  0.00  0.00    +0.000 A 
ATOM     16  C   UNL     1       0.927   3.067  19.567  0.00  0.00    +0.000 A 
ATOM     17  N   UNL     1       1.990   2.627  20.266  0.00  0.00    +0.000 NA
ATOM     18  C   UNL     1       3.149   2.495  19.552  0.00  0.00    +0.000 A 
BRANCH  18  19
ATOM     19  C   UNL     1       4.281   2.068  20.320  0.00  0.00    +0.000 C 
ATOM     20  N   UNL     1       5.208   1.734  20.936  0.00  0.00    +0.000 NA
ENDBRANCH  18  19
ENDBRANCH  11  13
ENDBRANCH   1  11
TORSDOF 6
ENDMDL
MODEL 9
REMARK VINA RESULT:      -6.1      1.900      3.626
REMARK  Name = 
REMARK  8 active torsions:
REMARK  status: ('A' for Active; 'I' for Inactive)
REMARK    1  A    between atoms: C_1  and  C_2
REMARK    2  A    between atoms: C_2  and  C_3
REMARK    3  A    between atoms: C_2  and  C_4
REMARK    4  A    between atoms: C_4  and  N_5
REMARK    5  A    between atoms: C_9  and  C_10
REMARK    6  A    between atoms: C_10  and  N_11
REMARK    7  A    between atoms: N_11  and  C_12
REMARK    8  A    between atoms: C_17  and  C_18
REMARK                            x       y       z     vdW  Elec       q    Type
REMARK                         _______ _______ _______ _____ _____    ______ ____
ROOT
ATOM      1  C   UNL     1       4.663   5.156  19.071  0.00  0.00    +0.000 C 
ENDROOT
BRANCH   1   6
ATOM      2  N   UNL     1       2.666   4.107  20.322  0.00  0.00    +0.000 N 
ATOM      3  C   UNL     1       1.527   4.590  20.920  0.00  0.00    +0.000 A 
ATOM      4  C   UNL     1       1.522   5.937  20.668  0.00  0.00    +0.000 A 
ATOM      5  N   UNL     1       2.617   6.288  19.930  0.00  0.00    +0.000 NA
ATOM      6  C   UNL     1       3.319   5.179  19.749  0.00  0.00    +0.000 A 
BRANCH   2   7
ATOM      7  C   UNL     1       3.003   2.695  20.290  0.00  0.00    +0.000 C 
BRANCH   7   9
ATOM      8  C   UNL     1       1.067   2.396  18.668  0.00  0.00    +0.000 C 
ATOM      9  C   UNL     1       2.434   1.884  19.115  0.00  0.00    +0.000 C 
ATOM     10  C   UNL     1       3.412   1.897  17.939  0.00  0.00    +0.000 C 
ENDBRANCH   7   9
ENDBRANCH   2   7
ENDBRANCH   1   6
BRANCH   1  11
ATOM     11  N   UNL     1       4.822   6.029  17.913  0.00  0.00    +0.000 N 
ATOM     12  H   UNL     1       3.936   6.470  17.676  0.00  0.00    +0.000 HD
BRANCH  11  13
ATOM     13  C   UNL     1       5.534   5.576  16.802  0.00  0.00    +0.000 A 
ATOM     14  N   UNL     1       5.007   4.592  16.030  0.00  0.00    +0.000 NA
ATOM     15  C   UNL     1       5.755   4.154  14.983  0.00  0.00    +0.000 A 
ATOM     16  C   UNL     1       7.010   4.654  14.698  0.00  0.00    +0.000 A 
ATOM     17  N   UNL     1       7.579   5.608  15.456  0.00  0.00    +0.000 NA
ATOM     18  C   UNL     1       6.827   6.047  16.511  0.00  0.00    +0.000 A 
BRANCH  18  19
ATOM     19  C   UNL     1       7.465   7.031  17.334  0.00  0.00    +0.000 C 
ATOM     20  N   UNL     1       7.986   7.838  17.988  0.00  0.00    +0.000 NA
ENDBRANCH  18  19
ENDBRANCH  11  13
ENDBRANCH   1  11
TORSDOF 6
ENDMDL
