MODEL 1
REMARK VINA RESULT:      -7.3      0.000      0.000
REMARK  Name = 
REMARK  6 active torsions:
REMARK  status: ('A' for Active; 'I' for Inactive)
REMARK    1  A    between atoms: C_1  and  C_2
REMARK    2  A    between atoms: C_7  and  C_9
REMARK    3  A    between atoms: C_9  and  C_10
REMARK    4  A    between atoms: C_9  and  C_17
REMARK    5  A    between atoms: C_17  and  C_18
REMARK    6  A    between atoms: C_17  and  C_19
REMARK                            x       y       z     vdW  Elec       q    Type
REMARK                         _______ _______ _______ _____ _____    ______ ____
ROOT
ATOM      1  C   UNL     1       6.048   6.192  17.201  0.00  0.00    +0.000 C 
ENDROOT
BRANCH   1   8
ATOM      2  C   UNL     1       1.535   2.609  21.609  0.00  0.00    +0.000 C 
ATOM      3  C   UNL     1       1.987   3.812  20.866  0.00  0.00    +0.000 A 
ATOM      4  C   UNL     1       1.296   5.001  20.742  0.00  0.00    +0.000 A 
ATOM      5  S   UNL     1       2.178   6.091  19.767  0.00  0.00    +0.000 S 
ATOM      6  C   UNL     1       3.372   4.898  19.530  0.00  0.00    +0.000 A 
ATOM      7  N   UNL     1       4.474   5.109  18.739  0.00  0.00    +0.000 N 
ATOM      8  C   UNL     1       4.637   6.115  17.813  0.00  0.00    +0.000 C 
ATOM      9  O   UNL     1       3.784   6.935  17.468  0.00  0.00    +0.000 OA
ATOM     10  N   UNL     1       3.206   3.783  20.200  0.00  0.00    +0.000 NA
ATOM     11  H   UNL     1       5.141   4.352  18.783  0.00  0.00    +0.000 HD
ENDBRANCH   1   8
BRANCH   1  12
ATOM     12  C   UNL     1       6.112   5.381  15.906  0.00  0.00    +0.000 A 
ATOM     13  C   UNL     1       5.165   4.404  15.570  0.00  0.00    +0.000 A 
ATOM     14  C   UNL     1       5.266   3.691  14.369  0.00  0.00    +0.000 A 
ATOM     15  C   UNL     1       6.315   3.947  13.489  0.00  0.00    +0.000 A 
ATOM     16 CL   UNL     1       6.456   3.035  12.035  0.00  0.00    +0.000 Cl
ATOM     17  C   UNL     1       7.248   4.933  13.783  0.00  0.00    +0.000 A 
ATOM     18  C   UNL     1       7.142   5.653  14.979  0.00  0.00    +0.000 A 
ENDBRANCH   1  12
BRANCH   1  19
ATOM     19  C   UNL     1       7.125   5.919  18.298  0.00  0.00    +0.000 C 
ATOM     20  C   UNL     1       7.939   4.644  18.047  0.00  0.00    +0.000 C 
ATOM     21  C   UNL     1       8.112   7.100  18.388  0.00  0.00    +0.000 C 
ENDBRANCH   1  19
TORSDOF 3
ENDMDL
MODEL 2
REMARK VINA RESULT:      -7.3      3.321      5.066
REMARK  Name = 
REMARK  6 active torsions:
REMARK  status: ('A' for Active; 'I' for Inactive)
REMARK    1  A    between atoms: C_1  and  C_2
REMARK    2  A    between atoms: C_7  and  C_9
REMARK    3  A    between atoms: C_9  and  C_10
REMARK    4  A    between atoms: C_9  and  C_17
REMARK    5  A    between atoms: C_17  and  C_18
REMARK    6  A    between atoms: C_17  and  C_19
REMARK                            x       y       z     vdW  Elec       q    Type
REMARK                         _______ _______ _______ _____ _____    ______ ____
ROOT
ATOM      1  C   UNL     1       2.985   5.303  20.249  0.00  0.00    +0.000 C 
ENDROOT
BRANCH   1   8
ATOM      2  C   UNL     1      -1.004  10.704  22.997  0.00  0.00    +0.000 C 
ATOM      3  C   UNL     1      -0.143  10.087  21.957  0.00  0.00    +0.000 A 
ATOM      4  C   UNL     1       0.136  10.614  20.712  0.00  0.00    +0.000 A 
ATOM      5  S   UNL     1       1.137   9.543  19.834  0.00  0.00    +0.000 S 
ATOM      6  C   UNL     1       1.077   8.440  21.132  0.00  0.00    +0.000 A 
ATOM      7  N   UNL     1       1.705   7.219  21.088  0.00  0.00    +0.000 N 
ATOM      8  C   UNL     1       2.180   6.584  19.963  0.00  0.00    +0.000 C 
ATOM      9  O   UNL     1       2.034   6.957  18.796  0.00  0.00    +0.000 OA
ATOM     10  N   UNL     1       0.444   8.852  22.205  0.00  0.00    +0.000 NA
ATOM     11  H   UNL     1       1.668   6.726  21.968  0.00  0.00    +0.000 HD
ENDBRANCH   1   8
BRANCH   1  12
ATOM     12  C   UNL     1       3.784   4.888  19.014  0.00  0.00    +0.000 A 
ATOM     13  C   UNL     1       3.199   4.277  17.896  0.00  0.00    +0.000 A 
ATOM     14  C   UNL     1       3.975   3.920  16.787  0.00  0.00    +0.000 A 
ATOM     15  C   UNL     1       5.345   4.169  16.780  0.00  0.00    +0.000 A 
ATOM     16 CL   UNL     1       6.298   3.686  15.429  0.00  0.00    +0.000 Cl
ATOM     17  C   UNL     1       5.944   4.804  17.861  0.00  0.00    +0.000 A 
ATOM     18  C   UNL     1       5.167   5.170  18.966  0.00  0.00    +0.000 A 
ENDBRANCH   1  12
BRANCH   1  19
ATOM     19  C   UNL     1       2.071   4.236  20.931  0.00  0.00    +0.000 C 
ATOM     20  C   UNL     1       0.817   3.900  20.117  0.00  0.00    +0.000 C 
ATOM     21  C   UNL     1       2.852   2.927  21.159  0.00  0.00    +0.000 C 
ENDBRANCH   1  19
TORSDOF 3
ENDMDL
MODEL 3
REMARK VINA RESULT:      -7.2      0.102      1.082
REMARK  Name = 
REMARK  6 active torsions:
REMARK  status: ('A' for Active; 'I' for Inactive)
REMARK    1  A    between atoms: C_1  and  C_2
REMARK    2  A    between atoms: C_7  and  C_9
REMARK    3  A    between atoms: C_9  and  C_10
REMARK    4  A    between atoms: C_9  and  C_17
REMARK    5  A    between atoms: C_17  and  C_18
REMARK    6  A    between atoms: C_17  and  C_19
REMARK                            x       y       z     vdW  Elec       q    Type
REMARK                         _______ _______ _______ _____ _____    ______ ____
ROOT
ATOM      1  C   UNL     1       6.049   6.283  17.203  0.00  0.00    +0.000 C 
ENDROOT
BRANCH   1   8
ATOM      2  C   UNL     1       1.573   2.625  21.587  0.00  0.00    +0.000 C 
ATOM      3  C   UNL     1       2.012   3.836  20.850  0.00  0.00    +0.000 A 
ATOM      4  C   UNL     1       1.306   5.017  20.730  0.00  0.00    +0.000 A 
ATOM      5  S   UNL     1       2.176   6.122  19.760  0.00  0.00    +0.000 S 
ATOM      6  C   UNL     1       3.385   4.945  19.521  0.00  0.00    +0.000 A 
ATOM      7  N   UNL     1       4.487   5.173  18.733  0.00  0.00    +0.000 N 
ATOM      8  C   UNL     1       4.639   6.185  17.812  0.00  0.00    +0.000 C 
ATOM      9  O   UNL     1       3.775   6.996  17.468  0.00  0.00    +0.000 OA
ATOM     10  N   UNL     1       3.232   3.825  20.187  0.00  0.00    +0.000 NA
ATOM     11  H   UNL     1       5.163   4.425  18.776  0.00  0.00    +0.000 HD
ENDBRANCH   1   8
BRANCH   1  12
ATOM     12  C   UNL     1       6.129   5.471  15.910  0.00  0.00    +0.000 A 
ATOM     13  C   UNL     1       7.163   5.623  14.976  0.00  0.00    +0.000 A 
ATOM     14  C   UNL     1       7.193   4.851  13.808  0.00  0.00    +0.000 A 
ATOM     15  C   UNL     1       6.189   3.919  13.558  0.00  0.00    +0.000 A 
ATOM     16 CL   UNL     1       6.211   3.007  12.098  0.00  0.00    +0.000 Cl
ATOM     17  C   UNL     1       5.171   3.726  14.483  0.00  0.00    +0.000 A 
ATOM     18  C   UNL     1       5.146   4.490  15.655  0.00  0.00    +0.000 A 
ENDBRANCH   1  12
BRANCH   1  19
ATOM     19  C   UNL     1       7.128   6.027  18.303  0.00  0.00    +0.000 C 
ATOM     20  C   UNL     1       7.920   4.732  18.089  0.00  0.00    +0.000 C 
ATOM     21  C   UNL     1       8.134   7.195  18.350  0.00  0.00    +0.000 C 
ENDBRANCH   1  19
TORSDOF 3
ENDMDL
MODEL 4
REMARK VINA RESULT:      -7.2      3.729      6.851
REMARK  Name = 
REMARK  6 active torsions:
REMARK  status: ('A' for Active; 'I' for Inactive)
REMARK    1  A    between atoms: C_1  and  C_2
REMARK    2  A    between atoms: C_7  and  C_9
REMARK    3  A    between atoms: C_9  and  C_10
REMARK    4  A    between atoms: C_9  and  C_17
REMARK    5  A    between atoms: C_17  and  C_18
REMARK    6  A    between atoms: C_17  and  C_19
REMARK                            x       y       z     vdW  Elec       q    Type
REMARK                         _______ _______ _______ _____ _____    ______ ____
ROOT
ATOM      1  C   UNL     1       2.686   5.127  19.110  0.00  0.00    +0.000 C 
ENDROOT
BRANCH   1   8
ATOM      2  C   UNL     1       6.436   3.660  13.075  0.00  0.00    +0.000 C 
ATOM      3  C   UNL     1       6.243   4.323  14.388  0.00  0.00    +0.000 A 
ATOM      4  C   UNL     1       7.186   5.063  15.074  0.00  0.00    +0.000 A 
ATOM      5  S   UNL     1       6.539   5.602  16.561  0.00  0.00    +0.000 S 
ATOM      6  C   UNL     1       5.091   4.771  16.219  0.00  0.00    +0.000 A 
ATOM      7  N   UNL     1       4.032   4.750  17.094  0.00  0.00    +0.000 N 
ATOM      8  C   UNL     1       4.066   5.090  18.428  0.00  0.00    +0.000 C 
ATOM      9  O   UNL     1       5.071   5.376  19.084  0.00  0.00    +0.000 OA
ATOM     10  N   UNL     1       5.022   4.202  15.039  0.00  0.00    +0.000 NA
ATOM     11  H   UNL     1       3.211   4.310  16.708  0.00  0.00    +0.000 HD
ENDBRANCH   1   8
BRANCH   1  12
ATOM     12  C   UNL     1       2.225   6.571  19.303  0.00  0.00    +0.000 A 
ATOM     13  C   UNL     1       1.782   7.072  20.535  0.00  0.00    +0.000 A 
ATOM     14  C   UNL     1       1.373   8.406  20.661  0.00  0.00    +0.000 A 
ATOM     15  C   UNL     1       1.402   9.255  19.557  0.00  0.00    +0.000 A 
ATOM     16 CL   UNL     1       0.856  10.880  19.712  0.00  0.00    +0.000 Cl
ATOM     17  C   UNL     1       1.868   8.792  18.333  0.00  0.00    +0.000 A 
ATOM     18  C   UNL     1       2.286   7.462  18.209  0.00  0.00    +0.000 A 
ENDBRANCH   1  12
BRANCH   1  19
ATOM     19  C   UNL     1       2.674   4.175  20.348  0.00  0.00    +0.000 C 
ATOM     20  C   UNL     1       1.266   3.736  20.763  0.00  0.00    +0.000 C 
ATOM     21  C   UNL     1       3.499   2.905  20.058  0.00  0.00    +0.000 C 
ENDBRANCH   1  19
TORSDOF 3
ENDMDL
MODEL 5
REMARK VINA RESULT:      -7.2      3.018      4.599
REMARK  Name = 
REMARK  6 active torsions:
REMARK  status: ('A' for Active; 'I' for Inactive)
REMARK    1  A    between atoms: C_1  and  C_2
REMARK    2  A    between atoms: C_7  and  C_9
REMARK    3  A    between atoms: C_9  and  C_10
REMARK    4  A    between atoms: C_9  and  C_17
REMARK    5  A    between atoms: C_17  and  C_18
REMARK    6  A    between atoms: C_17  and  C_19
REMARK                            x       y       z     vdW  Elec       q    Type
REMARK                         _______ _______ _______ _____ _____    ______ ____
ROOT
ATOM      1  C   UNL     1       3.468   5.285  19.395  0.00  0.00    +0.000 C 
ENDROOT
BRANCH   1   8
ATOM      2  C   UNL     1      -0.503  10.258  22.878  0.00  0.00    +0.000 C 
ATOM      3  C   UNL     1       0.238   9.738  21.702  0.00  0.00    +0.000 A 
ATOM      4  C   UNL     1       0.277  10.310  20.445  0.00  0.00    +0.000 A 
ATOM      5  S   UNL     1       1.220   9.349  19.394  0.00  0.00    +0.000 S 
ATOM      6  C   UNL     1       1.454   8.222  20.651  0.00  0.00    +0.000 A 
ATOM      7  N   UNL     1       2.171   7.064  20.476  0.00  0.00    +0.000 N 
ATOM      8  C   UNL     1       2.521   6.493  19.273  0.00  0.00    +0.000 C 
ATOM      9  O   UNL     1       2.166   6.871  18.154  0.00  0.00    +0.000 OA
ATOM     10  N   UNL     1       0.961   8.558  21.820  0.00  0.00    +0.000 NA
ATOM     11  H   UNL     1       2.312   6.554  21.336  0.00  0.00    +0.000 HD
ENDBRANCH   1   8
BRANCH   1  12
ATOM     12  C   UNL     1       4.404   5.217  18.189  0.00  0.00    +0.000 A 
ATOM     13  C   UNL     1       5.467   6.111  17.997  0.00  0.00    +0.000 A 
ATOM     14  C   UNL     1       6.300   6.003  16.876  0.00  0.00    +0.000 A 
ATOM     15  C   UNL     1       6.082   5.001  15.934  0.00  0.00    +0.000 A 
ATOM     16 CL   UNL     1       7.084   4.905  14.537  0.00  0.00    +0.000 Cl
ATOM     17  C   UNL     1       5.056   4.083  16.118  0.00  0.00    +0.000 A 
ATOM     18  C   UNL     1       4.229   4.183  17.243  0.00  0.00    +0.000 A 
ENDBRANCH   1  12
BRANCH   1  19
ATOM     19  C   UNL     1       2.658   4.005  19.775  0.00  0.00    +0.000 C 
ATOM     20  C   UNL     1       2.358   3.898  21.274  0.00  0.00    +0.000 C 
ATOM     21  C   UNL     1       1.314   3.975  19.020  0.00  0.00    +0.000 C 
ENDBRANCH   1  19
TORSDOF 3
ENDMDL
MODEL 6
REMARK VINA RESULT:      -7.2      3.715      6.932
REMARK  Name = 
REMARK  6 active torsions:
REMARK  status: ('A' for Active; 'I' for Inactive)
REMARK    1  A    between atoms: C_1  and  C_2
REMARK    2  A    between atoms: C_7  and  C_9
REMARK    3  A    between atoms: C_9  and  C_10
REMARK    4  A    between atoms: C_9  and  C_17
REMARK    5  A    between atoms: C_17  and  C_18
REMARK    6  A    between atoms: C_17  and  C_19
REMARK                            x       y       z     vdW  Elec       q    Type
REMARK                         _______ _______ _______ _____ _____    ______ ____
ROOT
ATOM      1  C   UNL     1       2.717   4.951  19.078  0.00  0.00    +0.000 C 
ENDROOT
BRANCH   1   8
ATOM      2  C   UNL     1       6.430   3.658  12.980  0.00  0.00    +0.000 C 
ATOM      3  C   UNL     1       6.253   4.269  14.322  0.00  0.00    +0.000 A 
ATOM      4  C   UNL     1       7.213   4.956  15.038  0.00  0.00    +0.000 A 
ATOM      5  S   UNL     1       6.578   5.446  16.546  0.00  0.00    +0.000 S 
ATOM      6  C   UNL     1       5.111   4.664  16.172  0.00  0.00    +0.000 A 
ATOM      7  N   UNL     1       4.053   4.630  17.046  0.00  0.00    +0.000 N 
ATOM      8  C   UNL     1       4.095   4.912  18.393  0.00  0.00    +0.000 C 
ATOM      9  O   UNL     1       5.106   5.146  19.060  0.00  0.00    +0.000 OA
ATOM     10  N   UNL     1       5.029   4.148  14.969  0.00  0.00    +0.000 NA
ATOM     11  H   UNL     1       3.221   4.226  16.642  0.00  0.00    +0.000 HD
ENDBRANCH   1   8
BRANCH   1  12
ATOM     12  C   UNL     1       2.272   6.396  19.300  0.00  0.00    +0.000 A 
ATOM     13  C   UNL     1       2.307   7.369  18.292  0.00  0.00    +0.000 A 
ATOM     14  C   UNL     1       1.884   8.680  18.546  0.00  0.00    +0.000 A 
ATOM     15  C   UNL     1       1.420   9.034  19.811  0.00  0.00    +0.000 A 
ATOM     16 CL   UNL     1       0.944  10.658  20.125  0.00  0.00    +0.000 Cl
ATOM     17  C   UNL     1       1.344   8.081  20.818  0.00  0.00    +0.000 A 
ATOM     18  C   UNL     1       1.758   6.768  20.562  0.00  0.00    +0.000 A 
ENDBRANCH   1  12
BRANCH   1  19
ATOM     19  C   UNL     1       2.695   3.975  20.297  0.00  0.00    +0.000 C 
ATOM     20  C   UNL     1       1.280   3.580  20.734  0.00  0.00    +0.000 C 
ATOM     21  C   UNL     1       3.466   2.682  19.963  0.00  0.00    +0.000 C 
ENDBRANCH   1  19
TORSDOF 3
ENDMDL
MODEL 7
REMARK VINA RESULT:      -7.1      3.256      5.010
REMARK  Name = 
REMARK  6 active torsions:
REMARK  status: ('A' for Active; 'I' for Inactive)
REMARK    1  A    between atoms: C_1  and  C_2
REMARK    2  A    between atoms: C_7  and  C_9
REMARK    3  A    between atoms: C_9  and  C_10
REMARK    4  A    between atoms: C_9  and  C_17
REMARK    5  A    between atoms: C_17  and  C_18
REMARK    6  A    between atoms: C_17  and  C_19
REMARK                            x       y       z     vdW  Elec       q    Type
REMARK                         _______ _______ _______ _____ _____    ______ ____
ROOT
ATOM      1  C   UNL     1       3.168   5.258  20.158  0.00  0.00    +0.000 C 
ENDROOT
BRANCH   1   8
ATOM      2  C   UNL     1      -0.813  10.697  22.844  0.00  0.00    +0.000 C 
ATOM      3  C   UNL     1       0.001  10.044  21.788  0.00  0.00    +0.000 A 
ATOM      4  C   UNL     1       0.186  10.505  20.500  0.00  0.00    +0.000 A 
ATOM      5  S   UNL     1       1.165   9.413  19.622  0.00  0.00    +0.000 S 
ATOM      6  C   UNL     1       1.220   8.387  20.981  0.00  0.00    +0.000 A 
ATOM      7  N   UNL     1       1.882   7.183  20.967  0.00  0.00    +0.000 N 
ATOM      8  C   UNL     1       2.306   6.497  19.852  0.00  0.00    +0.000 C 
ATOM      9  O   UNL     1       2.077   6.796  18.677  0.00  0.00    +0.000 OA
ATOM     10  N   UNL     1       0.642   8.843  22.067  0.00  0.00    +0.000 NA
ATOM     11  H   UNL     1       1.915   6.742  21.874  0.00  0.00    +0.000 HD
ENDBRANCH   1   8
BRANCH   1  12
ATOM     12  C   UNL     1       4.081   4.937  18.975  0.00  0.00    +0.000 A 
ATOM     13  C   UNL     1       5.449   5.244  18.962  0.00  0.00    +0.000 A 
ATOM     14  C   UNL     1       6.244   4.925  17.854  0.00  0.00    +0.000 A 
ATOM     15  C   UNL     1       5.682   4.294  16.746  0.00  0.00    +0.000 A 
ATOM     16 CL   UNL     1       6.658   3.946  15.372  0.00  0.00    +0.000 Cl
ATOM     17  C   UNL     1       4.336   3.950  16.748  0.00  0.00    +0.000 A 
ATOM     18  C   UNL     1       3.543   4.260  17.859  0.00  0.00    +0.000 A 
ENDBRANCH   1  12
BRANCH   1  19
ATOM     19  C   UNL     1       2.275   4.113  20.735  0.00  0.00    +0.000 C 
ATOM     20  C   UNL     1       1.015   3.848  19.904  0.00  0.00    +0.000 C 
ATOM     21  C   UNL     1       3.075   2.798  20.816  0.00  0.00    +0.000 C 
ENDBRANCH   1  19
TORSDOF 3
ENDMDL
MODEL 8
REMARK VINA RESULT:      -7.1      3.739      6.939
REMARK  Name = 
REMARK  6 active torsions:
REMARK  status: ('A' for Active; 'I' for Inactive)
REMARK    1  A    between atoms: C_1  and  C_2
REMARK    2  A    between atoms: C_7  and  C_9
REMARK    3  A    between atoms: C_9  and  C_10
REMARK    4  A    between atoms: C_9  and  C_17
REMARK    5  A    between atoms: C_17  and  C_18
REMARK    6  A    between atoms: C_17  and  C_19
REMARK                            x       y       z     vdW  Elec       q    Type
REMARK                         _______ _______ _______ _____ _____    ______ ____
ROOT
ATOM      1  C   UNL     1       2.889   4.118  18.451  0.00  0.00    +0.000 C 
ENDROOT
BRANCH   1   8
ATOM      2  C   UNL     1       6.717   3.767  12.299  0.00  0.00    +0.000 C 
ATOM      3  C   UNL     1       6.489   4.214  13.696  0.00  0.00    +0.000 A 
ATOM      4  C   UNL     1       7.393   4.886  14.494  0.00  0.00    +0.000 A 
ATOM      5  S   UNL     1       6.717   5.161  16.039  0.00  0.00    +0.000 S 
ATOM      6  C   UNL     1       5.312   4.322  15.563  0.00  0.00    +0.000 A 
ATOM      7  N   UNL     1       4.255   4.117  16.415  0.00  0.00    +0.000 N 
ATOM      8  C   UNL     1       4.270   4.253  17.785  0.00  0.00    +0.000 C 
ATOM      9  O   UNL     1       5.258   4.484  18.486  0.00  0.00    +0.000 OA
ATOM     10  N   UNL     1       5.274   3.936  14.310  0.00  0.00    +0.000 NA
ATOM     11  H   UNL     1       3.457   3.701  15.958  0.00  0.00    +0.000 HD
ENDBRANCH   1   8
BRANCH   1  12
ATOM     12  C   UNL     1       2.449   5.457  19.044  0.00  0.00    +0.000 A 
ATOM     13  C   UNL     1       2.003   5.597  20.365  0.00  0.00    +0.000 A 
ATOM     14  C   UNL     1       1.615   6.848  20.862  0.00  0.00    +0.000 A 
ATOM     15  C   UNL     1       1.669   7.974  20.044  0.00  0.00    +0.000 A 
ATOM     16 CL   UNL     1       1.149   9.499  20.650  0.00  0.00    +0.000 Cl
ATOM     17  C   UNL     1       2.139   7.868  18.741  0.00  0.00    +0.000 A 
ATOM     18  C   UNL     1       2.536   6.620  18.247  0.00  0.00    +0.000 A 
ENDBRANCH   1  12
BRANCH   1  19
ATOM     19  C   UNL     1       2.858   2.857  19.372  0.00  0.00    +0.000 C 
ATOM     20  C   UNL     1       1.451   2.496  19.863  0.00  0.00    +0.000 C 
ATOM     21  C   UNL     1       3.427   1.633  18.627  0.00  0.00    +0.000 C 
ENDBRANCH   1  19
TORSDOF 3
ENDMDL
MODEL 9
REMARK VINA RESULT:      -7.1      3.050      4.411
REMARK  Name = 
REMARK  6 active torsions:
REMARK  status: ('A' for Active; 'I' for Inactive)
REMARK    1  A    between atoms: C_1  and  C_2
REMARK    2  A    between atoms: C_7  and  C_9
REMARK    3  A    between atoms: C_9  and  C_10
REMARK    4  A    between atoms: C_9  and  C_17
REMARK    5  A    between atoms: C_17  and  C_18
REMARK    6  A    between atoms: C_17  and  C_19
REMARK                            x       y       z     vdW  Elec       q    Type
REMARK                         _______ _______ _______ _____ _____    ______ ____
ROOT
ATOM      1  C   UNL     1       3.597   5.394  19.524  0.00  0.00    +0.000 C 
ENDROOT
BRANCH   1   8
ATOM      2  C   UNL     1      -0.681  10.194  22.884  0.00  0.00    +0.000 C 
ATOM      3  C   UNL     1       0.120   9.709  21.732  0.00  0.00    +0.000 A 
ATOM      4  C   UNL     1       0.181  10.288  20.480  0.00  0.00    +0.000 A 
ATOM      5  S   UNL     1       1.197   9.368  19.459  0.00  0.00    +0.000 S 
ATOM      6  C   UNL     1       1.430   8.246  20.720  0.00  0.00    +0.000 A 
ATOM      7  N   UNL     1       2.196   7.116  20.565  0.00  0.00    +0.000 N 
ATOM      8  C   UNL     1       2.610   6.565  19.373  0.00  0.00    +0.000 C 
ATOM      9  O   UNL     1       2.280   6.935  18.244  0.00  0.00    +0.000 OA
ATOM     10  N   UNL     1       0.883   8.556  21.871  0.00  0.00    +0.000 NA
ATOM     11  H   UNL     1       2.327   6.608  21.427  0.00  0.00    +0.000 HD
ENDBRANCH   1   8
BRANCH   1  12
ATOM     12  C   UNL     1       4.438   5.238  18.257  0.00  0.00    +0.000 A 
ATOM     13  C   UNL     1       4.039   4.448  17.169  0.00  0.00    +0.000 A 
ATOM     14  C   UNL     1       4.844   4.342  16.028  0.00  0.00    +0.000 A 
ATOM     15  C   UNL     1       6.057   5.024  15.959  0.00  0.00    +0.000 A 
ATOM     16 CL   UNL     1       7.060   4.851  14.571  0.00  0.00    +0.000 Cl
ATOM     17  C   UNL     1       6.459   5.839  17.010  0.00  0.00    +0.000 A 
ATOM     18  C   UNL     1       5.651   5.953  18.147  0.00  0.00    +0.000 A 
ENDBRANCH   1  12
BRANCH   1  19
ATOM     19  C   UNL     1       2.857   4.136  20.079  0.00  0.00    +0.000 C 
ATOM     20  C   UNL     1       1.585   3.786  19.299  0.00  0.00    +0.000 C 
ATOM     21  C   UNL     1       3.787   2.906  20.045  0.00  0.00    +0.000 C 
ENDBRANCH   1  19
TORSDOF 3
ENDMDL
