MODEL 1
REMARK VINA RESULT:      -8.0      0.000      0.000
REMARK  Name = 
REMARK  5 active torsions:
REMARK  status: ('A' for Active; 'I' for Inactive)
REMARK    1  A    between atoms: C_1  and  C_2
REMARK    2  A    between atoms: C_2  and  C_3
REMARK    3  A    between atoms: C_3  and  N_4
REMARK    4  A    between atoms: C_10  and  C_11
REMARK    5  A    between atoms: C_11  and  C_13
REMARK                            x       y       z     vdW  Elec       q    Type
REMARK                         _______ _______ _______ _____ _____    ______ ____
ROOT
ATOM      1  N   UNL     1       5.879   3.599  13.971  0.00  0.00    +0.000 N 
ATOM      2  C   UNL     1       6.019   4.821  14.572  0.00  0.00    +0.000 C 
ATOM      3  O   UNL     1       6.766   5.686  14.119  0.00  0.00    +0.000 OA
ATOM      4  N   UNL     1       5.263   5.000  15.718  0.00  0.00    +0.000 N 
ATOM      5  C   UNL     1       5.246   6.318  16.344  0.00  0.00    +0.000 C 
ATOM      6  C   UNL     1       5.818   6.243  17.757  0.00  0.00    +0.000 C 
ATOM      7  C   UNL     1       5.057   5.223  18.615  0.00  0.00    +0.000 C 
ATOM      8  C   UNL     1       5.080   3.860  17.900  0.00  0.00    +0.000 C 
ATOM      9  C   UNL     1       4.573   3.941  16.457  0.00  0.00    +0.000 C 
ATOM     10  H   UNL     1       4.943   3.227  14.019  0.00  0.00    +0.000 HD
ENDROOT
BRANCH   7  11
ATOM     11  C   UNL     1       3.614   5.644  18.943  0.00  0.00    +0.000 C 
ATOM     12  O   UNL     1       3.168   6.752  18.664  0.00  0.00    +0.000 OA
BRANCH  11  13
ATOM     13  C   UNL     1       2.696   4.677  19.606  0.00  0.00    +0.000 A 
ATOM     14  C   UNL     1       2.710   4.473  20.991  0.00  0.00    +0.000 A 
ATOM     15  C   UNL     1       1.873   3.512  21.566  0.00  0.00    +0.000 A 
ATOM     16  C   UNL     1       1.013   2.766  20.763  0.00  0.00    +0.000 A 
ATOM     17  C   UNL     1       0.998   2.981  19.388  0.00  0.00    +0.000 A 
ATOM     18  F   UNL     1       0.153   2.277  18.624  0.00  0.00    +0.000 F 
ATOM     19  C   UNL     1       1.837   3.919  18.800  0.00  0.00    +0.000 A 
ENDBRANCH  11  13
ENDBRANCH   7  11
BRANCH   1  20
ATOM     20  C   UNL     1       6.612   3.320  12.753  0.00  0.00    +0.000 C 
BRANCH  20  22
ATOM     21  C   UNL     1       4.372   3.269  11.576  0.00  0.00    +0.000 C 
ATOM     22  C   UNL     1       5.749   2.636  11.698  0.00  0.00    +0.000 C 
ENDBRANCH  20  22
ENDBRANCH   1  20
TORSDOF 4
ENDMDL
MODEL 2
REMARK VINA RESULT:      -7.6      3.988      7.517
REMARK  Name = 
REMARK  5 active torsions:
REMARK  status: ('A' for Active; 'I' for Inactive)
REMARK    1  A    between atoms: C_1  and  C_2
REMARK    2  A    between atoms: C_2  and  C_3
REMARK    3  A    between atoms: C_3  and  N_4
REMARK    4  A    between atoms: C_10  and  C_11
REMARK    5  A    between atoms: C_11  and  C_13
REMARK                            x       y       z     vdW  Elec       q    Type
REMARK                         _______ _______ _______ _____ _____    ______ ____
ROOT
ATOM      1  N   UNL     1       1.407   8.158  21.448  0.00  0.00    +0.000 N 
ATOM      2  C   UNL     1       1.805   7.956  20.155  0.00  0.00    +0.000 C 
ATOM      3  O   UNL     1       1.683   8.826  19.293  0.00  0.00    +0.000 OA
ATOM      4  N   UNL     1       2.347   6.709  19.896  0.00  0.00    +0.000 N 
ATOM      5  C   UNL     1       2.922   6.456  18.580  0.00  0.00    +0.000 C 
ATOM      6  C   UNL     1       2.167   5.333  17.874  0.00  0.00    +0.000 C 
ATOM      7  C   UNL     1       2.156   4.052  18.719  0.00  0.00    +0.000 C 
ATOM      8  C   UNL     1       1.567   4.376  20.103  0.00  0.00    +0.000 C 
ATOM      9  C   UNL     1       2.276   5.549  20.787  0.00  0.00    +0.000 C 
ATOM     10  H   UNL     1       2.005   7.720  22.131  0.00  0.00    +0.000 HD
ENDROOT
BRANCH   7  11
ATOM     11  C   UNL     1       3.537   3.388  18.854  0.00  0.00    +0.000 C 
ATOM     12  O   UNL     1       3.764   2.489  19.657  0.00  0.00    +0.000 OA
BRANCH  11  13
ATOM     13  C   UNL     1       4.654   3.822  17.970  0.00  0.00    +0.000 A 
ATOM     14  C   UNL     1       4.626   3.614  16.586  0.00  0.00    +0.000 A 
ATOM     15  C   UNL     1       5.723   3.984  15.800  0.00  0.00    +0.000 A 
ATOM     16  C   UNL     1       6.839   4.572  16.392  0.00  0.00    +0.000 A 
ATOM     17  C   UNL     1       6.855   4.784  17.767  0.00  0.00    +0.000 A 
ATOM     18  F   UNL     1       7.920   5.371  18.328  0.00  0.00    +0.000 F 
ATOM     19  C   UNL     1       5.781   4.405  18.563  0.00  0.00    +0.000 A 
ENDBRANCH  11  13
ENDBRANCH   7  11
BRANCH   1  20
ATOM     20  C   UNL     1       0.846   9.440  21.825  0.00  0.00    +0.000 C 
BRANCH  20  22
ATOM     21  C   UNL     1      -1.012  10.574  23.118  0.00  0.00    +0.000 C 
ATOM     22  C   UNL     1      -0.166   9.321  22.961  0.00  0.00    +0.000 C 
ENDBRANCH  20  22
ENDBRANCH   1  20
TORSDOF 4
ENDMDL
MODEL 3
REMARK VINA RESULT:      -7.6      1.043      1.574
REMARK  Name = 
REMARK  5 active torsions:
REMARK  status: ('A' for Active; 'I' for Inactive)
REMARK    1  A    between atoms: C_1  and  C_2
REMARK    2  A    between atoms: C_2  and  C_3
REMARK    3  A    between atoms: C_3  and  N_4
REMARK    4  A    between atoms: C_10  and  C_11
REMARK    5  A    between atoms: C_11  and  C_13
REMARK                            x       y       z     vdW  Elec       q    Type
REMARK                         _______ _______ _______ _____ _____    ______ ____
ROOT
ATOM      1  N   UNL     1       5.974   3.609  13.710  0.00  0.00    +0.000 N 
ATOM      2  C   UNL     1       6.176   4.813  14.327  0.00  0.00    +0.000 C 
ATOM      3  O   UNL     1       6.976   5.640  13.893  0.00  0.00    +0.000 OA
ATOM      4  N   UNL     1       5.420   5.021  15.467  0.00  0.00    +0.000 N 
ATOM      5  C   UNL     1       5.471   6.329  16.111  0.00  0.00    +0.000 C 
ATOM      6  C   UNL     1       6.023   6.206  17.528  0.00  0.00    +0.000 C 
ATOM      7  C   UNL     1       5.195   5.220  18.365  0.00  0.00    +0.000 C 
ATOM      8  C   UNL     1       5.149   3.867  17.633  0.00  0.00    +0.000 C 
ATOM      9  C   UNL     1       4.662   3.994  16.187  0.00  0.00    +0.000 C 
ATOM     10  H   UNL     1       5.017   3.290  13.743  0.00  0.00    +0.000 HD
ENDROOT
BRANCH   7  11
ATOM     11  C   UNL     1       3.776   5.718  18.684  0.00  0.00    +0.000 C 
ATOM     12  O   UNL     1       3.445   6.894  18.570  0.00  0.00    +0.000 OA
BRANCH  11  13
ATOM     13  C   UNL     1       2.737   4.749  19.130  0.00  0.00    +0.000 A 
ATOM     14  C   UNL     1       1.764   4.252  18.255  0.00  0.00    +0.000 A 
ATOM     15  C   UNL     1       0.770   3.390  18.730  0.00  0.00    +0.000 A 
ATOM     16  C   UNL     1       0.756   3.013  20.072  0.00  0.00    +0.000 A 
ATOM     17  C   UNL     1       1.732   3.504  20.933  0.00  0.00    +0.000 A 
ATOM     18  F   UNL     1       1.727   3.121  22.216  0.00  0.00    +0.000 F 
ATOM     19  C   UNL     1       2.715   4.376  20.480  0.00  0.00    +0.000 A 
ENDBRANCH  11  13
ENDBRANCH   7  11
BRANCH   1  20
ATOM     20  C   UNL     1       6.703   3.303  12.495  0.00  0.00    +0.000 C 
BRANCH  20  22
ATOM     21  C   UNL     1       6.540   1.175  11.134  0.00  0.00    +0.000 C 
ATOM     22  C   UNL     1       5.873   2.489  11.507  0.00  0.00    +0.000 C 
ENDBRANCH  20  22
ENDBRANCH   1  20
TORSDOF 4
ENDMDL
MODEL 4
REMARK VINA RESULT:      -7.4      3.847      7.355
REMARK  Name = 
REMARK  5 active torsions:
REMARK  status: ('A' for Active; 'I' for Inactive)
REMARK    1  A    between atoms: C_1  and  C_2
REMARK    2  A    between atoms: C_2  and  C_3
REMARK    3  A    between atoms: C_3  and  N_4
REMARK    4  A    between atoms: C_10  and  C_11
REMARK    5  A    between atoms: C_11  and  C_13
REMARK                            x       y       z     vdW  Elec       q    Type
REMARK                         _______ _______ _______ _____ _____    ______ ____
ROOT
ATOM      1  N   UNL     1       1.411   8.053  21.536  0.00  0.00    +0.000 N 
ATOM      2  C   UNL     1       1.810   7.878  20.239  0.00  0.00    +0.000 C 
ATOM      3  O   UNL     1       1.740   8.783  19.409  0.00  0.00    +0.000 OA
ATOM      4  N   UNL     1       2.290   6.615  19.939  0.00  0.00    +0.000 N 
ATOM      5  C   UNL     1       2.863   6.380  18.618  0.00  0.00    +0.000 C 
ATOM      6  C   UNL     1       2.058   5.324  17.867  0.00  0.00    +0.000 C 
ATOM      7  C   UNL     1       1.975   4.015  18.664  0.00  0.00    +0.000 C 
ATOM      8  C   UNL     1       1.391   4.319  20.055  0.00  0.00    +0.000 C 
ATOM      9  C   UNL     1       2.152   5.428  20.786  0.00  0.00    +0.000 C 
ATOM     10  H   UNL     1       1.980   7.560  22.207  0.00  0.00    +0.000 HD
ENDROOT
BRANCH   7  11
ATOM     11  C   UNL     1       3.319   3.277  18.784  0.00  0.00    +0.000 C 
ATOM     12  O   UNL     1       3.472   2.291  19.497  0.00  0.00    +0.000 OA
BRANCH  11  13
ATOM     13  C   UNL     1       4.491   3.747  17.996  0.00  0.00    +0.000 A 
ATOM     14  C   UNL     1       5.607   4.332  18.605  0.00  0.00    +0.000 A 
ATOM     15  C   UNL     1       6.661   4.814  17.821  0.00  0.00    +0.000 A 
ATOM     16  C   UNL     1       6.608   4.699  16.434  0.00  0.00    +0.000 A 
ATOM     17  C   UNL     1       5.499   4.108  15.836  0.00  0.00    +0.000 A 
ATOM     18  F   UNL     1       5.464   3.979  14.503  0.00  0.00    +0.000 F 
ATOM     19  C   UNL     1       4.437   3.641  16.600  0.00  0.00    +0.000 A 
ENDBRANCH  11  13
ENDBRANCH   7  11
BRANCH   1  20
ATOM     20  C   UNL     1       0.912   9.347  21.956  0.00  0.00    +0.000 C 
BRANCH  20  22
ATOM     21  C   UNL     1      -0.981  10.595  23.082  0.00  0.00    +0.000 C 
ATOM     22  C   UNL     1      -0.365   9.238  22.783  0.00  0.00    +0.000 C 
ENDBRANCH  20  22
ENDBRANCH   1  20
TORSDOF 4
ENDMDL
MODEL 5
REMARK VINA RESULT:      -7.1      1.901      2.416
REMARK  Name = 
REMARK  5 active torsions:
REMARK  status: ('A' for Active; 'I' for Inactive)
REMARK    1  A    between atoms: C_1  and  C_2
REMARK    2  A    between atoms: C_2  and  C_3
REMARK    3  A    between atoms: C_3  and  N_4
REMARK    4  A    between atoms: C_10  and  C_11
REMARK    5  A    between atoms: C_11  and  C_13
REMARK                            x       y       z     vdW  Elec       q    Type
REMARK                         _______ _______ _______ _____ _____    ______ ____
ROOT
ATOM      1  N   UNL     1       7.016   3.810  13.220  0.00  0.00    +0.000 N 
ATOM      2  C   UNL     1       5.820   3.985  13.860  0.00  0.00    +0.000 C 
ATOM      3  O   UNL     1       4.749   3.958  13.257  0.00  0.00    +0.000 OA
ATOM      4  N   UNL     1       5.911   4.196  15.225  0.00  0.00    +0.000 N 
ATOM      5  C   UNL     1       4.681   4.256  16.007  0.00  0.00    +0.000 C 
ATOM      6  C   UNL     1       4.533   5.625  16.665  0.00  0.00    +0.000 C 
ATOM      7  C   UNL     1       5.750   5.958  17.539  0.00  0.00    +0.000 C 
ATOM      8  C   UNL     1       7.021   5.855  16.677  0.00  0.00    +0.000 C 
ATOM      9  C   UNL     1       7.141   4.508  15.958  0.00  0.00    +0.000 C 
ATOM     10  H   UNL     1       7.697   3.301  13.762  0.00  0.00    +0.000 HD
ENDROOT
BRANCH   7  11
ATOM     11  C   UNL     1       5.869   5.079  18.796  0.00  0.00    +0.000 C 
ATOM     12  O   UNL     1       6.943   4.844  19.341  0.00  0.00    +0.000 OA
BRANCH  11  13
ATOM     13  C   UNL     1       4.642   4.497  19.408  0.00  0.00    +0.000 A 
ATOM     14  C   UNL     1       4.459   3.115  19.527  0.00  0.00    +0.000 A 
ATOM     15  C   UNL     1       3.266   2.609  20.053  0.00  0.00    +0.000 A 
ATOM     16  C   UNL     1       2.263   3.482  20.473  0.00  0.00    +0.000 A 
ATOM     17  C   UNL     1       2.457   4.855  20.359  0.00  0.00    +0.000 A 
ATOM     18  F   UNL     1       1.500   5.690  20.785  0.00  0.00    +0.000 F 
ATOM     19  C   UNL     1       3.629   5.372  19.822  0.00  0.00    +0.000 A 
ENDBRANCH  11  13
ENDBRANCH   7  11
BRANCH   1  20
ATOM     20  C   UNL     1       7.026   3.562  11.792  0.00  0.00    +0.000 C 
BRANCH  20  22
ATOM     21  C   UNL     1       6.066   1.303  11.170  0.00  0.00    +0.000 C 
ATOM     22  C   UNL     1       7.326   2.104  11.457  0.00  0.00    +0.000 C 
ENDBRANCH  20  22
ENDBRANCH   1  20
TORSDOF 4
ENDMDL
MODEL 6
REMARK VINA RESULT:      -7.1      2.714      4.674
REMARK  Name = 
REMARK  5 active torsions:
REMARK  status: ('A' for Active; 'I' for Inactive)
REMARK    1  A    between atoms: C_1  and  C_2
REMARK    2  A    between atoms: C_2  and  C_3
REMARK    3  A    between atoms: C_3  and  N_4
REMARK    4  A    between atoms: C_10  and  C_11
REMARK    5  A    between atoms: C_11  and  C_13
REMARK                            x       y       z     vdW  Elec       q    Type
REMARK                         _______ _______ _______ _____ _____    ______ ____
ROOT
ATOM      1  N   UNL     1       6.992   7.747  17.840  0.00  0.00    +0.000 N 
ATOM      2  C   UNL     1       7.086   6.653  17.023  0.00  0.00    +0.000 C 
ATOM      3  O   UNL     1       7.915   6.588  16.117  0.00  0.00    +0.000 OA
ATOM      4  N   UNL     1       6.183   5.640  17.293  0.00  0.00    +0.000 N 
ATOM      5  C   UNL     1       6.302   4.383  16.562  0.00  0.00    +0.000 C 
ATOM      6  C   UNL     1       5.045   4.126  15.736  0.00  0.00    +0.000 C 
ATOM      7  C   UNL     1       3.789   4.125  16.617  0.00  0.00    +0.000 C 
ATOM      8  C   UNL     1       3.723   5.456  17.386  0.00  0.00    +0.000 C 
ATOM      9  C   UNL     1       5.009   5.755  18.162  0.00  0.00    +0.000 C 
ATOM     10  H   UNL     1       6.761   7.522  18.796  0.00  0.00    +0.000 HD
ENDROOT
BRANCH   7  11
ATOM     11  C   UNL     1       3.711   2.931  17.583  0.00  0.00    +0.000 C 
ATOM     12  O   UNL     1       4.406   1.928  17.454  0.00  0.00    +0.000 OA
BRANCH  11  13
ATOM     13  C   UNL     1       2.778   2.979  18.743  0.00  0.00    +0.000 A 
ATOM     14  C   UNL     1       1.456   3.419  18.612  0.00  0.00    +0.000 A 
ATOM     15  C   UNL     1       0.631   3.505  19.738  0.00  0.00    +0.000 A 
ATOM     16  C   UNL     1       1.120   3.139  20.991  0.00  0.00    +0.000 A 
ATOM     17  C   UNL     1       2.433   2.694  21.111  0.00  0.00    +0.000 A 
ATOM     18  F   UNL     1       2.891   2.322  22.314  0.00  0.00    +0.000 F 
ATOM     19  C   UNL     1       3.270   2.620  20.005  0.00  0.00    +0.000 A 
ENDBRANCH  11  13
ENDBRANCH   7  11
BRANCH   1  20
ATOM     20  C   UNL     1       7.908   8.854  17.652  0.00  0.00    +0.000 C 
BRANCH  20  22
ATOM     21  C   UNL     1       9.295  10.460  19.032  0.00  0.00    +0.000 C 
ATOM     22  C   UNL     1       8.874   9.014  18.821  0.00  0.00    +0.000 C 
ENDBRANCH  20  22
ENDBRANCH   1  20
TORSDOF 4
ENDMDL
MODEL 7
REMARK VINA RESULT:      -7.0      2.602      4.496
REMARK  Name = 
REMARK  5 active torsions:
REMARK  status: ('A' for Active; 'I' for Inactive)
REMARK    1  A    between atoms: C_1  and  C_2
REMARK    2  A    between atoms: C_2  and  C_3
REMARK    3  A    between atoms: C_3  and  N_4
REMARK    4  A    between atoms: C_10  and  C_11
REMARK    5  A    between atoms: C_11  and  C_13
REMARK                            x       y       z     vdW  Elec       q    Type
REMARK                         _______ _______ _______ _____ _____    ______ ____
ROOT
ATOM      1  N   UNL     1       7.182   7.541  17.843  0.00  0.00    +0.000 N 
ATOM      2  C   UNL     1       7.113   6.472  16.991  0.00  0.00    +0.000 C 
ATOM      3  O   UNL     1       7.833   6.384  15.998  0.00  0.00    +0.000 OA
ATOM      4  N   UNL     1       6.177   5.511  17.332  0.00  0.00    +0.000 N 
ATOM      5  C   UNL     1       6.131   4.275  16.559  0.00  0.00    +0.000 C 
ATOM      6  C   UNL     1       4.778   4.127  15.869  0.00  0.00    +0.000 C 
ATOM      7  C   UNL     1       3.627   4.178  16.882  0.00  0.00    +0.000 C 
ATOM      8  C   UNL     1       3.735   5.484  17.689  0.00  0.00    +0.000 C 
ATOM      9  C   UNL     1       5.114   5.672  18.327  0.00  0.00    +0.000 C 
ATOM     10  H   UNL     1       7.040   7.299  18.812  0.00  0.00    +0.000 HD
ENDROOT
BRANCH   7  11
ATOM     11  C   UNL     1       3.572   2.959  17.819  0.00  0.00    +0.000 C 
ATOM     12  O   UNL     1       4.041   1.867  17.513  0.00  0.00    +0.000 OA
BRANCH  11  13
ATOM     13  C   UNL     1       2.950   3.090  19.165  0.00  0.00    +0.000 A 
ATOM     14  C   UNL     1       3.497   2.476  20.297  0.00  0.00    +0.000 A 
ATOM     15  C   UNL     1       2.848   2.576  21.532  0.00  0.00    +0.000 A 
ATOM     16  C   UNL     1       1.661   3.298  21.640  0.00  0.00    +0.000 A 
ATOM     17  C   UNL     1       1.128   3.914  20.511  0.00  0.00    +0.000 A 
ATOM     18  F   UNL     1      -0.001   4.626  20.624  0.00  0.00    +0.000 F 
ATOM     19  C   UNL     1       1.752   3.808  19.274  0.00  0.00    +0.000 A 
ENDBRANCH  11  13
ENDBRANCH   7  11
BRANCH   1  20
ATOM     20  C   UNL     1       8.146   8.592  17.585  0.00  0.00    +0.000 C 
BRANCH  20  22
ATOM     21  C   UNL     1       9.332  10.577  18.615  0.00  0.00    +0.000 C 
ATOM     22  C   UNL     1       8.660   9.237  18.868  0.00  0.00    +0.000 C 
ENDBRANCH  20  22
ENDBRANCH   1  20
TORSDOF 4
ENDMDL
MODEL 8
REMARK VINA RESULT:      -7.0      2.127      2.974
REMARK  Name = 
REMARK  5 active torsions:
REMARK  status: ('A' for Active; 'I' for Inactive)
REMARK    1  A    between atoms: C_1  and  C_2
REMARK    2  A    between atoms: C_2  and  C_3
REMARK    3  A    between atoms: C_3  and  N_4
REMARK    4  A    between atoms: C_10  and  C_11
REMARK    5  A    between atoms: C_11  and  C_13
REMARK                            x       y       z     vdW  Elec       q    Type
REMARK                         _______ _______ _______ _____ _____    ______ ____
ROOT
ATOM      1  N   UNL     1       4.686   3.505  12.612  0.00  0.00    +0.000 N 
ATOM      2  C   UNL     1       5.882   3.946  13.109  0.00  0.00    +0.000 C 
ATOM      3  O   UNL     1       6.930   3.834  12.477  0.00  0.00    +0.000 OA
ATOM      4  N   UNL     1       5.818   4.519  14.368  0.00  0.00    +0.000 N 
ATOM      5  C   UNL     1       7.019   5.139  14.916  0.00  0.00    +0.000 C 
ATOM      6  C   UNL     1       7.451   4.426  16.195  0.00  0.00    +0.000 C 
ATOM      7  C   UNL     1       6.322   4.415  17.234  0.00  0.00    +0.000 C 
ATOM      8  C   UNL     1       5.073   3.778  16.601  0.00  0.00    +0.000 C 
ATOM      9  C   UNL     1       4.675   4.444  15.281  0.00  0.00    +0.000 C 
ATOM     10  H   UNL     1       3.902   4.091  12.858  0.00  0.00    +0.000 HD
ENDROOT
BRANCH   7  11
ATOM     11  C   UNL     1       5.997   5.803  17.811  0.00  0.00    +0.000 C 
ATOM     12  O   UNL     1       6.822   6.710  17.860  0.00  0.00    +0.000 OA
BRANCH  11  13
ATOM     13  C   UNL     1       4.625   6.089  18.315  0.00  0.00    +0.000 A 
ATOM     14  C   UNL     1       3.802   7.050  17.717  0.00  0.00    +0.000 A 
ATOM     15  C   UNL     1       2.543   7.330  18.260  0.00  0.00    +0.000 A 
ATOM     16  C   UNL     1       2.101   6.642  19.388  0.00  0.00    +0.000 A 
ATOM     17  C   UNL     1       2.922   5.681  19.972  0.00  0.00    +0.000 A 
ATOM     18  F   UNL     1       2.484   5.007  21.043  0.00  0.00    +0.000 F 
ATOM     19  C   UNL     1       4.182   5.406  19.455  0.00  0.00    +0.000 A 
ENDBRANCH  11  13
ENDBRANCH   7  11
BRANCH   1  20
ATOM     20  C   UNL     1       4.644   2.909  11.292  0.00  0.00    +0.000 C 
BRANCH  20  22
ATOM     21  C   UNL     1       3.132   4.196   9.722  0.00  0.00    +0.000 C 
ATOM     22  C   UNL     1       3.261   3.003  10.655  0.00  0.00    +0.000 C 
ENDBRANCH  20  22
ENDBRANCH   1  20
TORSDOF 4
ENDMDL
MODEL 9
REMARK VINA RESULT:      -7.0      1.168      1.224
REMARK  Name = 
REMARK  5 active torsions:
REMARK  status: ('A' for Active; 'I' for Inactive)
REMARK    1  A    between atoms: C_1  and  C_2
REMARK    2  A    between atoms: C_2  and  C_3
REMARK    3  A    between atoms: C_3  and  N_4
REMARK    4  A    between atoms: C_10  and  C_11
REMARK    5  A    between atoms: C_11  and  C_13
REMARK                            x       y       z     vdW  Elec       q    Type
REMARK                         _______ _______ _______ _____ _____    ______ ____
ROOT
ATOM      1  N   UNL     1       5.990   3.740  13.703  0.00  0.00    +0.000 N 
ATOM      2  C   UNL     1       6.523   4.689  14.531  0.00  0.00    +0.000 C 
ATOM      3  O   UNL     1       7.511   5.349  14.212  0.00  0.00    +0.000 OA
ATOM      4  N   UNL     1       5.871   4.844  15.742  0.00  0.00    +0.000 N 
ATOM      5  C   UNL     1       6.287   5.926  16.627  0.00  0.00    +0.000 C 
ATOM      6  C   UNL     1       6.808   5.365  17.947  0.00  0.00    +0.000 C 
ATOM      7  C   UNL     1       5.757   4.479  18.629  0.00  0.00    +0.000 C 
ATOM      8  C   UNL     1       5.332   3.372  17.648  0.00  0.00    +0.000 C 
ATOM      9  C   UNL     1       4.874   3.924  16.296  0.00  0.00    +0.000 C 
ATOM     10  H   UNL     1       4.983   3.684  13.742  0.00  0.00    +0.000 HD
ENDROOT
BRANCH   7  11
ATOM     11  C   UNL     1       4.533   5.254  19.144  0.00  0.00    +0.000 C 
ATOM     12  O   UNL     1       4.390   6.459  18.967  0.00  0.00    +0.000 OA
BRANCH  11  13
ATOM     13  C   UNL     1       3.453   4.530  19.870  0.00  0.00    +0.000 A 
ATOM     14  C   UNL     1       3.673   3.290  20.481  0.00  0.00    +0.000 A 
ATOM     15  C   UNL     1       2.615   2.617  21.101  0.00  0.00    +0.000 A 
ATOM     16  C   UNL     1       1.344   3.186  21.124  0.00  0.00    +0.000 A 
ATOM     17  C   UNL     1       1.134   4.423  20.522  0.00  0.00    +0.000 A 
ATOM     18  F   UNL     1      -0.085   4.976  20.566  0.00  0.00    +0.000 F 
ATOM     19  C   UNL     1       2.171   5.095  19.886  0.00  0.00    +0.000 A 
ENDBRANCH  11  13
ENDBRANCH   7  11
BRANCH   1  20
ATOM     20  C   UNL     1       6.588   3.516  12.402  0.00  0.00    +0.000 C 
BRANCH  20  22
ATOM     21  C   UNL     1       4.311   3.158  11.356  0.00  0.00    +0.000 C 
ATOM     22  C   UNL     1       5.727   2.627  11.510  0.00  0.00    +0.000 C 
ENDBRANCH  20  22
ENDBRANCH   1  20
TORSDOF 4
ENDMDL
