MODEL 1
REMARK VINA RESULT:      -6.9      0.000      0.000
REMARK  Name = 
REMARK  7 active torsions:
REMARK  status: ('A' for Active; 'I' for Inactive)
REMARK    1  A    between atoms: N_1  and  C_2
REMARK    2  A    between atoms: C_2  and  C_3
REMARK    3  A    between atoms: C_3  and  C_4
REMARK    4  A    between atoms: C_10  and  O_11
REMARK    5  A    between atoms: O_11  and  C_12
REMARK    6  A    between atoms: C_12  and  C_14
REMARK    7  A    between atoms: C_14  and  O_16
REMARK                            x       y       z     vdW  Elec       q    Type
REMARK                         _______ _______ _______ _____ _____    ______ ____
ROOT
ATOM      1  C   UNL     1       5.947   4.332  14.584  0.00  0.00    +0.000 A 
ATOM      2  C   UNL     1       7.117   5.067  14.590  0.00  0.00    +0.000 A 
ATOM      3  N   UNL     1       7.377   5.457  15.874  0.00  0.00    +0.000 N 
ATOM      4  C   UNL     1       6.398   4.993  16.719  0.00  0.00    +0.000 A 
ATOM      5  C   UNL     1       6.257   5.156  18.102  0.00  0.00    +0.000 A 
ATOM      6  C   UNL     1       5.150   4.570  18.721  0.00  0.00    +0.000 A 
ATOM      7  C   UNL     1       4.237   3.831  17.974  0.00  0.00    +0.000 A 
ATOM      8  C   UNL     1       4.373   3.693  16.585  0.00  0.00    +0.000 A 
ATOM      9  C   UNL     1       5.483   4.280  15.941  0.00  0.00    +0.000 A 
ATOM     10  H   UNL     1       8.175   6.004  16.167  0.00  0.00    +0.000 HD
ENDROOT
BRANCH   1  11
ATOM     11  C   UNL     1       5.314   3.708  13.377  0.00  0.00    +0.000 C 
BRANCH  11  12
ATOM     12  C   UNL     1       6.334   3.391  12.278  0.00  0.00    +0.000 C 
BRANCH  12  13
ATOM     13  N   UNL     1       6.165   2.030  11.765  0.00  0.00    +0.000 NA
ATOM     14  H   UNL     1       6.061   2.065  10.752  0.00  0.00    +0.000 HD
ATOM     15  H   UNL     1       5.296   1.635  12.125  0.00  0.00    +0.000 HD
ENDBRANCH  12  13
ENDBRANCH  11  12
ENDBRANCH   1  11
BRANCH   7  16
ATOM     16  O   UNL     1       3.085   3.233  18.534  0.00  0.00    +0.000 OA
BRANCH  16  17
ATOM     17  C   UNL     1       1.865   3.854  18.467  0.00  0.00    +0.000 C 
ATOM     18  O   UNL     1       1.190   4.184  17.502  0.00  0.00    +0.000 OA
BRANCH  17  19
ATOM     19  C   UNL     1       1.346   4.152  19.883  0.00  0.00    +0.000 C 
ATOM     20  O   UNL     1       1.708   5.083  20.572  0.00  0.00    +0.000 OA
BRANCH  19  21
ATOM     21  O   UNL     1       0.432   3.224  20.251  0.00  0.00    +0.000 OA
ATOM     22  H   UNL     1       0.514   2.423  19.680  0.00  0.00    +0.000 HD
ENDBRANCH  19  21
ENDBRANCH  17  19
ENDBRANCH  16  17
ENDBRANCH   7  16
TORSDOF 7
ENDMDL
MODEL 2
REMARK VINA RESULT:      -6.8      4.205      6.487
REMARK  Name = 
REMARK  7 active torsions:
REMARK  status: ('A' for Active; 'I' for Inactive)
REMARK    1  A    between atoms: N_1  and  C_2
REMARK    2  A    between atoms: C_2  and  C_3
REMARK    3  A    between atoms: C_3  and  C_4
REMARK    4  A    between atoms: C_10  and  O_11
REMARK    5  A    between atoms: O_11  and  C_12
REMARK    6  A    between atoms: C_12  and  C_14
REMARK    7  A    between atoms: C_14  and  O_16
REMARK                            x       y       z     vdW  Elec       q    Type
REMARK                         _______ _______ _______ _____ _____    ______ ____
ROOT
ATOM      1  C   UNL     1       2.666   7.310  18.637  0.00  0.00    +0.000 A 
ATOM      2  C   UNL     1       2.097   7.215  19.893  0.00  0.00    +0.000 A 
ATOM      3  N   UNL     1       2.448   6.012  20.438  0.00  0.00    +0.000 N 
ATOM      4  C   UNL     1       3.240   5.307  19.563  0.00  0.00    +0.000 A 
ATOM      5  C   UNL     1       3.817   4.039  19.700  0.00  0.00    +0.000 A 
ATOM      6  C   UNL     1       4.589   3.554  18.641  0.00  0.00    +0.000 A 
ATOM      7  C   UNL     1       4.785   4.329  17.501  0.00  0.00    +0.000 A 
ATOM      8  C   UNL     1       4.183   5.588  17.363  0.00  0.00    +0.000 A 
ATOM      9  C   UNL     1       3.398   6.095  18.421  0.00  0.00    +0.000 A 
ATOM     10  H   UNL     1       2.172   5.683  21.353  0.00  0.00    +0.000 HD
ENDROOT
BRANCH   1  11
ATOM     11  C   UNL     1       2.537   8.477  17.706  0.00  0.00    +0.000 C 
BRANCH  11  12
ATOM     12  C   UNL     1       1.414   9.435  18.120  0.00  0.00    +0.000 C 
BRANCH  12  13
ATOM     13  N   UNL     1       1.768  10.829  17.842  0.00  0.00    +0.000 NA
ATOM     14  H   UNL     1       1.353  11.108  16.954  0.00  0.00    +0.000 HD
ATOM     15  H   UNL     1       2.777  10.907  17.720  0.00  0.00    +0.000 HD
ENDBRANCH  12  13
ENDBRANCH  11  12
ENDBRANCH   1  11
BRANCH   7  16
ATOM     16  O   UNL     1       5.534   3.889  16.387  0.00  0.00    +0.000 OA
BRANCH  16  17
ATOM     17  C   UNL     1       6.796   4.370  16.150  0.00  0.00    +0.000 C 
ATOM     18  O   UNL     1       7.747   4.519  16.905  0.00  0.00    +0.000 OA
BRANCH  17  19
ATOM     19  C   UNL     1       6.940   4.767  14.672  0.00  0.00    +0.000 C 
ATOM     20  O   UNL     1       7.801   5.501  14.233  0.00  0.00    +0.000 OA
BRANCH  19  21
ATOM     21  O   UNL     1       5.967   4.183  13.934  0.00  0.00    +0.000 OA
ATOM     22  H   UNL     1       5.633   3.376  14.392  0.00  0.00    +0.000 HD
ENDBRANCH  19  21
ENDBRANCH  17  19
ENDBRANCH  16  17
ENDBRANCH   7  16
TORSDOF 7
ENDMDL
MODEL 3
REMARK VINA RESULT:      -6.8      0.706      1.041
REMARK  Name = 
REMARK  7 active torsions:
REMARK  status: ('A' for Active; 'I' for Inactive)
REMARK    1  A    between atoms: N_1  and  C_2
REMARK    2  A    between atoms: C_2  and  C_3
REMARK    3  A    between atoms: C_3  and  C_4
REMARK    4  A    between atoms: C_10  and  O_11
REMARK    5  A    between atoms: O_11  and  C_12
REMARK    6  A    between atoms: C_12  and  C_14
REMARK    7  A    between atoms: C_14  and  O_16
REMARK                            x       y       z     vdW  Elec       q    Type
REMARK                         _______ _______ _______ _____ _____    ______ ____
ROOT
ATOM      1  C   UNL     1       5.997   4.310  14.663  0.00  0.00    +0.000 A 
ATOM      2  C   UNL     1       7.184   5.017  14.631  0.00  0.00    +0.000 A 
ATOM      3  N   UNL     1       7.498   5.395  15.906  0.00  0.00    +0.000 N 
ATOM      4  C   UNL     1       6.537   4.950  16.783  0.00  0.00    +0.000 A 
ATOM      5  C   UNL     1       6.449   5.111  18.171  0.00  0.00    +0.000 A 
ATOM      6  C   UNL     1       5.350   4.549  18.826  0.00  0.00    +0.000 A 
ATOM      7  C   UNL     1       4.393   3.835  18.108  0.00  0.00    +0.000 A 
ATOM      8  C   UNL     1       4.478   3.700  16.715  0.00  0.00    +0.000 A 
ATOM      9  C   UNL     1       5.580   4.263  16.034  0.00  0.00    +0.000 A 
ATOM     10  H   UNL     1       8.318   5.922  16.174  0.00  0.00    +0.000 HD
ENDROOT
BRANCH   1  11
ATOM     11  C   UNL     1       5.308   3.707  13.476  0.00  0.00    +0.000 C 
BRANCH  11  12
ATOM     12  C   UNL     1       6.281   3.384  12.336  0.00  0.00    +0.000 C 
BRANCH  12  13
ATOM     13  N   UNL     1       6.041   2.046  11.790  0.00  0.00    +0.000 NA
ATOM     14  H   UNL     1       5.407   1.542  12.408  0.00  0.00    +0.000 HD
ATOM     15  H   UNL     1       6.913   1.517  11.787  0.00  0.00    +0.000 HD
ENDBRANCH  12  13
ENDBRANCH  11  12
ENDBRANCH   1  11
BRANCH   7  16
ATOM     16  O   UNL     1       3.248   3.263  18.705  0.00  0.00    +0.000 OA
BRANCH  16  17
ATOM     17  C   UNL     1       2.025   3.877  18.617  0.00  0.00    +0.000 C 
ATOM     18  O   UNL     1       1.721   4.996  18.229  0.00  0.00    +0.000 OA
BRANCH  17  19
ATOM     19  C   UNL     1       0.922   2.930  19.116  0.00  0.00    +0.000 C 
ATOM     20  O   UNL     1       0.340   2.120  18.425  0.00  0.00    +0.000 OA
BRANCH  19  21
ATOM     21  O   UNL     1       0.694   3.131  20.435  0.00  0.00    +0.000 OA
ATOM     22  H   UNL     1       1.227   3.897  20.757  0.00  0.00    +0.000 HD
ENDBRANCH  19  21
ENDBRANCH  17  19
ENDBRANCH  16  17
ENDBRANCH   7  16
TORSDOF 7
ENDMDL
MODEL 4
REMARK VINA RESULT:      -6.8      3.933      6.504
REMARK  Name = 
REMARK  7 active torsions:
REMARK  status: ('A' for Active; 'I' for Inactive)
REMARK    1  A    between atoms: N_1  and  C_2
REMARK    2  A    between atoms: C_2  and  C_3
REMARK    3  A    between atoms: C_3  and  C_4
REMARK    4  A    between atoms: C_10  and  O_11
REMARK    5  A    between atoms: O_11  and  C_12
REMARK    6  A    between atoms: C_12  and  C_14
REMARK    7  A    between atoms: C_14  and  O_16
REMARK                            x       y       z     vdW  Elec       q    Type
REMARK                         _______ _______ _______ _____ _____    ______ ____
ROOT
ATOM      1  C   UNL     1       2.339   5.006  20.323  0.00  0.00    +0.000 A 
ATOM      2  C   UNL     1       1.740   6.219  20.607  0.00  0.00    +0.000 A 
ATOM      3  N   UNL     1       2.163   7.136  19.687  0.00  0.00    +0.000 N 
ATOM      4  C   UNL     1       3.034   6.551  18.798  0.00  0.00    +0.000 A 
ATOM      5  C   UNL     1       3.709   7.110  17.707  0.00  0.00    +0.000 A 
ATOM      6  C   UNL     1       4.547   6.277  16.960  0.00  0.00    +0.000 A 
ATOM      7  C   UNL     1       4.676   4.931  17.291  0.00  0.00    +0.000 A 
ATOM      8  C   UNL     1       4.014   4.386  18.400  0.00  0.00    +0.000 A 
ATOM      9  C   UNL     1       3.165   5.211  19.169  0.00  0.00    +0.000 A 
ATOM     10  H   UNL     1       1.878   8.105  19.656  0.00  0.00    +0.000 HD
ENDROOT
BRANCH   1  11
ATOM     11  C   UNL     1       2.134   3.732  21.086  0.00  0.00    +0.000 C 
BRANCH  11  12
ATOM     12  C   UNL     1       1.556   2.613  20.213  0.00  0.00    +0.000 C 
BRANCH  12  13
ATOM     13  N   UNL     1       0.179   2.906  19.807  0.00  0.00    +0.000 NA
ATOM     14  H   UNL     1      -0.445   2.730  20.593  0.00  0.00    +0.000 HD
ATOM     15  H   UNL     1      -0.104   2.261  19.070  0.00  0.00    +0.000 HD
ENDBRANCH  12  13
ENDBRANCH  11  12
ENDBRANCH   1  11
BRANCH   7  16
ATOM     16  O   UNL     1       5.523   4.042  16.592  0.00  0.00    +0.000 OA
BRANCH  16  17
ATOM     17  C   UNL     1       6.823   4.378  16.314  0.00  0.00    +0.000 C 
ATOM     18  O   UNL     1       7.778   4.550  17.058  0.00  0.00    +0.000 OA
BRANCH  17  19
ATOM     19  C   UNL     1       7.010   4.552  14.799  0.00  0.00    +0.000 C 
ATOM     20  O   UNL     1       7.634   5.453  14.277  0.00  0.00    +0.000 OA
BRANCH  19  21
ATOM     21  O   UNL     1       6.378   3.558  14.131  0.00  0.00    +0.000 OA
ATOM     22  H   UNL     1       5.625   3.216  14.669  0.00  0.00    +0.000 HD
ENDBRANCH  19  21
ENDBRANCH  17  19
ENDBRANCH  16  17
ENDBRANCH   7  16
TORSDOF 7
ENDMDL
MODEL 5
REMARK VINA RESULT:      -6.8      3.782      6.439
REMARK  Name = 
REMARK  7 active torsions:
REMARK  status: ('A' for Active; 'I' for Inactive)
REMARK    1  A    between atoms: N_1  and  C_2
REMARK    2  A    between atoms: C_2  and  C_3
REMARK    3  A    between atoms: C_3  and  C_4
REMARK    4  A    between atoms: C_10  and  O_11
REMARK    5  A    between atoms: O_11  and  C_12
REMARK    6  A    between atoms: C_12  and  C_14
REMARK    7  A    between atoms: C_14  and  O_16
REMARK                            x       y       z     vdW  Elec       q    Type
REMARK                         _______ _______ _______ _____ _____    ______ ____
ROOT
ATOM      1  C   UNL     1       1.868   3.487  19.276  0.00  0.00    +0.000 A 
ATOM      2  C   UNL     1       1.467   2.305  18.683  0.00  0.00    +0.000 A 
ATOM      3  N   UNL     1       2.275   2.065  17.607  0.00  0.00    +0.000 N 
ATOM      4  C   UNL     1       3.204   3.070  17.477  0.00  0.00    +0.000 A 
ATOM      5  C   UNL     1       4.215   3.236  16.523  0.00  0.00    +0.000 A 
ATOM      6  C   UNL     1       5.031   4.366  16.625  0.00  0.00    +0.000 A 
ATOM      7  C   UNL     1       4.844   5.277  17.662  0.00  0.00    +0.000 A 
ATOM      8  C   UNL     1       3.814   5.114  18.599  0.00  0.00    +0.000 A 
ATOM      9  C   UNL     1       2.977   3.980  18.511  0.00  0.00    +0.000 A 
ATOM     10  H   UNL     1       2.208   1.264  16.994  0.00  0.00    +0.000 HD
ENDROOT
BRANCH   1  11
ATOM     11  C   UNL     1       1.251   4.106  20.494  0.00  0.00    +0.000 C 
BRANCH  11  12
ATOM     12  C   UNL     1       2.153   3.994  21.728  0.00  0.00    +0.000 C 
BRANCH  12  13
ATOM     13  N   UNL     1       2.571   2.610  21.964  0.00  0.00    +0.000 NA
ATOM     14  H   UNL     1       3.481   2.610  22.423  0.00  0.00    +0.000 HD
ATOM     15  H   UNL     1       2.704   2.137  21.071  0.00  0.00    +0.000 HD
ENDBRANCH  12  13
ENDBRANCH  11  12
ENDBRANCH   1  11
BRANCH   7  16
ATOM     16  O   UNL     1       5.618   6.450  17.809  0.00  0.00    +0.000 OA
BRANCH  16  17
ATOM     17  C   UNL     1       6.956   6.453  17.509  0.00  0.00    +0.000 C 
ATOM     18  O   UNL     1       7.534   6.581  16.439  0.00  0.00    +0.000 OA
BRANCH  17  19
ATOM     19  C   UNL     1       7.783   6.249  18.789  0.00  0.00    +0.000 C 
ATOM     20  O   UNL     1       7.733   5.265  19.497  0.00  0.00    +0.000 OA
BRANCH  19  21
ATOM     21  O   UNL     1       8.573   7.326  19.012  0.00  0.00    +0.000 OA
ATOM     22  H   UNL     1       9.030   7.589  18.178  0.00  0.00    +0.000 HD
ENDBRANCH  19  21
ENDBRANCH  17  19
ENDBRANCH  16  17
ENDBRANCH   7  16
TORSDOF 7
ENDMDL
MODEL 6
REMARK VINA RESULT:      -6.8      1.072      1.410
REMARK  Name = 
REMARK  7 active torsions:
REMARK  status: ('A' for Active; 'I' for Inactive)
REMARK    1  A    between atoms: N_1  and  C_2
REMARK    2  A    between atoms: C_2  and  C_3
REMARK    3  A    between atoms: C_3  and  C_4
REMARK    4  A    between atoms: C_10  and  O_11
REMARK    5  A    between atoms: O_11  and  C_12
REMARK    6  A    between atoms: C_12  and  C_14
REMARK    7  A    between atoms: C_14  and  O_16
REMARK                            x       y       z     vdW  Elec       q    Type
REMARK                         _______ _______ _______ _____ _____    ______ ____
ROOT
ATOM      1  C   UNL     1       5.980   4.418  15.415  0.00  0.00    +0.000 A 
ATOM      2  C   UNL     1       7.320   4.691  15.608  0.00  0.00    +0.000 A 
ATOM      3  N   UNL     1       7.522   4.961  16.933  0.00  0.00    +0.000 N 
ATOM      4  C   UNL     1       6.335   4.872  17.621  0.00  0.00    +0.000 A 
ATOM      5  C   UNL     1       6.071   5.071  18.981  0.00  0.00    +0.000 A 
ATOM      6  C   UNL     1       4.754   4.914  19.422  0.00  0.00    +0.000 A 
ATOM      7  C   UNL     1       3.752   4.549  18.527  0.00  0.00    +0.000 A 
ATOM      8  C   UNL     1       4.022   4.374  17.162  0.00  0.00    +0.000 A 
ATOM      9  C   UNL     1       5.345   4.531  16.696  0.00  0.00    +0.000 A 
ATOM     10  H   UNL     1       8.412   5.190  17.353  0.00  0.00    +0.000 HD
ENDROOT
BRANCH   1  11
ATOM     11  C   UNL     1       5.341   4.061  14.107  0.00  0.00    +0.000 C 
BRANCH  11  12
ATOM     12  C   UNL     1       6.372   3.835  12.995  0.00  0.00    +0.000 C 
BRANCH  12  13
ATOM     13  N   UNL     1       6.076   2.622  12.228  0.00  0.00    +0.000 NA
ATOM     14  H   UNL     1       6.595   1.841  12.626  0.00  0.00    +0.000 HD
ATOM     15  H   UNL     1       6.416   2.731  11.273  0.00  0.00    +0.000 HD
ENDBRANCH  12  13
ENDBRANCH  11  12
ENDBRANCH   1  11
BRANCH   7  16
ATOM     16  O   UNL     1       2.399   4.396  18.904  0.00  0.00    +0.000 OA
BRANCH  16  17
ATOM     17  C   UNL     1       1.946   4.863  20.111  0.00  0.00    +0.000 C 
ATOM     18  O   UNL     1       1.796   6.006  20.518  0.00  0.00    +0.000 OA
BRANCH  17  19
ATOM     19  C   UNL     1       1.605   3.685  21.038  0.00  0.00    +0.000 C 
ATOM     20  O   UNL     1       2.213   3.400  22.048  0.00  0.00    +0.000 OA
BRANCH  19  21
ATOM     21  O   UNL     1       0.531   3.011  20.562  0.00  0.00    +0.000 OA
ATOM     22  H   UNL     1       0.647   2.043  20.710  0.00  0.00    +0.000 HD
ENDBRANCH  19  21
ENDBRANCH  17  19
ENDBRANCH  16  17
ENDBRANCH   7  16
TORSDOF 7
ENDMDL
MODEL 7
REMARK VINA RESULT:      -6.7      1.378      1.958
REMARK  Name = 
REMARK  7 active torsions:
REMARK  status: ('A' for Active; 'I' for Inactive)
REMARK    1  A    between atoms: N_1  and  C_2
REMARK    2  A    between atoms: C_2  and  C_3
REMARK    3  A    between atoms: C_3  and  C_4
REMARK    4  A    between atoms: C_10  and  O_11
REMARK    5  A    between atoms: O_11  and  C_12
REMARK    6  A    between atoms: C_12  and  C_14
REMARK    7  A    between atoms: C_14  and  O_16
REMARK                            x       y       z     vdW  Elec       q    Type
REMARK                         _______ _______ _______ _____ _____    ______ ____
ROOT
ATOM      1  C   UNL     1       6.006   4.443  14.452  0.00  0.00    +0.000 A 
ATOM      2  C   UNL     1       7.195   5.123  14.271  0.00  0.00    +0.000 A 
ATOM      3  N   UNL     1       7.567   5.671  15.467  0.00  0.00    +0.000 N 
ATOM      4  C   UNL     1       6.642   5.366  16.437  0.00  0.00    +0.000 A 
ATOM      5  C   UNL     1       6.615   5.719  17.791  0.00  0.00    +0.000 A 
ATOM      6  C   UNL     1       5.541   5.268  18.564  0.00  0.00    +0.000 A 
ATOM      7  C   UNL     1       4.550   4.474  17.993  0.00  0.00    +0.000 A 
ATOM      8  C   UNL     1       4.573   4.145  16.630  0.00  0.00    +0.000 A 
ATOM      9  C   UNL     1       5.648   4.593  15.832  0.00  0.00    +0.000 A 
ATOM     10  H   UNL     1       8.402   6.219  15.623  0.00  0.00    +0.000 HD
ENDROOT
BRANCH   1  11
ATOM     11  C   UNL     1       5.262   3.689  13.391  0.00  0.00    +0.000 C 
BRANCH  11  12
ATOM     12  C   UNL     1       6.184   3.184  12.276  0.00  0.00    +0.000 C 
BRANCH  12  13
ATOM     13  N   UNL     1       5.574   2.076  11.536  0.00  0.00    +0.000 NA
ATOM     14  H   UNL     1       6.249   1.317  11.455  0.00  0.00    +0.000 HD
ATOM     15  H   UNL     1       5.369   2.375  10.583  0.00  0.00    +0.000 HD
ENDBRANCH  12  13
ENDBRANCH  11  12
ENDBRANCH   1  11
BRANCH   7  16
ATOM     16  O   UNL     1       3.427   4.006  18.712  0.00  0.00    +0.000 OA
BRANCH  16  17
ATOM     17  C   UNL     1       3.057   2.687  18.660  0.00  0.00    +0.000 C 
ATOM     18  O   UNL     1       2.047   2.160  18.215  0.00  0.00    +0.000 OA
BRANCH  17  19
ATOM     19  C   UNL     1       4.146   1.807  19.293  0.00  0.00    +0.000 C 
ATOM     20  O   UNL     1       4.706   2.046  20.343  0.00  0.00    +0.000 OA
BRANCH  19  21
ATOM     21  O   UNL     1       4.392   0.730  18.510  0.00  0.00    +0.000 OA
ATOM     22  H   UNL     1       4.283   0.972  17.560  0.00  0.00    +0.000 HD
ENDBRANCH  19  21
ENDBRANCH  17  19
ENDBRANCH  16  17
ENDBRANCH   7  16
TORSDOF 7
ENDMDL
MODEL 8
REMARK VINA RESULT:      -6.7      1.022      1.550
REMARK  Name = 
REMARK  7 active torsions:
REMARK  status: ('A' for Active; 'I' for Inactive)
REMARK    1  A    between atoms: N_1  and  C_2
REMARK    2  A    between atoms: C_2  and  C_3
REMARK    3  A    between atoms: C_3  and  C_4
REMARK    4  A    between atoms: C_10  and  O_11
REMARK    5  A    between atoms: O_11  and  C_12
REMARK    6  A    between atoms: C_12  and  C_14
REMARK    7  A    between atoms: C_14  and  O_16
REMARK                            x       y       z     vdW  Elec       q    Type
REMARK                         _______ _______ _______ _____ _____    ______ ____
ROOT
ATOM      1  C   UNL     1       5.948   4.342  14.499  0.00  0.00    +0.000 A 
ATOM      2  C   UNL     1       7.180   4.944  14.322  0.00  0.00    +0.000 A 
ATOM      3  N   UNL     1       7.581   5.469  15.519  0.00  0.00    +0.000 N 
ATOM      4  C   UNL     1       6.634   5.227  16.485  0.00  0.00    +0.000 A 
ATOM      5  C   UNL     1       6.623   5.585  17.838  0.00  0.00    +0.000 A 
ATOM      6  C   UNL     1       5.519   5.206  18.607  0.00  0.00    +0.000 A 
ATOM      7  C   UNL     1       4.481   4.476  18.034  0.00  0.00    +0.000 A 
ATOM      8  C   UNL     1       4.490   4.142  16.672  0.00  0.00    +0.000 A 
ATOM      9  C   UNL     1       5.595   4.518  15.878  0.00  0.00    +0.000 A 
ATOM     10  H   UNL     1       8.448   5.963  15.678  0.00  0.00    +0.000 HD
ENDROOT
BRANCH   1  11
ATOM     11  C   UNL     1       5.162   3.635  13.437  0.00  0.00    +0.000 C 
BRANCH  11  12
ATOM     12  C   UNL     1       5.999   3.341  12.187  0.00  0.00    +0.000 C 
BRANCH  12  13
ATOM     13  N   UNL     1       5.919   1.928  11.808  0.00  0.00    +0.000 NA
ATOM     14  H   UNL     1       5.534   1.395  12.587  0.00  0.00    +0.000 HD
ATOM     15  H   UNL     1       6.858   1.563  11.653  0.00  0.00    +0.000 HD
ENDBRANCH  12  13
ENDBRANCH  11  12
ENDBRANCH   1  11
BRANCH   7  16
ATOM     16  O   UNL     1       3.328   4.082  18.749  0.00  0.00    +0.000 OA
BRANCH  16  17
ATOM     17  C   UNL     1       2.799   2.827  18.598  0.00  0.00    +0.000 C 
ATOM     18  O   UNL     1       3.328   1.726  18.661  0.00  0.00    +0.000 OA
BRANCH  17  19
ATOM     19  C   UNL     1       1.295   2.921  18.295  0.00  0.00    +0.000 C 
ATOM     20  O   UNL     1       0.447   2.188  18.760  0.00  0.00    +0.000 OA
BRANCH  19  21
ATOM     21  O   UNL     1       1.054   3.936  17.432  0.00  0.00    +0.000 OA
ATOM     22  H   UNL     1       0.910   3.581  16.523  0.00  0.00    +0.000 HD
ENDBRANCH  19  21
ENDBRANCH  17  19
ENDBRANCH  16  17
ENDBRANCH   7  16
TORSDOF 7
ENDMDL
MODEL 9
REMARK VINA RESULT:      -6.7      3.977      5.988
REMARK  Name = 
REMARK  7 active torsions:
REMARK  status: ('A' for Active; 'I' for Inactive)
REMARK    1  A    between atoms: N_1  and  C_2
REMARK    2  A    between atoms: C_2  and  C_3
REMARK    3  A    between atoms: C_3  and  C_4
REMARK    4  A    between atoms: C_10  and  O_11
REMARK    5  A    between atoms: O_11  and  C_12
REMARK    6  A    between atoms: C_12  and  C_14
REMARK    7  A    between atoms: C_14  and  O_16
REMARK                            x       y       z     vdW  Elec       q    Type
REMARK                         _______ _______ _______ _____ _____    ______ ____
ROOT
ATOM      1  C   UNL     1       2.741   3.400  18.076  0.00  0.00    +0.000 A 
ATOM      2  C   UNL     1       1.674   3.846  18.832  0.00  0.00    +0.000 A 
ATOM      3  N   UNL     1       1.723   5.211  18.887  0.00  0.00    +0.000 N 
ATOM      4  C   UNL     1       2.806   5.676  18.179  0.00  0.00    +0.000 A 
ATOM      5  C   UNL     1       3.244   6.989  17.973  0.00  0.00    +0.000 A 
ATOM      6  C   UNL     1       4.393   7.182  17.201  0.00  0.00    +0.000 A 
ATOM      7  C   UNL     1       5.057   6.093  16.644  0.00  0.00    +0.000 A 
ATOM      8  C   UNL     1       4.624   4.779  16.876  0.00  0.00    +0.000 A 
ATOM      9  C   UNL     1       3.467   4.563  17.655  0.00  0.00    +0.000 A 
ATOM     10  H   UNL     1       1.060   5.800  19.372  0.00  0.00    +0.000 HD
ENDROOT
BRANCH   1  11
ATOM     11  C   UNL     1       3.048   1.967  17.760  0.00  0.00    +0.000 C 
BRANCH  11  12
ATOM     12  C   UNL     1       3.691   1.231  18.942  0.00  0.00    +0.000 C 
BRANCH  12  13
ATOM     13  N   UNL     1       4.838   1.971  19.473  0.00  0.00    +0.000 NA
ATOM     14  H   UNL     1       4.541   2.913  19.724  0.00  0.00    +0.000 HD
ATOM     15  H   UNL     1       5.542   2.080  18.743  0.00  0.00    +0.000 HD
ENDBRANCH  12  13
ENDBRANCH  11  12
ENDBRANCH   1  11
BRANCH   7  16
ATOM     16  O   UNL     1       6.235   6.217  15.875  0.00  0.00    +0.000 OA
BRANCH  16  17
ATOM     17  C   UNL     1       7.072   5.148  15.688  0.00  0.00    +0.000 C 
ATOM     18  O   UNL     1       7.772   4.534  16.481  0.00  0.00    +0.000 OA
BRANCH  17  19
ATOM     19  C   UNL     1       7.069   4.728  14.209  0.00  0.00    +0.000 C 
ATOM     20  O   UNL     1       7.590   5.356  13.310  0.00  0.00    +0.000 OA
BRANCH  19  21
ATOM     21  O   UNL     1       6.401   3.561  14.055  0.00  0.00    +0.000 OA
ATOM     22  H   UNL     1       6.999   2.801  14.250  0.00  0.00    +0.000 HD
ENDBRANCH  19  21
ENDBRANCH  17  19
ENDBRANCH  16  17
ENDBRANCH   7  16
TORSDOF 7
ENDMDL
