MODEL 1
REMARK VINA RESULT:      -7.9      0.000      0.000
REMARK  Name = 
REMARK  4 active torsions:
REMARK  status: ('A' for Active; 'I' for Inactive)
REMARK    1  A    between atoms: N_3  and  C_4
REMARK    2  A    between atoms: C_10  and  O_11
REMARK    3  A    between atoms: O_11  and  C_12
REMARK    4  A    between atoms: C_12  and  C_13
REMARK                            x       y       z     vdW  Elec       q    Type
REMARK                         _______ _______ _______ _____ _____    ______ ____
ROOT
ATOM      1  C   UNL     1       5.869   6.225  16.714  0.00  0.00    +0.000 C 
ATOM      2  C   UNL     1       7.175   6.927  17.109  0.00  0.00    +0.000 C 
ATOM      3  C   UNL     1       7.701   6.584  18.456  0.00  0.00    +0.000 C 
ATOM      4  C   UNL     1       7.249   5.573  19.202  0.00  0.00    +0.000 C 
ATOM      5  C   UNL     1       6.180   4.672  18.707  0.00  0.00    +0.000 C 
ATOM      6  O   UNL     1       5.733   3.840  19.498  0.00  0.00    +0.000 OA
ATOM      7  C   UNL     1       5.757   4.771  17.228  0.00  0.00    +0.000 C 
ENDROOT
BRANCH   1  10
ATOM      8  N   UNL     1       7.613   5.053  14.151  0.00  0.00    +0.000 NA
ATOM      9  N   UNL     1       6.764   5.617  14.663  0.00  0.00    +0.000 NA
ATOM     10  N   UNL     1       5.841   6.232  15.229  0.00  0.00    +0.000 NA
ENDBRANCH   1  10
BRANCH   7  11
ATOM     11  O   UNL     1       4.406   4.279  17.138  0.00  0.00    +0.000 OA
BRANCH  11  12
ATOM     12  C   UNL     1       3.410   5.190  17.589  0.00  0.00    +0.000 C 
BRANCH  12  13
ATOM     13  C   UNL     1       2.457   4.494  18.522  0.00  0.00    +0.000 A 
ATOM     14  C   UNL     1       1.779   3.338  18.100  0.00  0.00    +0.000 A 
ATOM     15  C   UNL     1       0.889   2.688  18.952  0.00  0.00    +0.000 A 
ATOM     16  C   UNL     1       0.679   3.181  20.237  0.00  0.00    +0.000 A 
ATOM     17  C   UNL     1       1.364   4.318  20.671  0.00  0.00    +0.000 A 
ATOM     18  C   UNL     1       2.248   4.974  19.818  0.00  0.00    +0.000 A 
ENDBRANCH  12  13
ENDBRANCH  11  12
ENDBRANCH   7  11
TORSDOF 4
ENDMDL
MODEL 2
REMARK VINA RESULT:      -7.8      0.128      1.144
REMARK  Name = 
REMARK  4 active torsions:
REMARK  status: ('A' for Active; 'I' for Inactive)
REMARK    1  A    between atoms: N_3  and  C_4
REMARK    2  A    between atoms: C_10  and  O_11
REMARK    3  A    between atoms: O_11  and  C_12
REMARK    4  A    between atoms: C_12  and  C_13
REMARK                            x       y       z     vdW  Elec       q    Type
REMARK                         _______ _______ _______ _____ _____    ______ ____
ROOT
ATOM      1  C   UNL     1       5.836   6.149  16.609  0.00  0.00    +0.000 C 
ATOM      2  C   UNL     1       7.120   6.900  16.988  0.00  0.00    +0.000 C 
ATOM      3  C   UNL     1       7.650   6.609  18.347  0.00  0.00    +0.000 C 
ATOM      4  C   UNL     1       7.223   5.606  19.119  0.00  0.00    +0.000 C 
ATOM      5  C   UNL     1       6.182   4.662  18.644  0.00  0.00    +0.000 C 
ATOM      6  O   UNL     1       5.756   3.840  19.456  0.00  0.00    +0.000 OA
ATOM      7  C   UNL     1       5.763   4.708  17.161  0.00  0.00    +0.000 C 
ENDROOT
BRANCH   1  10
ATOM      8  N   UNL     1       7.711   5.112  14.081  0.00  0.00    +0.000 NA
ATOM      9  N   UNL     1       6.803   5.592  14.575  0.00  0.00    +0.000 NA
ATOM     10  N   UNL     1       5.815   6.115  15.123  0.00  0.00    +0.000 NA
ENDBRANCH   1  10
BRANCH   7  11
ATOM     11  O   UNL     1       4.428   4.175  17.081  0.00  0.00    +0.000 OA
BRANCH  11  12
ATOM     12  C   UNL     1       3.401   5.081  17.468  0.00  0.00    +0.000 C 
BRANCH  12  13
ATOM     13  C   UNL     1       2.487   4.430  18.469  0.00  0.00    +0.000 A 
ATOM     14  C   UNL     1       2.400   4.939  19.776  0.00  0.00    +0.000 A 
ATOM     15  C   UNL     1       1.563   4.341  20.715  0.00  0.00    +0.000 A 
ATOM     16  C   UNL     1       0.794   3.239  20.351  0.00  0.00    +0.000 A 
ATOM     17  C   UNL     1       0.859   2.739  19.048  0.00  0.00    +0.000 A 
ATOM     18  C   UNL     1       1.703   3.330  18.111  0.00  0.00    +0.000 A 
ENDBRANCH  12  13
ENDBRANCH  11  12
ENDBRANCH   7  11
TORSDOF 4
ENDMDL
MODEL 3
REMARK VINA RESULT:      -7.5      2.520      3.253
REMARK  Name = 
REMARK  4 active torsions:
REMARK  status: ('A' for Active; 'I' for Inactive)
REMARK    1  A    between atoms: N_3  and  C_4
REMARK    2  A    between atoms: C_10  and  O_11
REMARK    3  A    between atoms: O_11  and  C_12
REMARK    4  A    between atoms: C_12  and  C_13
REMARK                            x       y       z     vdW  Elec       q    Type
REMARK                         _______ _______ _______ _____ _____    ______ ____
ROOT
ATOM      1  C   UNL     1       6.044   4.951  18.734  0.00  0.00    +0.000 C 
ATOM      2  C   UNL     1       7.349   5.620  19.184  0.00  0.00    +0.000 C 
ATOM      3  C   UNL     1       7.883   6.659  18.265  0.00  0.00    +0.000 C 
ATOM      4  C   UNL     1       7.198   7.179  17.243  0.00  0.00    +0.000 C 
ATOM      5  C   UNL     1       5.800   6.767  16.968  0.00  0.00    +0.000 C 
ATOM      6  O   UNL     1       5.278   7.199  15.940  0.00  0.00    +0.000 OA
ATOM      7  C   UNL     1       5.064   5.904  18.013  0.00  0.00    +0.000 C 
ENDROOT
BRANCH   1  10
ATOM      8  N   UNL     1       4.781   2.130  19.929  0.00  0.00    +0.000 NA
ATOM      9  N   UNL     1       5.081   3.229  19.954  0.00  0.00    +0.000 NA
ATOM     10  N   UNL     1       5.411   4.430  19.973  0.00  0.00    +0.000 NA
ENDBRANCH   1  10
BRANCH   7  11
ATOM     11  O   UNL     1       4.034   5.179  17.316  0.00  0.00    +0.000 OA
BRANCH  11  12
ATOM     12  C   UNL     1       2.706   5.560  17.655  0.00  0.00    +0.000 C 
BRANCH  12  13
ATOM     13  C   UNL     1       2.104   4.554  18.598  0.00  0.00    +0.000 A 
ATOM     14  C   UNL     1       1.866   4.903  19.939  0.00  0.00    +0.000 A 
ATOM     15  C   UNL     1       1.317   3.980  20.824  0.00  0.00    +0.000 A 
ATOM     16  C   UNL     1       0.986   2.704  20.374  0.00  0.00    +0.000 A 
ATOM     17  C   UNL     1       1.201   2.356  19.039  0.00  0.00    +0.000 A 
ATOM     18  C   UNL     1       1.759   3.275  18.154  0.00  0.00    +0.000 A 
ENDBRANCH  12  13
ENDBRANCH  11  12
ENDBRANCH   7  11
TORSDOF 4
ENDMDL
MODEL 4
REMARK VINA RESULT:      -7.5      2.507      3.036
REMARK  Name = 
REMARK  4 active torsions:
REMARK  status: ('A' for Active; 'I' for Inactive)
REMARK    1  A    between atoms: N_3  and  C_4
REMARK    2  A    between atoms: C_10  and  O_11
REMARK    3  A    between atoms: O_11  and  C_12
REMARK    4  A    between atoms: C_12  and  C_13
REMARK                            x       y       z     vdW  Elec       q    Type
REMARK                         _______ _______ _______ _____ _____    ______ ____
ROOT
ATOM      1  C   UNL     1       6.082   4.948  18.739  0.00  0.00    +0.000 C 
ATOM      2  C   UNL     1       7.383   5.613  19.208  0.00  0.00    +0.000 C 
ATOM      3  C   UNL     1       7.919   6.668  18.308  0.00  0.00    +0.000 C 
ATOM      4  C   UNL     1       7.239   7.202  17.290  0.00  0.00    +0.000 C 
ATOM      5  C   UNL     1       5.844   6.791  17.000  0.00  0.00    +0.000 C 
ATOM      6  O   UNL     1       5.327   7.239  15.976  0.00  0.00    +0.000 OA
ATOM      7  C   UNL     1       5.104   5.911  18.027  0.00  0.00    +0.000 C 
ENDROOT
BRANCH   1  10
ATOM      8  N   UNL     1       4.727   2.134  19.847  0.00  0.00    +0.000 NA
ATOM      9  N   UNL     1       5.068   3.220  19.908  0.00  0.00    +0.000 NA
ATOM     10  N   UNL     1       5.442   4.406  19.966  0.00  0.00    +0.000 NA
ENDBRANCH   1  10
BRANCH   7  11
ATOM     11  O   UNL     1       4.080   5.195  17.312  0.00  0.00    +0.000 OA
BRANCH  11  12
ATOM     12  C   UNL     1       2.750   5.601  17.612  0.00  0.00    +0.000 C 
BRANCH  12  13
ATOM     13  C   UNL     1       2.113   4.627  18.565  0.00  0.00    +0.000 A 
ATOM     14  C   UNL     1       1.718   3.357  18.112  0.00  0.00    +0.000 A 
ATOM     15  C   UNL     1       1.121   2.448  18.982  0.00  0.00    +0.000 A 
ATOM     16  C   UNL     1       0.927   2.796  20.317  0.00  0.00    +0.000 A 
ATOM     17  C   UNL     1       1.335   4.048  20.780  0.00  0.00    +0.000 A 
ATOM     18  C   UNL     1       1.924   4.962  19.909  0.00  0.00    +0.000 A 
ENDBRANCH  12  13
ENDBRANCH  11  12
ENDBRANCH   7  11
TORSDOF 4
ENDMDL
MODEL 5
REMARK VINA RESULT:      -7.5      1.266      1.586
REMARK  Name = 
REMARK  4 active torsions:
REMARK  status: ('A' for Active; 'I' for Inactive)
REMARK    1  A    between atoms: N_3  and  C_4
REMARK    2  A    between atoms: C_10  and  O_11
REMARK    3  A    between atoms: O_11  and  C_12
REMARK    4  A    between atoms: C_12  and  C_13
REMARK                            x       y       z     vdW  Elec       q    Type
REMARK                         _______ _______ _______ _____ _____    ______ ____
ROOT
ATOM      1  C   UNL     1       5.579   5.862  17.420  0.00  0.00    +0.000 C 
ATOM      2  C   UNL     1       6.451   6.915  16.722  0.00  0.00    +0.000 C 
ATOM      3  C   UNL     1       7.599   7.421  17.519  0.00  0.00    +0.000 C 
ATOM      4  C   UNL     1       8.026   6.865  18.655  0.00  0.00    +0.000 C 
ATOM      5  C   UNL     1       7.384   5.643  19.200  0.00  0.00    +0.000 C 
ATOM      6  O   UNL     1       7.754   5.261  20.310  0.00  0.00    +0.000 OA
ATOM      7  C   UNL     1       6.370   4.886  18.320  0.00  0.00    +0.000 C 
ENDROOT
BRANCH   1  10
ATOM      8  N   UNL     1       6.362   3.937  14.838  0.00  0.00    +0.000 NA
ATOM      9  N   UNL     1       5.665   4.494  15.549  0.00  0.00    +0.000 NA
ATOM     10  N   UNL     1       4.912   5.105  16.329  0.00  0.00    +0.000 NA
ENDBRANCH   1  10
BRANCH   7  11
ATOM     11  O   UNL     1       5.501   4.156  19.205  0.00  0.00    +0.000 OA
BRANCH  11  12
ATOM     12  C   UNL     1       4.400   4.905  19.708  0.00  0.00    +0.000 C 
BRANCH  12  13
ATOM     13  C   UNL     1       3.128   4.114  19.565  0.00  0.00    +0.000 A 
ATOM     14  C   UNL     1       3.054   3.066  18.631  0.00  0.00    +0.000 A 
ATOM     15  C   UNL     1       1.880   2.332  18.483  0.00  0.00    +0.000 A 
ATOM     16  C   UNL     1       0.775   2.628  19.277  0.00  0.00    +0.000 A 
ATOM     17  C   UNL     1       0.847   3.655  20.221  0.00  0.00    +0.000 A 
ATOM     18  C   UNL     1       2.017   4.397  20.364  0.00  0.00    +0.000 A 
ENDBRANCH  12  13
ENDBRANCH  11  12
ENDBRANCH   7  11
TORSDOF 4
ENDMDL
MODEL 6
REMARK VINA RESULT:      -7.5      1.267      1.883
REMARK  Name = 
REMARK  4 active torsions:
REMARK  status: ('A' for Active; 'I' for Inactive)
REMARK    1  A    between atoms: N_3  and  C_4
REMARK    2  A    between atoms: C_10  and  O_11
REMARK    3  A    between atoms: O_11  and  C_12
REMARK    4  A    between atoms: C_12  and  C_13
REMARK                            x       y       z     vdW  Elec       q    Type
REMARK                         _______ _______ _______ _____ _____    ______ ____
ROOT
ATOM      1  C   UNL     1       5.577   5.920  17.435  0.00  0.00    +0.000 C 
ATOM      2  C   UNL     1       6.468   6.959  16.741  0.00  0.00    +0.000 C 
ATOM      3  C   UNL     1       7.629   7.437  17.538  0.00  0.00    +0.000 C 
ATOM      4  C   UNL     1       8.047   6.865  18.670  0.00  0.00    +0.000 C 
ATOM      5  C   UNL     1       7.382   5.653  19.209  0.00  0.00    +0.000 C 
ATOM      6  O   UNL     1       7.747   5.257  20.317  0.00  0.00    +0.000 OA
ATOM      7  C   UNL     1       6.351   4.922  18.327  0.00  0.00    +0.000 C 
ENDROOT
BRANCH   1  10
ATOM      8  N   UNL     1       6.295   3.842  14.956  0.00  0.00    +0.000 NA
ATOM      9  N   UNL     1       5.621   4.482  15.616  0.00  0.00    +0.000 NA
ATOM     10  N   UNL     1       4.892   5.183  16.342  0.00  0.00    +0.000 NA
ENDBRANCH   1  10
BRANCH   7  11
ATOM     11  O   UNL     1       5.468   4.205  19.211  0.00  0.00    +0.000 OA
BRANCH  11  12
ATOM     12  C   UNL     1       4.337   4.947  19.653  0.00  0.00    +0.000 C 
BRANCH  12  13
ATOM     13  C   UNL     1       3.089   4.121  19.508  0.00  0.00    +0.000 A 
ATOM     14  C   UNL     1       1.986   4.361  20.346  0.00  0.00    +0.000 A 
ATOM     15  C   UNL     1       0.826   3.600  20.227  0.00  0.00    +0.000 A 
ATOM     16  C   UNL     1       0.753   2.600  19.261  0.00  0.00    +0.000 A 
ATOM     17  C   UNL     1       1.837   2.368  18.411  0.00  0.00    +0.000 A 
ATOM     18  C   UNL     1       3.001   3.122  18.534  0.00  0.00    +0.000 A 
ENDBRANCH  12  13
ENDBRANCH  11  12
ENDBRANCH   7  11
TORSDOF 4
ENDMDL
MODEL 7
REMARK VINA RESULT:      -7.3      1.177      1.678
REMARK  Name = 
REMARK  4 active torsions:
REMARK  status: ('A' for Active; 'I' for Inactive)
REMARK    1  A    between atoms: N_3  and  C_4
REMARK    2  A    between atoms: C_10  and  O_11
REMARK    3  A    between atoms: O_11  and  C_12
REMARK    4  A    between atoms: C_12  and  C_13
REMARK                            x       y       z     vdW  Elec       q    Type
REMARK                         _______ _______ _______ _____ _____    ______ ____
ROOT
ATOM      1  C   UNL     1       6.095   6.159  17.274  0.00  0.00    +0.000 C 
ATOM      2  C   UNL     1       6.983   7.348  16.882  0.00  0.00    +0.000 C 
ATOM      3  C   UNL     1       7.969   7.772  17.911  0.00  0.00    +0.000 C 
ATOM      4  C   UNL     1       8.268   7.061  19.001  0.00  0.00    +0.000 C 
ATOM      5  C   UNL     1       7.641   5.740  19.251  0.00  0.00    +0.000 C 
ATOM      6  O   UNL     1       7.876   5.202  20.333  0.00  0.00    +0.000 OA
ATOM      7  C   UNL     1       6.816   5.088  18.123  0.00  0.00    +0.000 C 
ENDROOT
BRANCH   1  10
ATOM      8  N   UNL     1       7.333   5.237  14.341  0.00  0.00    +0.000 NA
ATOM      9  N   UNL     1       6.522   5.388  15.128  0.00  0.00    +0.000 NA
ATOM     10  N   UNL     1       5.642   5.557  15.993  0.00  0.00    +0.000 NA
ENDBRANCH   1  10
BRANCH   7  11
ATOM     11  O   UNL     1       5.882   4.187  18.747  0.00  0.00    +0.000 OA
BRANCH  11  12
ATOM     12  C   UNL     1       4.800   4.823  19.418  0.00  0.00    +0.000 C 
BRANCH  12  13
ATOM     13  C   UNL     1       3.513   4.104  19.119  0.00  0.00    +0.000 A 
ATOM     14  C   UNL     1       2.690   4.543  18.068  0.00  0.00    +0.000 A 
ATOM     15  C   UNL     1       1.492   3.891  17.786  0.00  0.00    +0.000 A 
ATOM     16  C   UNL     1       1.113   2.785  18.543  0.00  0.00    +0.000 A 
ATOM     17  C   UNL     1       1.935   2.330  19.577  0.00  0.00    +0.000 A 
ATOM     18  C   UNL     1       3.128   2.987  19.866  0.00  0.00    +0.000 A 
ENDBRANCH  12  13
ENDBRANCH  11  12
ENDBRANCH   7  11
TORSDOF 4
ENDMDL
MODEL 8
REMARK VINA RESULT:      -7.3      1.183      1.707
REMARK  Name = 
REMARK  4 active torsions:
REMARK  status: ('A' for Active; 'I' for Inactive)
REMARK    1  A    between atoms: N_3  and  C_4
REMARK    2  A    between atoms: C_10  and  O_11
REMARK    3  A    between atoms: O_11  and  C_12
REMARK    4  A    between atoms: C_12  and  C_13
REMARK                            x       y       z     vdW  Elec       q    Type
REMARK                         _______ _______ _______ _____ _____    ______ ____
ROOT
ATOM      1  C   UNL     1       5.976   6.178  17.306  0.00  0.00    +0.000 C 
ATOM      2  C   UNL     1       6.860   7.356  16.873  0.00  0.00    +0.000 C 
ATOM      3  C   UNL     1       7.902   7.764  17.852  0.00  0.00    +0.000 C 
ATOM      4  C   UNL     1       8.245   7.047  18.925  0.00  0.00    +0.000 C 
ATOM      5  C   UNL     1       7.613   5.734  19.204  0.00  0.00    +0.000 C 
ATOM      6  O   UNL     1       7.894   5.190  20.273  0.00  0.00    +0.000 OA
ATOM      7  C   UNL     1       6.725   5.096  18.118  0.00  0.00    +0.000 C 
ENDROOT
BRANCH   1  10
ATOM      8  N   UNL     1       7.060   5.222  14.324  0.00  0.00    +0.000 NA
ATOM      9  N   UNL     1       6.289   5.394  15.146  0.00  0.00    +0.000 NA
ATOM     10  N   UNL     1       5.453   5.585  16.049  0.00  0.00    +0.000 NA
ENDBRANCH   1  10
BRANCH   7  11
ATOM     11  O   UNL     1       5.810   4.206  18.786  0.00  0.00    +0.000 OA
BRANCH  11  12
ATOM     12  C   UNL     1       4.723   4.851  19.438  0.00  0.00    +0.000 C 
BRANCH  12  13
ATOM     13  C   UNL     1       3.439   4.125  19.143  0.00  0.00    +0.000 A 
ATOM     14  C   UNL     1       3.078   2.998  19.903  0.00  0.00    +0.000 A 
ATOM     15  C   UNL     1       1.896   2.313  19.636  0.00  0.00    +0.000 A 
ATOM     16  C   UNL     1       1.056   2.755  18.617  0.00  0.00    +0.000 A 
ATOM     17  C   UNL     1       1.397   3.885  17.870  0.00  0.00    +0.000 A 
ATOM     18  C   UNL     1       2.584   4.567  18.130  0.00  0.00    +0.000 A 
ENDBRANCH  12  13
ENDBRANCH  11  12
ENDBRANCH   7  11
TORSDOF 4
ENDMDL
MODEL 9
REMARK VINA RESULT:      -7.2      3.540      6.040
REMARK  Name = 
REMARK  4 active torsions:
REMARK  status: ('A' for Active; 'I' for Inactive)
REMARK    1  A    between atoms: N_3  and  C_4
REMARK    2  A    between atoms: C_10  and  O_11
REMARK    3  A    between atoms: O_11  and  C_12
REMARK    4  A    between atoms: C_12  and  C_13
REMARK                            x       y       z     vdW  Elec       q    Type
REMARK                         _______ _______ _______ _____ _____    ______ ____
ROOT
ATOM      1  C   UNL     1       3.709   2.924  20.021  0.00  0.00    +0.000 C 
ATOM      2  C   UNL     1       3.121   2.682  21.418  0.00  0.00    +0.000 C 
ATOM      3  C   UNL     1       1.642   2.796  21.515  0.00  0.00    +0.000 C 
ATOM      4  C   UNL     1       0.824   2.860  20.462  0.00  0.00    +0.000 C 
ATOM      5  C   UNL     1       1.350   2.783  19.076  0.00  0.00    +0.000 C 
ATOM      6  O   UNL     1       0.549   2.970  18.160  0.00  0.00    +0.000 OA
ATOM      7  C   UNL     1       2.827   2.395  18.867  0.00  0.00    +0.000 C 
ENDROOT
BRANCH   1  10
ATOM      8  N   UNL     1       5.523   0.931  21.949  0.00  0.00    +0.000 NA
ATOM      9  N   UNL     1       5.286   1.547  21.020  0.00  0.00    +0.000 NA
ATOM     10  N   UNL     1       5.019   2.223  20.008  0.00  0.00    +0.000 NA
ENDBRANCH   1  10
BRANCH   7  11
ATOM     11  O   UNL     1       3.233   2.938  17.596  0.00  0.00    +0.000 OA
BRANCH  11  12
ATOM     12  C   UNL     1       3.531   4.329  17.612  0.00  0.00    +0.000 C 
BRANCH  12  13
ATOM     13  C   UNL     1       4.830   4.587  16.899  0.00  0.00    +0.000 A 
ATOM     14  C   UNL     1       5.096   3.956  15.671  0.00  0.00    +0.000 A 
ATOM     15  C   UNL     1       6.297   4.180  15.004  0.00  0.00    +0.000 A 
ATOM     16  C   UNL     1       7.238   5.049  15.551  0.00  0.00    +0.000 A 
ATOM     17  C   UNL     1       6.974   5.696  16.760  0.00  0.00    +0.000 A 
ATOM     18  C   UNL     1       5.777   5.465  17.433  0.00  0.00    +0.000 A 
ENDBRANCH  12  13
ENDBRANCH  11  12
ENDBRANCH   7  11
TORSDOF 4
ENDMDL
