MODEL 1
REMARK VINA RESULT:      -7.1      0.000      0.000
REMARK  Name = 
REMARK  8 active torsions:
REMARK  status: ('A' for Active; 'I' for Inactive)
REMARK    1  A    between atoms: C_1  and  O_2
REMARK    2  A    between atoms: O_2  and  C_3
REMARK    3  A    between atoms: C_5  and  C_6
REMARK    4  A    between atoms: C_16  and  C_17
REMARK    5  A    between atoms: C_17  and  C_18
REMARK    6  A    between atoms: N_20  and  C_21
REMARK    7  A    between atoms: N_20  and  C_22
REMARK    8  A    between atoms: C_30  and  N_31
REMARK                            x       y       z     vdW  Elec       q    Type
REMARK                         _______ _______ _______ _____ _____    ______ ____
ROOT
ATOM      1  C   UNL     1       1.077   9.739  19.653  0.00  0.00    +0.000 A 
ATOM      2  C   UNL     1      -0.277   9.896  19.309  0.00  0.00    +0.000 A 
ATOM      3  C   UNL     1      -0.839  11.168  19.255  0.00  0.00    +0.000 A 
ATOM      4  C   UNL     1      -0.058  12.248  19.659  0.00  0.00    +0.000 A 
ATOM      5  C   UNL     1       1.060  12.060  20.449  0.00  0.00    +0.000 A 
ATOM      6  C   UNL     1       1.696  10.822  20.319  0.00  0.00    +0.000 A 
ATOM      7  N   UNL     1       1.744  13.196  20.963  0.00  0.00    +0.000 N 
ATOM      8  C   UNL     1       2.666  13.849  20.101  0.00  0.00    +0.000 A 
ATOM      9  C   UNL     1       3.736  14.513  20.690  0.00  0.00    +0.000 A 
ATOM     10  C   UNL     1       4.828  14.864  19.914  0.00  0.00    +0.000 A 
ATOM     11  C   UNL     1       4.875  14.550  18.544  0.00  0.00    +0.000 A 
ATOM     12  C   UNL     1       3.699  14.070  17.927  0.00  0.00    +0.000 A 
ATOM     13  C   UNL     1       2.560  13.776  18.698  0.00  0.00    +0.000 A 
ATOM     14  N   UNL     1       1.326  13.443  18.059  0.00  0.00    +0.000 N 
ATOM     15  C   UNL     1       0.073  13.358  18.674  0.00  0.00    +0.000 C 
ATOM     16  O   UNL     1      -0.934  13.938  18.286  0.00  0.00    +0.000 OA
ATOM     17  H   UNL     1       1.059  13.901  21.247  0.00  0.00    +0.000 HD
ATOM     18  H   UNL     1       1.341  13.243  17.068  0.00  0.00    +0.000 HD
ENDROOT
BRANCH   1  21
ATOM     19  C   UNL     1       2.593   6.219  19.652  0.00  0.00    +0.000 A 
ATOM     20  C   UNL     1       1.922   7.386  20.058  0.00  0.00    +0.000 A 
ATOM     21  C   UNL     1       1.824   8.522  19.232  0.00  0.00    +0.000 A 
ATOM     22  C   UNL     1       2.504   8.478  17.996  0.00  0.00    +0.000 A 
ATOM     23  C   UNL     1       3.133   7.318  17.545  0.00  0.00    +0.000 A 
ATOM     24  C   UNL     1       3.137   6.189  18.355  0.00  0.00    +0.000 A 
BRANCH  24  25
ATOM     25  N   UNL     1       3.684   4.971  17.829  0.00  0.00    +0.000 N 
ATOM     26  O   UNL     1       2.933   4.135  17.333  0.00  0.00    +0.000 OA
ATOM     27  O   UNL     1       4.909   4.807  17.987  0.00  0.00    +0.000 OA
ENDBRANCH  24  25
BRANCH  19  29
ATOM     28  C   UNL     1       1.423   4.435  20.693  0.00  0.00    +0.000 C 
ATOM     29  O   UNL     1       2.661   5.098  20.437  0.00  0.00    +0.000 OA
ENDBRANCH  19  29
ENDBRANCH   1  21
BRANCH  11  30
ATOM     30  C   UNL     1       6.185  14.857  17.838  0.00  0.00    +0.000 C 
BRANCH  30  31
ATOM     31  C   UNL     1       7.270  13.790  17.756  0.00  0.00    +0.000 C 
ATOM     32  O   UNL     1       7.198  12.839  16.978  0.00  0.00    +0.000 OA
ATOM     33  N   UNL     1       8.365  13.960  18.616  0.00  0.00    +0.000 N 
ATOM     34  C   UNL     1       8.551  15.066  19.553  0.00  0.00    +0.000 C 
ATOM     35  C   UNL     1       9.443  12.984  18.594  0.00  0.00    +0.000 C 
ENDBRANCH  30  31
ENDBRANCH  11  30
TORSDOF 5
ENDMDL
MODEL 2
REMARK VINA RESULT:      -7.0      2.939      4.429
REMARK  Name = 
REMARK  8 active torsions:
REMARK  status: ('A' for Active; 'I' for Inactive)
REMARK    1  A    between atoms: C_1  and  O_2
REMARK    2  A    between atoms: O_2  and  C_3
REMARK    3  A    between atoms: C_5  and  C_6
REMARK    4  A    between atoms: C_16  and  C_17
REMARK    5  A    between atoms: C_17  and  C_18
REMARK    6  A    between atoms: N_20  and  C_21
REMARK    7  A    between atoms: N_20  and  C_22
REMARK    8  A    between atoms: C_30  and  N_31
REMARK                            x       y       z     vdW  Elec       q    Type
REMARK                         _______ _______ _______ _____ _____    ______ ____
ROOT
ATOM      1  C   UNL     1       1.237  14.152  19.978  0.00  0.00    +0.000 A 
ATOM      2  C   UNL     1       0.363  14.956  19.228  0.00  0.00    +0.000 A 
ATOM      3  C   UNL     1       0.845  16.082  18.566  0.00  0.00    +0.000 A 
ATOM      4  C   UNL     1       2.176  16.439  18.766  0.00  0.00    +0.000 A 
ATOM      5  C   UNL     1       2.882  15.969  19.857  0.00  0.00    +0.000 A 
ATOM      6  C   UNL     1       2.467  14.734  20.363  0.00  0.00    +0.000 A 
ATOM      7  N   UNL     1       4.188  16.473  20.106  0.00  0.00    +0.000 N 
ATOM      8  C   UNL     1       5.261  15.901  19.372  0.00  0.00    +0.000 A 
ATOM      9  C   UNL     1       6.518  15.900  19.967  0.00  0.00    +0.000 A 
ATOM     10  C   UNL     1       7.506  15.070  19.466  0.00  0.00    +0.000 A 
ATOM     11  C   UNL     1       7.255  14.221  18.372  0.00  0.00    +0.000 A 
ATOM     12  C   UNL     1       6.050  14.392  17.656  0.00  0.00    +0.000 A 
ATOM     13  C   UNL     1       5.067  15.285  18.120  0.00  0.00    +0.000 A 
ATOM     14  N   UNL     1       3.922  15.574  17.316  0.00  0.00    +0.000 N 
ATOM     15  C   UNL     1       2.996  16.599  17.533  0.00  0.00    +0.000 C 
ATOM     16  O   UNL     1       2.662  17.425  16.692  0.00  0.00    +0.000 OA
ATOM     17  H   UNL     1       4.203  17.478  19.911  0.00  0.00    +0.000 HD
ATOM     18  H   UNL     1       3.745  14.990  16.509  0.00  0.00    +0.000 HD
ENDROOT
BRANCH   1  21
ATOM     19  C   UNL     1       0.726  10.382  19.521  0.00  0.00    +0.000 A 
ATOM     20  C   UNL     1       1.004  11.734  19.260  0.00  0.00    +0.000 A 
ATOM     21  C   UNL     1       0.902  12.727  20.252  0.00  0.00    +0.000 A 
ATOM     22  C   UNL     1       0.424  12.324  21.518  0.00  0.00    +0.000 A 
ATOM     23  C   UNL     1       0.190  10.984  21.821  0.00  0.00    +0.000 A 
ATOM     24  C   UNL     1       0.382  10.021  20.836  0.00  0.00    +0.000 A 
BRANCH  24  25
ATOM     25  N   UNL     1       0.251   8.639  21.197  0.00  0.00    +0.000 N 
ATOM     26  O   UNL     1      -0.835   8.214  21.584  0.00  0.00    +0.000 OA
ATOM     27  O   UNL     1       1.298   7.963  21.167  0.00  0.00    +0.000 OA
ENDBRANCH  24  25
BRANCH  19  29
ATOM     28  C   UNL     1       2.112   9.354  17.890  0.00  0.00    +0.000 C 
ATOM     29  O   UNL     1       0.857   9.405  18.568  0.00  0.00    +0.000 OA
ENDBRANCH  19  29
ENDBRANCH   1  21
BRANCH  11  30
ATOM     30  C   UNL     1       8.372  13.256  18.011  0.00  0.00    +0.000 C 
BRANCH  30  31
ATOM     31  C   UNL     1       9.825  13.666  18.223  0.00  0.00    +0.000 C 
ATOM     32  O   UNL     1      10.372  14.525  17.532  0.00  0.00    +0.000 OA
ATOM     33  N   UNL     1      10.501  13.013  19.264  0.00  0.00    +0.000 N 
ATOM     34  C   UNL     1       9.931  12.003  20.152  0.00  0.00    +0.000 C 
ATOM     35  C   UNL     1      11.890  13.353  19.530  0.00  0.00    +0.000 C 
ENDBRANCH  30  31
ENDBRANCH  11  30
TORSDOF 5
ENDMDL
MODEL 3
REMARK VINA RESULT:      -7.0      5.017      7.622
REMARK  Name = 
REMARK  8 active torsions:
REMARK  status: ('A' for Active; 'I' for Inactive)
REMARK    1  A    between atoms: C_1  and  O_2
REMARK    2  A    between atoms: O_2  and  C_3
REMARK    3  A    between atoms: C_5  and  C_6
REMARK    4  A    between atoms: C_16  and  C_17
REMARK    5  A    between atoms: C_17  and  C_18
REMARK    6  A    between atoms: N_20  and  C_21
REMARK    7  A    between atoms: N_20  and  C_22
REMARK    8  A    between atoms: C_30  and  N_31
REMARK                            x       y       z     vdW  Elec       q    Type
REMARK                         _______ _______ _______ _____ _____    ______ ____
ROOT
ATOM      1  C   UNL     1       8.938  10.527  18.130  0.00  0.00    +0.000 A 
ATOM      2  C   UNL     1      10.201  10.808  17.582  0.00  0.00    +0.000 A 
ATOM      3  C   UNL     1      10.887  11.956  17.965  0.00  0.00    +0.000 A 
ATOM      4  C   UNL     1      10.238  12.858  18.805  0.00  0.00    +0.000 A 
ATOM      5  C   UNL     1       8.862  12.843  18.936  0.00  0.00    +0.000 A 
ATOM      6  C   UNL     1       8.245  11.607  18.723  0.00  0.00    +0.000 A 
ATOM      7  N   UNL     1       8.227  13.871  19.685  0.00  0.00    +0.000 N 
ATOM      8  C   UNL     1       8.200  13.729  21.099  0.00  0.00    +0.000 A 
ATOM      9  C   UNL     1       7.141  14.317  21.782  0.00  0.00    +0.000 A 
ATOM     10  C   UNL     1       6.876  13.932  23.085  0.00  0.00    +0.000 A 
ATOM     11  C   UNL     1       7.655  12.948  23.723  0.00  0.00    +0.000 A 
ATOM     12  C   UNL     1       8.843  12.523  23.092  0.00  0.00    +0.000 A 
ATOM     13  C   UNL     1       9.157  12.964  21.793  0.00  0.00    +0.000 A 
ATOM     14  N   UNL     1      10.429  12.661  21.218  0.00  0.00    +0.000 N 
ATOM     15  C   UNL     1      10.965  13.219  20.054  0.00  0.00    +0.000 C 
ATOM     16  O   UNL     1      12.072  13.738  19.975  0.00  0.00    +0.000 OA
ATOM     17  H   UNL     1       8.688  14.764  19.489  0.00  0.00    +0.000 HD
ATOM     18  H   UNL     1      11.012  11.977  21.683  0.00  0.00    +0.000 HD
ENDROOT
BRANCH   1  21
ATOM     19  C   UNL     1       7.006   7.339  17.237  0.00  0.00    +0.000 A 
ATOM     20  C   UNL     1       7.467   8.667  17.238  0.00  0.00    +0.000 A 
ATOM     21  C   UNL     1       8.425   9.129  18.161  0.00  0.00    +0.000 A 
ATOM     22  C   UNL     1       8.852   8.220  19.153  0.00  0.00    +0.000 A 
ATOM     23  C   UNL     1       8.453   6.884  19.146  0.00  0.00    +0.000 A 
ATOM     24  C   UNL     1       7.568   6.445  18.167  0.00  0.00    +0.000 A 
BRANCH  24  25
ATOM     25  N   UNL     1       7.260   5.046  18.102  0.00  0.00    +0.000 N 
ATOM     26  O   UNL     1       6.417   4.576  18.862  0.00  0.00    +0.000 OA
ATOM     27  O   UNL     1       7.946   4.369  17.311  0.00  0.00    +0.000 OA
ENDBRANCH  24  25
BRANCH  19  29
ATOM     28  C   UNL     1       4.735   6.863  16.735  0.00  0.00    +0.000 C 
ATOM     29  O   UNL     1       6.101   6.875  16.320  0.00  0.00    +0.000 OA
ENDBRANCH  19  29
ENDBRANCH   1  21
BRANCH  11  30
ATOM     30  C   UNL     1       7.174  12.510  25.097  0.00  0.00    +0.000 C 
BRANCH  30  31
ATOM     31  C   UNL     1       5.970  11.584  25.218  0.00  0.00    +0.000 C 
ATOM     32  O   UNL     1       5.364  11.162  24.232  0.00  0.00    +0.000 OA
ATOM     33  N   UNL     1       5.596  11.230  26.522  0.00  0.00    +0.000 N 
ATOM     34  C   UNL     1       6.266  11.657  27.748  0.00  0.00    +0.000 C 
ATOM     35  C   UNL     1       4.458  10.346  26.719  0.00  0.00    +0.000 C 
ENDBRANCH  30  31
ENDBRANCH  11  30
TORSDOF 5
ENDMDL
MODEL 4
REMARK VINA RESULT:      -7.0      5.807      8.844
REMARK  Name = 
REMARK  8 active torsions:
REMARK  status: ('A' for Active; 'I' for Inactive)
REMARK    1  A    between atoms: C_1  and  O_2
REMARK    2  A    between atoms: O_2  and  C_3
REMARK    3  A    between atoms: C_5  and  C_6
REMARK    4  A    between atoms: C_16  and  C_17
REMARK    5  A    between atoms: C_17  and  C_18
REMARK    6  A    between atoms: N_20  and  C_21
REMARK    7  A    between atoms: N_20  and  C_22
REMARK    8  A    between atoms: C_30  and  N_31
REMARK                            x       y       z     vdW  Elec       q    Type
REMARK                         _______ _______ _______ _____ _____    ______ ____
ROOT
ATOM      1  C   UNL     1      -4.521  11.640  18.167  0.00  0.00    +0.000 A 
ATOM      2  C   UNL     1      -5.111  12.037  16.955  0.00  0.00    +0.000 A 
ATOM      3  C   UNL     1      -6.236  12.856  16.962  0.00  0.00    +0.000 A 
ATOM      4  C   UNL     1      -6.813  13.165  18.191  0.00  0.00    +0.000 A 
ATOM      5  C   UNL     1      -6.556  12.396  19.311  0.00  0.00    +0.000 A 
ATOM      6  C   UNL     1      -5.319  11.744  19.329  0.00  0.00    +0.000 A 
ATOM      7  N   UNL     1      -7.278  12.653  20.508  0.00  0.00    +0.000 N 
ATOM      8  C   UNL     1      -6.819  13.715  21.333  0.00  0.00    +0.000 A 
ATOM      9  C   UNL     1      -7.067  13.620  22.698  0.00  0.00    +0.000 A 
ATOM     10  C   UNL     1      -6.362  14.428  23.574  0.00  0.00    +0.000 A 
ATOM     11  C   UNL     1      -5.393  15.334  23.105  0.00  0.00    +0.000 A 
ATOM     12  C   UNL     1      -5.310  15.564  21.715  0.00  0.00    +0.000 A 
ATOM     13  C   UNL     1      -6.075  14.795  20.819  0.00  0.00    +0.000 A 
ATOM     14  N   UNL     1      -6.111  15.132  19.431  0.00  0.00    +0.000 N 
ATOM     15  C   UNL     1      -6.993  14.616  18.477  0.00  0.00    +0.000 C 
ATOM     16  O   UNL     1      -7.681  15.295  17.725  0.00  0.00    +0.000 OA
ATOM     17  H   UNL     1      -8.252  12.863  20.275  0.00  0.00    +0.000 HD
ATOM     18  H   UNL     1      -5.438  15.804  19.086  0.00  0.00    +0.000 HD
ENDROOT
BRANCH   1  21
ATOM     19  C   UNL     1      -0.810  11.472  19.108  0.00  0.00    +0.000 A 
ATOM     20  C   UNL     1      -2.153  11.878  19.034  0.00  0.00    +0.000 A 
ATOM     21  C   UNL     1      -3.091  11.229  18.209  0.00  0.00    +0.000 A 
ATOM     22  C   UNL     1      -2.609  10.191  17.382  0.00  0.00    +0.000 A 
ATOM     23  C   UNL     1      -1.295   9.732  17.471  0.00  0.00    +0.000 A 
ATOM     24  C   UNL     1      -0.420  10.346  18.360  0.00  0.00    +0.000 A 
BRANCH  24  25
ATOM     25  N   UNL     1       0.892   9.787  18.524  0.00  0.00    +0.000 N 
ATOM     26  O   UNL     1       1.713   9.895  17.617  0.00  0.00    +0.000 OA
ATOM     27  O   UNL     1       1.086   9.144  19.574  0.00  0.00    +0.000 OA
ENDBRANCH  24  25
BRANCH  19  29
ATOM     28  C   UNL     1      -0.202  12.042  21.331  0.00  0.00    +0.000 C 
ATOM     29  O   UNL     1       0.099  12.077  19.936  0.00  0.00    +0.000 OA
ENDBRANCH  19  29
ENDBRANCH   1  21
BRANCH  11  30
ATOM     30  C   UNL     1      -4.587  16.055  24.174  0.00  0.00    +0.000 C 
BRANCH  30  31
ATOM     31  C   UNL     1      -3.371  15.377  24.791  0.00  0.00    +0.000 C 
ATOM     32  O   UNL     1      -3.202  14.159  24.741  0.00  0.00    +0.000 OA
ATOM     33  N   UNL     1      -2.444  16.227  25.413  0.00  0.00    +0.000 N 
ATOM     34  C   UNL     1      -2.544  17.682  25.500  0.00  0.00    +0.000 C 
ATOM     35  C   UNL     1      -1.254  15.654  26.023  0.00  0.00    +0.000 C 
ENDBRANCH  30  31
ENDBRANCH  11  30
TORSDOF 5
ENDMDL
MODEL 5
REMARK VINA RESULT:      -6.9      1.335      1.653
REMARK  Name = 
REMARK  8 active torsions:
REMARK  status: ('A' for Active; 'I' for Inactive)
REMARK    1  A    between atoms: C_1  and  O_2
REMARK    2  A    between atoms: O_2  and  C_3
REMARK    3  A    between atoms: C_5  and  C_6
REMARK    4  A    between atoms: C_16  and  C_17
REMARK    5  A    between atoms: C_17  and  C_18
REMARK    6  A    between atoms: N_20  and  C_21
REMARK    7  A    between atoms: N_20  and  C_22
REMARK    8  A    between atoms: C_30  and  N_31
REMARK                            x       y       z     vdW  Elec       q    Type
REMARK                         _______ _______ _______ _____ _____    ______ ____
ROOT
ATOM      1  C   UNL     1       0.887  10.075  19.632  0.00  0.00    +0.000 A 
ATOM      2  C   UNL     1      -0.400  10.313  19.122  0.00  0.00    +0.000 A 
ATOM      3  C   UNL     1      -0.912  11.607  19.096  0.00  0.00    +0.000 A 
ATOM      4  C   UNL     1      -0.163  12.619  19.691  0.00  0.00    +0.000 A 
ATOM      5  C   UNL     1       0.829  12.325  20.609  0.00  0.00    +0.000 A 
ATOM      6  C   UNL     1       1.439  11.076  20.464  0.00  0.00    +0.000 A 
ATOM      7  N   UNL     1       1.468  13.388  21.303  0.00  0.00    +0.000 N 
ATOM      8  C   UNL     1       2.519  14.068  20.632  0.00  0.00    +0.000 A 
ATOM      9  C   UNL     1       3.516  14.640  21.414  0.00  0.00    +0.000 A 
ATOM     10  C   UNL     1       4.715  15.006  20.827  0.00  0.00    +0.000 A 
ATOM     11  C   UNL     1       4.944  14.798  19.454  0.00  0.00    +0.000 A 
ATOM     12  C   UNL     1       3.852  14.416  18.645  0.00  0.00    +0.000 A 
ATOM     13  C   UNL     1       2.607  14.109  19.226  0.00  0.00    +0.000 A 
ATOM     14  N   UNL     1       1.465  13.878  18.400  0.00  0.00    +0.000 N 
ATOM     15  C   UNL     1       0.137  13.797  18.829  0.00  0.00    +0.000 C 
ATOM     16  O   UNL     1      -0.788  14.445  18.356  0.00  0.00    +0.000 OA
ATOM     17  H   UNL     1       0.770  14.096  21.548  0.00  0.00    +0.000 HD
ATOM     18  H   UNL     1       1.612  13.755  17.407  0.00  0.00    +0.000 HD
ENDROOT
BRANCH   1  21
ATOM     19  C   UNL     1       2.464   6.582  19.660  0.00  0.00    +0.000 A 
ATOM     20  C   UNL     1       1.779   7.742  20.059  0.00  0.00    +0.000 A 
ATOM     21  C   UNL     1       1.648   8.864  19.219  0.00  0.00    +0.000 A 
ATOM     22  C   UNL     1       2.310   8.814  17.972  0.00  0.00    +0.000 A 
ATOM     23  C   UNL     1       2.953   7.658  17.529  0.00  0.00    +0.000 A 
ATOM     24  C   UNL     1       2.989   6.541  18.356  0.00  0.00    +0.000 A 
BRANCH  24  25
ATOM     25  N   UNL     1       3.549   5.326  17.839  0.00  0.00    +0.000 N 
ATOM     26  O   UNL     1       4.769   5.193  17.795  0.00  0.00    +0.000 OA
ATOM     27  O   UNL     1       2.736   4.497  17.384  0.00  0.00    +0.000 OA
ENDBRANCH  24  25
BRANCH  19  29
ATOM     28  C   UNL     1       1.369   4.712  20.631  0.00  0.00    +0.000 C 
ATOM     29  O   UNL     1       2.564   5.474  20.460  0.00  0.00    +0.000 OA
ENDBRANCH  19  29
ENDBRANCH   1  21
BRANCH  11  30
ATOM     30  C   UNL     1       6.348  15.105  18.961  0.00  0.00    +0.000 C 
BRANCH  30  31
ATOM     31  C   UNL     1       6.779  16.552  18.756  0.00  0.00    +0.000 C 
ATOM     32  O   UNL     1       5.974  17.483  18.754  0.00  0.00    +0.000 OA
ATOM     33  N   UNL     1       8.155  16.763  18.581  0.00  0.00    +0.000 N 
ATOM     34  C   UNL     1       9.187  15.729  18.595  0.00  0.00    +0.000 C 
ATOM     35  C   UNL     1       8.645  18.119  18.384  0.00  0.00    +0.000 C 
ENDBRANCH  30  31
ENDBRANCH  11  30
TORSDOF 5
ENDMDL
MODEL 6
REMARK VINA RESULT:      -6.8      0.884      1.165
REMARK  Name = 
REMARK  8 active torsions:
REMARK  status: ('A' for Active; 'I' for Inactive)
REMARK    1  A    between atoms: C_1  and  O_2
REMARK    2  A    between atoms: O_2  and  C_3
REMARK    3  A    between atoms: C_5  and  C_6
REMARK    4  A    between atoms: C_16  and  C_17
REMARK    5  A    between atoms: C_17  and  C_18
REMARK    6  A    between atoms: N_20  and  C_21
REMARK    7  A    between atoms: N_20  and  C_22
REMARK    8  A    between atoms: C_30  and  N_31
REMARK                            x       y       z     vdW  Elec       q    Type
REMARK                         _______ _______ _______ _____ _____    ______ ____
ROOT
ATOM      1  C   UNL     1       1.126   9.399  19.533  0.00  0.00    +0.000 A 
ATOM      2  C   UNL     1      -0.225   9.444  19.150  0.00  0.00    +0.000 A 
ATOM      3  C   UNL     1      -0.900  10.660  19.116  0.00  0.00    +0.000 A 
ATOM      4  C   UNL     1      -0.234  11.792  19.578  0.00  0.00    +0.000 A 
ATOM      5  C   UNL     1       0.872  11.681  20.399  0.00  0.00    +0.000 A 
ATOM      6  C   UNL     1       1.623  10.511  20.252  0.00  0.00    +0.000 A 
ATOM      7  N   UNL     1       1.432  12.857  20.969  0.00  0.00    +0.000 N 
ATOM      8  C   UNL     1       2.315  13.619  20.159  0.00  0.00    +0.000 A 
ATOM      9  C   UNL     1       3.301  14.358  20.803  0.00  0.00    +0.000 A 
ATOM     10  C   UNL     1       4.379  14.833  20.075  0.00  0.00    +0.000 A 
ATOM     11  C   UNL     1       4.497  14.570  18.698  0.00  0.00    +0.000 A 
ATOM     12  C   UNL     1       3.390  14.006  18.028  0.00  0.00    +0.000 A 
ATOM     13  C   UNL     1       2.259  13.584  18.752  0.00  0.00    +0.000 A 
ATOM     14  N   UNL     1       1.081  13.161  18.062  0.00  0.00    +0.000 N 
ATOM     15  C   UNL     1      -0.176  12.942  18.632  0.00  0.00    +0.000 C 
ATOM     16  O   UNL     1      -1.221  13.440  18.229  0.00  0.00    +0.000 OA
ATOM     17  H   UNL     1       0.676  13.486  21.252  0.00  0.00    +0.000 HD
ATOM     18  H   UNL     1       1.144  12.997  17.066  0.00  0.00    +0.000 HD
ENDROOT
BRANCH   1  21
ATOM     19  C   UNL     1       2.963   6.036  19.478  0.00  0.00    +0.000 A 
ATOM     20  C   UNL     1       2.176   7.123  19.897  0.00  0.00    +0.000 A 
ATOM     21  C   UNL     1       1.995   8.269  19.101  0.00  0.00    +0.000 A 
ATOM     22  C   UNL     1       2.709   8.327  17.885  0.00  0.00    +0.000 A 
ATOM     23  C   UNL     1       3.456   7.245  17.420  0.00  0.00    +0.000 A 
ATOM     24  C   UNL     1       3.543   6.096  18.198  0.00  0.00    +0.000 A 
BRANCH  24  25
ATOM     25  N   UNL     1       4.215   4.951  17.654  0.00  0.00    +0.000 N 
ATOM     26  O   UNL     1       5.434   4.856  17.766  0.00  0.00    +0.000 OA
ATOM     27  O   UNL     1       3.504   4.149  17.018  0.00  0.00    +0.000 OA
ENDBRANCH  24  25
BRANCH  19  29
ATOM     28  C   UNL     1       2.050   4.601  21.135  0.00  0.00    +0.000 C 
ATOM     29  O   UNL     1       3.114   4.902  20.233  0.00  0.00    +0.000 OA
ENDBRANCH  19  29
ENDBRANCH   1  21
BRANCH  11  30
ATOM     30  C   UNL     1       5.794  15.019  18.046  0.00  0.00    +0.000 C 
BRANCH  30  31
ATOM     31  C   UNL     1       7.117  14.814  18.772  0.00  0.00    +0.000 C 
ATOM     32  O   UNL     1       7.467  15.525  19.714  0.00  0.00    +0.000 OA
ATOM     33  N   UNL     1       7.914  13.755  18.310  0.00  0.00    +0.000 N 
ATOM     34  C   UNL     1       7.574  12.843  17.221  0.00  0.00    +0.000 C 
ATOM     35  C   UNL     1       9.190  13.493  18.956  0.00  0.00    +0.000 C 
ENDBRANCH  30  31
ENDBRANCH  11  30
TORSDOF 5
ENDMDL
MODEL 7
REMARK VINA RESULT:      -6.8      3.596      7.213
REMARK  Name = 
REMARK  8 active torsions:
REMARK  status: ('A' for Active; 'I' for Inactive)
REMARK    1  A    between atoms: C_1  and  O_2
REMARK    2  A    between atoms: O_2  and  C_3
REMARK    3  A    between atoms: C_5  and  C_6
REMARK    4  A    between atoms: C_16  and  C_17
REMARK    5  A    between atoms: C_17  and  C_18
REMARK    6  A    between atoms: N_20  and  C_21
REMARK    7  A    between atoms: N_20  and  C_22
REMARK    8  A    between atoms: C_30  and  N_31
REMARK                            x       y       z     vdW  Elec       q    Type
REMARK                         _______ _______ _______ _____ _____    ______ ____
ROOT
ATOM      1  C   UNL     1       1.341  10.458  18.525  0.00  0.00    +0.000 A 
ATOM      2  C   UNL     1       2.409  11.299  18.172  0.00  0.00    +0.000 A 
ATOM      3  C   UNL     1       2.255  12.682  18.223  0.00  0.00    +0.000 A 
ATOM      4  C   UNL     1       0.992  13.189  18.518  0.00  0.00    +0.000 A 
ATOM      5  C   UNL     1      -0.140  12.408  18.372  0.00  0.00    +0.000 A 
ATOM      6  C   UNL     1       0.049  11.031  18.521  0.00  0.00    +0.000 A 
ATOM      7  N   UNL     1      -1.419  13.006  18.540  0.00  0.00    +0.000 N 
ATOM      8  C   UNL     1      -1.898  13.163  19.868  0.00  0.00    +0.000 A 
ATOM      9  C   UNL     1      -3.276  13.155  20.058  0.00  0.00    +0.000 A 
ATOM     10  C   UNL     1      -3.784  12.960  21.331  0.00  0.00    +0.000 A 
ATOM     11  C   UNL     1      -2.929  12.761  22.431  0.00  0.00    +0.000 A 
ATOM     12  C   UNL     1      -1.547  12.983  22.253  0.00  0.00    +0.000 A 
ATOM     13  C   UNL     1      -1.028  13.251  20.972  0.00  0.00    +0.000 A 
ATOM     14  N   UNL     1       0.340  13.631  20.816  0.00  0.00    +0.000 N 
ATOM     15  C   UNL     1       0.928  14.147  19.657  0.00  0.00    +0.000 C 
ATOM     16  O   UNL     1       1.583  15.181  19.610  0.00  0.00    +0.000 OA
ATOM     17  H   UNL     1      -1.412  13.939  18.118  0.00  0.00    +0.000 HD
ATOM     18  H   UNL     1       0.959  13.520  21.608  0.00  0.00    +0.000 HD
ENDROOT
BRANCH   1  21
ATOM     19  C   UNL     1       2.432   6.784  18.547  0.00  0.00    +0.000 A 
ATOM     20  C   UNL     1       2.151   8.092  18.118  0.00  0.00    +0.000 A 
ATOM     21  C   UNL     1       1.599   9.062  18.976  0.00  0.00    +0.000 A 
ATOM     22  C   UNL     1       1.255   8.646  20.280  0.00  0.00    +0.000 A 
ATOM     23  C   UNL     1       1.569   7.371  20.750  0.00  0.00    +0.000 A 
ATOM     24  C   UNL     1       2.191   6.467  19.896  0.00  0.00    +0.000 A 
BRANCH  24  25
ATOM     25  N   UNL     1       2.613   5.203  20.429  0.00  0.00    +0.000 N 
ATOM     26  O   UNL     1       1.820   4.523  21.074  0.00  0.00    +0.000 OA
ATOM     27  O   UNL     1       3.814   4.912  20.263  0.00  0.00    +0.000 OA
ENDBRANCH  24  25
BRANCH  19  29
ATOM     28  C   UNL     1       4.248   6.207  17.131  0.00  0.00    +0.000 C 
ATOM     29  O   UNL     1       3.003   5.846  17.727  0.00  0.00    +0.000 OA
ENDBRANCH  19  29
ENDBRANCH   1  21
BRANCH  11  30
ATOM     30  C   UNL     1      -3.610  12.413  23.745  0.00  0.00    +0.000 C 
BRANCH  30  31
ATOM     31  C   UNL     1      -5.070  12.787  23.964  0.00  0.00    +0.000 C 
ATOM     32  O   UNL     1      -5.953  11.939  24.098  0.00  0.00    +0.000 OA
ATOM     33  N   UNL     1      -5.351  14.161  24.015  0.00  0.00    +0.000 N 
ATOM     34  C   UNL     1      -4.372  15.238  23.893  0.00  0.00    +0.000 C 
ATOM     35  C   UNL     1      -6.723  14.597  24.225  0.00  0.00    +0.000 C 
ENDBRANCH  30  31
ENDBRANCH  11  30
TORSDOF 5
ENDMDL
MODEL 8
REMARK VINA RESULT:      -6.7      2.811      8.249
REMARK  Name = 
REMARK  8 active torsions:
REMARK  status: ('A' for Active; 'I' for Inactive)
REMARK    1  A    between atoms: C_1  and  O_2
REMARK    2  A    between atoms: O_2  and  C_3
REMARK    3  A    between atoms: C_5  and  C_6
REMARK    4  A    between atoms: C_16  and  C_17
REMARK    5  A    between atoms: C_17  and  C_18
REMARK    6  A    between atoms: N_20  and  C_21
REMARK    7  A    between atoms: N_20  and  C_22
REMARK    8  A    between atoms: C_30  and  N_31
REMARK                            x       y       z     vdW  Elec       q    Type
REMARK                         _______ _______ _______ _____ _____    ______ ____
ROOT
ATOM      1  C   UNL     1       0.942  14.294  20.678  0.00  0.00    +0.000 A 
ATOM      2  C   UNL     1       0.339  14.379  21.944  0.00  0.00    +0.000 A 
ATOM      3  C   UNL     1      -0.496  13.358  22.389  0.00  0.00    +0.000 A 
ATOM      4  C   UNL     1      -0.797  12.326  21.504  0.00  0.00    +0.000 A 
ATOM      5  C   UNL     1      -0.627  12.485  20.142  0.00  0.00    +0.000 A 
ATOM      6  C   UNL     1       0.364  13.392  19.755  0.00  0.00    +0.000 A 
ATOM      7  N   UNL     1      -1.085  11.465  19.263  0.00  0.00    +0.000 N 
ATOM      8  C   UNL     1      -0.240  10.339  19.072  0.00  0.00    +0.000 A 
ATOM      9  C   UNL     1      -0.325   9.672  17.855  0.00  0.00    +0.000 A 
ATOM     10  C   UNL     1       0.688   8.805  17.483  0.00  0.00    +0.000 A 
ATOM     11  C   UNL     1       1.805   8.597  18.312  0.00  0.00    +0.000 A 
ATOM     12  C   UNL     1       1.770   9.115  19.624  0.00  0.00    +0.000 A 
ATOM     13  C   UNL     1       0.708   9.942  20.035  0.00  0.00    +0.000 A 
ATOM     14  N   UNL     1       0.591  10.335  21.404  0.00  0.00    +0.000 N 
ATOM     15  C   UNL     1      -0.517  10.948  21.996  0.00  0.00    +0.000 C 
ATOM     16  O   UNL     1      -1.074  10.548  23.011  0.00  0.00    +0.000 OA
ATOM     17  H   UNL     1      -1.980  11.105  19.604  0.00  0.00    +0.000 HD
ATOM     18  H   UNL     1       1.376  10.165  22.018  0.00  0.00    +0.000 HD
ENDROOT
BRANCH   1  21
ATOM     19  C   UNL     1       3.531  16.497  18.909  0.00  0.00    +0.000 A 
ATOM     20  C   UNL     1       2.373  15.747  19.175  0.00  0.00    +0.000 A 
ATOM     21  C   UNL     1       2.189  15.053  20.386  0.00  0.00    +0.000 A 
ATOM     22  C   UNL     1       3.262  15.067  21.304  0.00  0.00    +0.000 A 
ATOM     23  C   UNL     1       4.401  15.843  21.090  0.00  0.00    +0.000 A 
ATOM     24  C   UNL     1       4.508  16.582  19.917  0.00  0.00    +0.000 A 
BRANCH  24  25
ATOM     25  N   UNL     1       5.629  17.465  19.766  0.00  0.00    +0.000 N 
ATOM     26  O   UNL     1       5.535  18.631  20.140  0.00  0.00    +0.000 OA
ATOM     27  O   UNL     1       6.622  16.995  19.176  0.00  0.00    +0.000 OA
ENDBRANCH  24  25
BRANCH  19  29
ATOM     28  C   UNL     1       2.610  17.167  16.826  0.00  0.00    +0.000 C 
ATOM     29  O   UNL     1       3.700  17.204  17.747  0.00  0.00    +0.000 OA
ENDBRANCH  19  29
ENDBRANCH   1  21
BRANCH  11  30
ATOM     30  C   UNL     1       2.914   7.737  17.727  0.00  0.00    +0.000 C 
BRANCH  30  31
ATOM     31  C   UNL     1       3.053   6.283  18.159  0.00  0.00    +0.000 C 
ATOM     32  O   UNL     1       2.215   5.726  18.869  0.00  0.00    +0.000 OA
ATOM     33  N   UNL     1       4.189   5.609  17.689  0.00  0.00    +0.000 N 
ATOM     34  C   UNL     1       5.221   6.175  16.823  0.00  0.00    +0.000 C 
ATOM     35  C   UNL     1       4.390   4.215  18.055  0.00  0.00    +0.000 C 
ENDBRANCH  30  31
ENDBRANCH  11  30
TORSDOF 5
ENDMDL
MODEL 9
REMARK VINA RESULT:      -6.7      2.973      8.070
REMARK  Name = 
REMARK  8 active torsions:
REMARK  status: ('A' for Active; 'I' for Inactive)
REMARK    1  A    between atoms: C_1  and  O_2
REMARK    2  A    between atoms: O_2  and  C_3
REMARK    3  A    between atoms: C_5  and  C_6
REMARK    4  A    between atoms: C_16  and  C_17
REMARK    5  A    between atoms: C_17  and  C_18
REMARK    6  A    between atoms: N_20  and  C_21
REMARK    7  A    between atoms: N_20  and  C_22
REMARK    8  A    between atoms: C_30  and  N_31
REMARK                            x       y       z     vdW  Elec       q    Type
REMARK                         _______ _______ _______ _____ _____    ______ ____
ROOT
ATOM      1  C   UNL     1       0.510  14.631  21.134  0.00  0.00    +0.000 A 
ATOM      2  C   UNL     1      -0.071  14.649  22.413  0.00  0.00    +0.000 A 
ATOM      3  C   UNL     1      -0.878  13.594  22.828  0.00  0.00    +0.000 A 
ATOM      4  C   UNL     1      -1.176  12.596  21.904  0.00  0.00    +0.000 A 
ATOM      5  C   UNL     1      -1.034  12.818  20.547  0.00  0.00    +0.000 A 
ATOM      6  C   UNL     1      -0.068  13.760  20.183  0.00  0.00    +0.000 A 
ATOM      7  N   UNL     1      -1.489  11.829  19.632  0.00  0.00    +0.000 N 
ATOM      8  C   UNL     1      -0.627  10.729  19.376  0.00  0.00    +0.000 A 
ATOM      9  C   UNL     1      -0.723  10.115  18.132  0.00  0.00    +0.000 A 
ATOM     10  C   UNL     1       0.299   9.285  17.704  0.00  0.00    +0.000 A 
ATOM     11  C   UNL     1       1.435   9.062  18.503  0.00  0.00    +0.000 A 
ATOM     12  C   UNL     1       1.415   9.521  19.837  0.00  0.00    +0.000 A 
ATOM     13  C   UNL     1       0.346  10.309  20.303  0.00  0.00    +0.000 A 
ATOM     14  N   UNL     1       0.247  10.639  21.690  0.00  0.00    +0.000 N 
ATOM     15  C   UNL     1      -0.861  11.203  22.328  0.00  0.00    +0.000 C 
ATOM     16  O   UNL     1      -1.392  10.748  23.335  0.00  0.00    +0.000 OA
ATOM     17  H   UNL     1      -2.372  11.437  19.973  0.00  0.00    +0.000 HD
ATOM     18  H   UNL     1       1.047  10.457  22.282  0.00  0.00    +0.000 HD
ENDROOT
BRANCH   1  21
ATOM     19  C   UNL     1       4.078  16.015  21.348  0.00  0.00    +0.000 A 
ATOM     20  C   UNL     1       2.904  15.295  21.630  0.00  0.00    +0.000 A 
ATOM     21  C   UNL     1       1.738  15.427  20.854  0.00  0.00    +0.000 A 
ATOM     22  C   UNL     1       1.761  16.383  19.815  0.00  0.00    +0.000 A 
ATOM     23  C   UNL     1       2.925  17.073  19.479  0.00  0.00    +0.000 A 
ATOM     24  C   UNL     1       4.082  16.853  20.218  0.00  0.00    +0.000 A 
BRANCH  24  25
ATOM     25  N   UNL     1       5.298  17.480  19.787  0.00  0.00    +0.000 N 
ATOM     26  O   UNL     1       5.583  18.600  20.204  0.00  0.00    +0.000 OA
ATOM     27  O   UNL     1       5.962  16.860  18.933  0.00  0.00    +0.000 OA
ENDBRANCH  24  25
BRANCH  19  29
ATOM     28  C   UNL     1       5.898  14.611  21.944  0.00  0.00    +0.000 C 
ATOM     29  O   UNL     1       5.228  15.864  22.078  0.00  0.00    +0.000 OA
ENDBRANCH  19  29
ENDBRANCH   1  21
BRANCH  11  30
ATOM     30  C   UNL     1       2.549   8.251  17.860  0.00  0.00    +0.000 C 
BRANCH  30  31
ATOM     31  C   UNL     1       2.895   6.873  18.409  0.00  0.00    +0.000 C 
ATOM     32  O   UNL     1       2.244   6.342  19.309  0.00  0.00    +0.000 OA
ATOM     33  N   UNL     1       3.997   6.236  17.820  0.00  0.00    +0.000 N 
ATOM     34  C   UNL     1       4.812   6.773  16.732  0.00  0.00    +0.000 C 
ATOM     35  C   UNL     1       4.388   4.916  18.287  0.00  0.00    +0.000 C 
ENDBRANCH  30  31
ENDBRANCH  11  30
TORSDOF 5
ENDMDL
