MODEL 1
REMARK VINA RESULT:      -9.7      0.000      0.000
REMARK  Name = 
REMARK  10 active torsions:
REMARK  status: ('A' for Active; 'I' for Inactive)
REMARK    1  A    between atoms: C_1  and  C_2
REMARK    2  A    between atoms: C_2  and  C_3
REMARK    3  A    between atoms: C_2  and  C_4
REMARK    4  A    between atoms: C_2  and  C_5
REMARK    5  A    between atoms: C_7  and  N_8
REMARK    6  A    between atoms: N_11  and  C_12
REMARK    7  A    between atoms: C_15  and  O_16
REMARK    8  A    between atoms: O_16  and  C_17
REMARK    9  A    between atoms: N_29  and  C_30
REMARK   10  A    between atoms: C_30  and  C_31
REMARK                            x       y       z     vdW  Elec       q    Type
REMARK                         _______ _______ _______ _____ _____    ______ ____
ROOT
ATOM      1  N   UNL     1       0.745   9.685  22.281  0.00  0.00    +0.000 N 
ATOM      2  C   UNL     1       0.998   8.897  21.070  0.00  0.00    +0.000 C 
ATOM      3  O   UNL     1       0.543   9.342  20.025  0.00  0.00    +0.000 OA
ATOM      4  N   UNL     1       1.750   7.733  21.225  0.00  0.00    +0.000 N 
ATOM      5  H   UNL     1       1.029   9.356  23.190  0.00  0.00    +0.000 HD
ATOM      6  H   UNL     1       2.119   7.529  22.142  0.00  0.00    +0.000 HD
ENDROOT
BRANCH   4   7
ATOM      7  C   UNL     1       2.071   6.747  20.179  0.00  0.00    +0.000 A 
ATOM      8  C   UNL     1       1.967   5.368  20.351  0.00  0.00    +0.000 A 
ATOM      9  C   UNL     1       2.353   4.435  19.322  0.00  0.00    +0.000 A 
ATOM     10  C   UNL     1       2.838   4.810  18.072  0.00  0.00    +0.000 A 
ATOM     11  C   UNL     1       2.937   6.201  17.877  0.00  0.00    +0.000 A 
ATOM     12  C   UNL     1       2.555   7.151  18.904  0.00  0.00    +0.000 A 
BRANCH  10  13
ATOM     13  O   UNL     1       3.541   3.840  17.323  0.00  0.00    +0.000 OA
BRANCH  13  14
ATOM     14  C   UNL     1       4.842   4.023  16.859  0.00  0.00    +0.000 A 
ATOM     15  C   UNL     1       5.121   4.135  15.496  0.00  0.00    +0.000 A 
ATOM     16  C   UNL     1       6.467   4.268  15.095  0.00  0.00    +0.000 A 
ATOM     17  N   UNL     1       7.416   4.896  15.816  0.00  0.00    +0.000 NA
ATOM     18  C   UNL     1       7.070   5.003  17.089  0.00  0.00    +0.000 A 
ATOM     19  N   UNL     1       7.904   5.476  18.082  0.00  0.00    +0.000 N 
ATOM     20  C   UNL     1       7.308   5.231  19.315  0.00  0.00    +0.000 A 
ATOM     21  O   UNL     1       7.807   5.428  20.409  0.00  0.00    +0.000 OA
ATOM     22  N   UNL     1       6.036   4.675  19.051  0.00  0.00    +0.000 N 
ATOM     23  C   UNL     1       5.880   4.518  17.666  0.00  0.00    +0.000 A 
ATOM     24  H   UNL     1       8.837   5.829  17.931  0.00  0.00    +0.000 HD
ATOM     25  H   UNL     1       5.417   4.357  19.774  0.00  0.00    +0.000 HD
ENDBRANCH  13  14
ENDBRANCH  10  13
ENDBRANCH   4   7
BRANCH   1  28
ATOM     26  C   UNL     1      -1.852  12.236  22.573  0.00  0.00    +0.000 A 
ATOM     27  C   UNL     1      -1.278  10.985  22.983  0.00  0.00    +0.000 A 
ATOM     28  C   UNL     1      -0.107  10.823  22.253  0.00  0.00    +0.000 A 
ATOM     29  N   UNL     1       0.042  12.030  21.591  0.00  0.00    +0.000 N 
ATOM     30  N   UNL     1      -1.023  12.857  21.729  0.00  0.00    +0.000 NA
BRANCH  26  32
ATOM     31  C   UNL     1      -3.059  14.385  23.188  0.00  0.00    +0.000 C 
ATOM     32  C   UNL     1      -3.209  12.871  22.943  0.00  0.00    +0.000 C 
ATOM     33  C   UNL     1      -3.774  12.218  24.222  0.00  0.00    +0.000 C 
ATOM     34  C   UNL     1      -4.290  12.696  21.842  0.00  0.00    +0.000 C 
ENDBRANCH  26  32
BRANCH  29  35
ATOM     35  C   UNL     1       1.149  12.492  20.766  0.00  0.00    +0.000 C 
BRANCH  35  36
ATOM     36  C   UNL     1       1.159  13.997  20.570  0.00  0.00    +0.000 A 
ATOM     37  C   UNL     1       1.690  14.827  21.574  0.00  0.00    +0.000 A 
ATOM     38  C   UNL     1       1.729  16.218  21.410  0.00  0.00    +0.000 A 
ATOM     39  C   UNL     1       1.247  16.787  20.225  0.00  0.00    +0.000 A 
ATOM     40  C   UNL     1       0.746  15.981  19.217  0.00  0.00    +0.000 A 
ATOM     41  C   UNL     1       0.701  14.586  19.383  0.00  0.00    +0.000 A 
ENDBRANCH  35  36
ENDBRANCH  29  35
ENDBRANCH   1  28
TORSDOF 7
ENDMDL
MODEL 2
REMARK VINA RESULT:      -9.6      0.555      1.208
REMARK  Name = 
REMARK  10 active torsions:
REMARK  status: ('A' for Active; 'I' for Inactive)
REMARK    1  A    between atoms: C_1  and  C_2
REMARK    2  A    between atoms: C_2  and  C_3
REMARK    3  A    between atoms: C_2  and  C_4
REMARK    4  A    between atoms: C_2  and  C_5
REMARK    5  A    between atoms: C_7  and  N_8
REMARK    6  A    between atoms: N_11  and  C_12
REMARK    7  A    between atoms: C_15  and  O_16
REMARK    8  A    between atoms: O_16  and  C_17
REMARK    9  A    between atoms: N_29  and  C_30
REMARK   10  A    between atoms: C_30  and  C_31
REMARK                            x       y       z     vdW  Elec       q    Type
REMARK                         _______ _______ _______ _____ _____    ______ ____
ROOT
ATOM      1  N   UNL     1       0.701  10.227  21.988  0.00  0.00    +0.000 N 
ATOM      2  C   UNL     1       0.873   9.310  20.855  0.00  0.00    +0.000 C 
ATOM      3  O   UNL     1       0.225   9.561  19.847  0.00  0.00    +0.000 OA
ATOM      4  N   UNL     1       1.773   8.260  21.030  0.00  0.00    +0.000 N 
ATOM      5  H   UNL     1       1.147  10.055  22.875  0.00  0.00    +0.000 HD
ATOM      6  H   UNL     1       2.289   8.221  21.896  0.00  0.00    +0.000 HD
ENDROOT
BRANCH   4   7
ATOM      7  C   UNL     1       2.059   7.178  20.073  0.00  0.00    +0.000 A 
ATOM      8  C   UNL     1       1.896   5.824  20.357  0.00  0.00    +0.000 A 
ATOM      9  C   UNL     1       2.248   4.793  19.413  0.00  0.00    +0.000 A 
ATOM     10  C   UNL     1       2.758   5.042  18.141  0.00  0.00    +0.000 A 
ATOM     11  C   UNL     1       2.917   6.407  17.833  0.00  0.00    +0.000 A 
ATOM     12  C   UNL     1       2.569   7.454  18.774  0.00  0.00    +0.000 A 
BRANCH  10  13
ATOM     13  O   UNL     1       3.424   3.985  17.482  0.00  0.00    +0.000 OA
BRANCH  13  14
ATOM     14  C   UNL     1       4.726   4.083  16.996  0.00  0.00    +0.000 A 
ATOM     15  C   UNL     1       4.990   4.129  15.626  0.00  0.00    +0.000 A 
ATOM     16  C   UNL     1       6.335   4.177  15.203  0.00  0.00    +0.000 A 
ATOM     17  N   UNL     1       7.325   4.782  15.887  0.00  0.00    +0.000 NA
ATOM     18  C   UNL     1       7.004   4.955  17.159  0.00  0.00    +0.000 A 
ATOM     19  N   UNL     1       7.875   5.422  18.122  0.00  0.00    +0.000 N 
ATOM     20  C   UNL     1       7.286   5.255  19.371  0.00  0.00    +0.000 A 
ATOM     21  O   UNL     1       7.810   5.469  20.450  0.00  0.00    +0.000 OA
ATOM     22  N   UNL     1       5.983   4.755  19.145  0.00  0.00    +0.000 N 
ATOM     23  C   UNL     1       5.799   4.554  17.769  0.00  0.00    +0.000 A 
ATOM     24  H   UNL     1       8.823   5.720  17.946  0.00  0.00    +0.000 HD
ATOM     25  H   UNL     1       5.360   4.498  19.887  0.00  0.00    +0.000 HD
ENDBRANCH  13  14
ENDBRANCH  10  13
ENDBRANCH   4   7
BRANCH   1  28
ATOM     26  C   UNL     1      -2.131  12.505  22.348  0.00  0.00    +0.000 A 
ATOM     27  C   UNL     1      -1.375  11.370  22.799  0.00  0.00    +0.000 A 
ATOM     28  C   UNL     1      -0.276  11.260  21.956  0.00  0.00    +0.000 A 
ATOM     29  N   UNL     1      -0.340  12.401  21.175  0.00  0.00    +0.000 N 
ATOM     30  N   UNL     1      -1.474  13.120  21.360  0.00  0.00    +0.000 NA
BRANCH  26  32
ATOM     31  C   UNL     1      -3.911  12.388  24.157  0.00  0.00    +0.000 C 
ATOM     32  C   UNL     1      -3.507  13.027  22.814  0.00  0.00    +0.000 C 
ATOM     33  C   UNL     1      -4.588  12.695  21.764  0.00  0.00    +0.000 C 
ATOM     34  C   UNL     1      -3.543  14.566  23.015  0.00  0.00    +0.000 C 
ENDBRANCH  26  32
BRANCH  29  35
ATOM     35  C   UNL     1       0.613  12.891  20.189  0.00  0.00    +0.000 C 
BRANCH  35  36
ATOM     36  C   UNL     1       0.504  14.384  19.945  0.00  0.00    +0.000 A 
ATOM     37  C   UNL     1      -0.156  14.856  18.795  0.00  0.00    +0.000 A 
ATOM     38  C   UNL     1      -0.288  16.230  18.555  0.00  0.00    +0.000 A 
ATOM     39  C   UNL     1       0.232  17.145  19.479  0.00  0.00    +0.000 A 
ATOM     40  C   UNL     1       0.860  16.696  20.627  0.00  0.00    +0.000 A 
ATOM     41  C   UNL     1       0.999  15.318  20.867  0.00  0.00    +0.000 A 
ENDBRANCH  35  36
ENDBRANCH  29  35
ENDBRANCH   1  28
TORSDOF 7
ENDMDL
MODEL 3
REMARK VINA RESULT:      -9.6      1.185      1.622
REMARK  Name = 
REMARK  10 active torsions:
REMARK  status: ('A' for Active; 'I' for Inactive)
REMARK    1  A    between atoms: C_1  and  C_2
REMARK    2  A    between atoms: C_2  and  C_3
REMARK    3  A    between atoms: C_2  and  C_4
REMARK    4  A    between atoms: C_2  and  C_5
REMARK    5  A    between atoms: C_7  and  N_8
REMARK    6  A    between atoms: N_11  and  C_12
REMARK    7  A    between atoms: C_15  and  O_16
REMARK    8  A    between atoms: O_16  and  C_17
REMARK    9  A    between atoms: N_29  and  C_30
REMARK   10  A    between atoms: C_30  and  C_31
REMARK                            x       y       z     vdW  Elec       q    Type
REMARK                         _______ _______ _______ _____ _____    ______ ____
ROOT
ATOM      1  N   UNL     1       0.260  10.955  21.511  0.00  0.00    +0.000 N 
ATOM      2  C   UNL     1       0.351   9.759  20.665  0.00  0.00    +0.000 C 
ATOM      3  O   UNL     1      -0.612   9.526  19.946  0.00  0.00    +0.000 OA
ATOM      4  N   UNL     1       1.531   9.021  20.747  0.00  0.00    +0.000 N 
ATOM      5  H   UNL     1       0.980  11.181  22.178  0.00  0.00    +0.000 HD
ATOM      6  H   UNL     1       2.269   9.376  21.336  0.00  0.00    +0.000 HD
ENDROOT
BRANCH   4   7
ATOM      7  C   UNL     1       1.826   7.754  20.056  0.00  0.00    +0.000 A 
ATOM      8  C   UNL     1       1.680   6.497  20.639  0.00  0.00    +0.000 A 
ATOM      9  C   UNL     1       2.041   5.284  19.950  0.00  0.00    +0.000 A 
ATOM     10  C   UNL     1       2.543   5.246  18.652  0.00  0.00    +0.000 A 
ATOM     11  C   UNL     1       2.685   6.507  18.043  0.00  0.00    +0.000 A 
ATOM     12  C   UNL     1       2.328   7.736  18.725  0.00  0.00    +0.000 A 
BRANCH  10  13
ATOM     13  O   UNL     1       3.219   4.074  18.244  0.00  0.00    +0.000 OA
BRANCH  13  14
ATOM     14  C   UNL     1       4.451   4.086  17.594  0.00  0.00    +0.000 A 
ATOM     15  C   UNL     1       4.541   4.048  16.201  0.00  0.00    +0.000 A 
ATOM     16  C   UNL     1       5.822   4.011  15.612  0.00  0.00    +0.000 A 
ATOM     17  N   UNL     1       6.914   4.604  16.131  0.00  0.00    +0.000 NA
ATOM     18  C   UNL     1       6.764   4.859  17.421  0.00  0.00    +0.000 A 
ATOM     19  N   UNL     1       7.769   5.334  18.239  0.00  0.00    +0.000 N 
ATOM     20  C   UNL     1       7.337   5.261  19.559  0.00  0.00    +0.000 A 
ATOM     21  O   UNL     1       8.003   5.506  20.550  0.00  0.00    +0.000 OA
ATOM     22  N   UNL     1       5.997   4.811  19.527  0.00  0.00    +0.000 N 
ATOM     23  C   UNL     1       5.632   4.547  18.199  0.00  0.00    +0.000 A 
ATOM     24  H   UNL     1       8.697   5.579  17.929  0.00  0.00    +0.000 HD
ATOM     25  H   UNL     1       5.464   4.622  20.355  0.00  0.00    +0.000 HD
ENDBRANCH  13  14
ENDBRANCH  10  13
ENDBRANCH   4   7
BRANCH   1  28
ATOM     26  C   UNL     1      -2.836  12.701  22.349  0.00  0.00    +0.000 A 
ATOM     27  C   UNL     1      -1.648  12.002  22.752  0.00  0.00    +0.000 A 
ATOM     28  C   UNL     1      -0.943  11.709  21.591  0.00  0.00    +0.000 A 
ATOM     29  N   UNL     1      -1.640  12.379  20.600  0.00  0.00    +0.000 N 
ATOM     30  N   UNL     1      -2.803  12.924  21.032  0.00  0.00    +0.000 NA
BRANCH  26  32
ATOM     31  C   UNL     1      -4.155  12.338  24.489  0.00  0.00    +0.000 C 
ATOM     32  C   UNL     1      -4.049  13.156  23.187  0.00  0.00    +0.000 C 
ATOM     33  C   UNL     1      -5.353  12.974  22.383  0.00  0.00    +0.000 C 
ATOM     34  C   UNL     1      -3.987  14.652  23.597  0.00  0.00    +0.000 C 
ENDBRANCH  26  32
BRANCH  29  35
ATOM     35  C   UNL     1      -1.307  12.535  19.190  0.00  0.00    +0.000 C 
BRANCH  35  36
ATOM     36  C   UNL     1      -0.093  13.416  18.960  0.00  0.00    +0.000 A 
ATOM     37  C   UNL     1      -0.185  14.802  19.188  0.00  0.00    +0.000 A 
ATOM     38  C   UNL     1       0.926  15.635  19.000  0.00  0.00    +0.000 A 
ATOM     39  C   UNL     1       2.146  15.079  18.596  0.00  0.00    +0.000 A 
ATOM     40  C   UNL     1       2.258  13.714  18.393  0.00  0.00    +0.000 A 
ATOM     41  C   UNL     1       1.143  12.878  18.575  0.00  0.00    +0.000 A 
ENDBRANCH  35  36
ENDBRANCH  29  35
ENDBRANCH   1  28
TORSDOF 7
ENDMDL
MODEL 4
REMARK VINA RESULT:      -9.6      2.123      3.018
REMARK  Name = 
REMARK  10 active torsions:
REMARK  status: ('A' for Active; 'I' for Inactive)
REMARK    1  A    between atoms: C_1  and  C_2
REMARK    2  A    between atoms: C_2  and  C_3
REMARK    3  A    between atoms: C_2  and  C_4
REMARK    4  A    between atoms: C_2  and  C_5
REMARK    5  A    between atoms: C_7  and  N_8
REMARK    6  A    between atoms: N_11  and  C_12
REMARK    7  A    between atoms: C_15  and  O_16
REMARK    8  A    between atoms: O_16  and  C_17
REMARK    9  A    between atoms: N_29  and  C_30
REMARK   10  A    between atoms: C_30  and  C_31
REMARK                            x       y       z     vdW  Elec       q    Type
REMARK                         _______ _______ _______ _____ _____    ______ ____
ROOT
ATOM      1  N   UNL     1       0.294  10.819  21.673  0.00  0.00    +0.000 N 
ATOM      2  C   UNL     1       0.370   9.627  20.821  0.00  0.00    +0.000 C 
ATOM      3  O   UNL     1      -0.603   9.399  20.114  0.00  0.00    +0.000 OA
ATOM      4  N   UNL     1       1.549   8.885  20.884  0.00  0.00    +0.000 N 
ATOM      5  H   UNL     1       1.024  11.041  22.331  0.00  0.00    +0.000 HD
ATOM      6  H   UNL     1       2.295   9.236  21.465  0.00  0.00    +0.000 HD
ENDROOT
BRANCH   4   7
ATOM      7  C   UNL     1       1.831   7.620  20.184  0.00  0.00    +0.000 A 
ATOM      8  C   UNL     1       1.710   6.362  20.772  0.00  0.00    +0.000 A 
ATOM      9  C   UNL     1       2.057   5.151  20.072  0.00  0.00    +0.000 A 
ATOM     10  C   UNL     1       2.520   5.116  18.758  0.00  0.00    +0.000 A 
ATOM     11  C   UNL     1       2.635   6.378  18.146  0.00  0.00    +0.000 A 
ATOM     12  C   UNL     1       2.291   7.605  18.839  0.00  0.00    +0.000 A 
BRANCH  10  13
ATOM     13  O   UNL     1       3.190   3.949  18.330  0.00  0.00    +0.000 OA
BRANCH  13  14
ATOM     14  C   UNL     1       4.410   3.967  17.656  0.00  0.00    +0.000 A 
ATOM     15  C   UNL     1       4.474   3.897  16.264  0.00  0.00    +0.000 A 
ATOM     16  C   UNL     1       5.744   3.870  15.651  0.00  0.00    +0.000 A 
ATOM     17  N   UNL     1       6.835   4.496  16.135  0.00  0.00    +0.000 NA
ATOM     18  C   UNL     1       6.704   4.778  17.421  0.00  0.00    +0.000 A 
ATOM     19  N   UNL     1       7.714   5.292  18.208  0.00  0.00    +0.000 N 
ATOM     20  C   UNL     1       7.309   5.242  19.538  0.00  0.00    +0.000 A 
ATOM     21  O   UNL     1       7.988   5.524  20.510  0.00  0.00    +0.000 OA
ATOM     22  N   UNL     1       5.977   4.767  19.542  0.00  0.00    +0.000 N 
ATOM     23  C   UNL     1       5.592   4.464  18.228  0.00  0.00    +0.000 A 
ATOM     24  H   UNL     1       8.632   5.546  17.875  0.00  0.00    +0.000 HD
ATOM     25  H   UNL     1       5.463   4.589  20.384  0.00  0.00    +0.000 HD
ENDBRANCH  13  14
ENDBRANCH  10  13
ENDBRANCH   4   7
BRANCH   1  28
ATOM     26  C   UNL     1      -2.801  12.548  22.552  0.00  0.00    +0.000 A 
ATOM     27  C   UNL     1      -1.620  11.826  22.937  0.00  0.00    +0.000 A 
ATOM     28  C   UNL     1      -0.905  11.577  21.772  0.00  0.00    +0.000 A 
ATOM     29  N   UNL     1      -1.589  12.292  20.803  0.00  0.00    +0.000 N 
ATOM     30  N   UNL     1      -2.753  12.825  21.245  0.00  0.00    +0.000 NA
BRANCH  26  32
ATOM     31  C   UNL     1      -3.878  14.435  23.867  0.00  0.00    +0.000 C 
ATOM     32  C   UNL     1      -4.020  12.975  23.396  0.00  0.00    +0.000 C 
ATOM     33  C   UNL     1      -4.154  12.067  24.637  0.00  0.00    +0.000 C 
ATOM     34  C   UNL     1      -5.365  12.876  22.627  0.00  0.00    +0.000 C 
ENDBRANCH  26  32
BRANCH  29  35
ATOM     35  C   UNL     1      -1.240  12.505  19.405  0.00  0.00    +0.000 C 
BRANCH  35  36
ATOM     36  C   UNL     1      -2.074  11.672  18.449  0.00  0.00    +0.000 A 
ATOM     37  C   UNL     1      -1.435  10.825  17.524  0.00  0.00    +0.000 A 
ATOM     38  C   UNL     1      -2.182  10.031  16.643  0.00  0.00    +0.000 A 
ATOM     39  C   UNL     1      -3.580  10.071  16.694  0.00  0.00    +0.000 A 
ATOM     40  C   UNL     1      -4.222  10.880  17.616  0.00  0.00    +0.000 A 
ATOM     41  C   UNL     1      -3.475  11.681  18.497  0.00  0.00    +0.000 A 
ENDBRANCH  35  36
ENDBRANCH  29  35
ENDBRANCH   1  28
TORSDOF 7
ENDMDL
MODEL 5
REMARK VINA RESULT:      -9.5      1.227      1.609
REMARK  Name = 
REMARK  10 active torsions:
REMARK  status: ('A' for Active; 'I' for Inactive)
REMARK    1  A    between atoms: C_1  and  C_2
REMARK    2  A    between atoms: C_2  and  C_3
REMARK    3  A    between atoms: C_2  and  C_4
REMARK    4  A    between atoms: C_2  and  C_5
REMARK    5  A    between atoms: C_7  and  N_8
REMARK    6  A    between atoms: N_11  and  C_12
REMARK    7  A    between atoms: C_15  and  O_16
REMARK    8  A    between atoms: O_16  and  C_17
REMARK    9  A    between atoms: N_29  and  C_30
REMARK   10  A    between atoms: C_30  and  C_31
REMARK                            x       y       z     vdW  Elec       q    Type
REMARK                         _______ _______ _______ _____ _____    ______ ____
ROOT
ATOM      1  N   UNL     1       0.350  10.910  21.147  0.00  0.00    +0.000 N 
ATOM      2  C   UNL     1       0.481   9.737  20.275  0.00  0.00    +0.000 C 
ATOM      3  O   UNL     1      -0.415   9.559  19.461  0.00  0.00    +0.000 OA
ATOM      4  N   UNL     1       1.624   8.956  20.443  0.00  0.00    +0.000 N 
ATOM      5  H   UNL     1       1.010  11.091  21.886  0.00  0.00    +0.000 HD
ATOM      6  H   UNL     1       2.313   9.267  21.111  0.00  0.00    +0.000 HD
ENDROOT
BRANCH   4   7
ATOM      7  C   UNL     1       1.942   7.700  19.743  0.00  0.00    +0.000 A 
ATOM      8  C   UNL     1       1.847   6.438  20.325  0.00  0.00    +0.000 A 
ATOM      9  C   UNL     1       2.229   5.238  19.625  0.00  0.00    +0.000 A 
ATOM     10  C   UNL     1       2.703   5.217  18.316  0.00  0.00    +0.000 A 
ATOM     11  C   UNL     1       2.793   6.484  17.707  0.00  0.00    +0.000 A 
ATOM     12  C   UNL     1       2.414   7.700  18.401  0.00  0.00    +0.000 A 
BRANCH  10  13
ATOM     13  O   UNL     1       3.405   4.068  17.890  0.00  0.00    +0.000 OA
BRANCH  13  14
ATOM     14  C   UNL     1       4.688   4.109  17.348  0.00  0.00    +0.000 A 
ATOM     15  C   UNL     1       4.897   4.102  15.968  0.00  0.00    +0.000 A 
ATOM     16  C   UNL     1       6.224   4.094  15.489  0.00  0.00    +0.000 A 
ATOM     17  N   UNL     1       7.259   4.689  16.112  0.00  0.00    +0.000 NA
ATOM     18  C   UNL     1       6.996   4.914  17.390  0.00  0.00    +0.000 A 
ATOM     19  N   UNL     1       7.920   5.384  18.300  0.00  0.00    +0.000 N 
ATOM     20  C   UNL     1       7.378   5.277  19.577  0.00  0.00    +0.000 A 
ATOM     21  O   UNL     1       7.954   5.509  20.626  0.00  0.00    +0.000 OA
ATOM     22  N   UNL     1       6.053   4.811  19.420  0.00  0.00    +0.000 N 
ATOM     23  C   UNL     1       5.806   4.571  18.061  0.00  0.00    +0.000 A 
ATOM     24  H   UNL     1       8.869   5.647  18.076  0.00  0.00    +0.000 HD
ATOM     25  H   UNL     1       5.454   4.598  20.196  0.00  0.00    +0.000 HD
ENDBRANCH  13  14
ENDBRANCH  10  13
ENDBRANCH   4   7
BRANCH   1  28
ATOM     26  C   UNL     1      -2.770  12.716  21.734  0.00  0.00    +0.000 A 
ATOM     27  C   UNL     1      -1.662  11.944  22.224  0.00  0.00    +0.000 A 
ATOM     28  C   UNL     1      -0.830  11.705  21.137  0.00  0.00    +0.000 A 
ATOM     29  N   UNL     1      -1.380  12.468  20.122  0.00  0.00    +0.000 N 
ATOM     30  N   UNL     1      -2.570  13.028  20.450  0.00  0.00    +0.000 NA
BRANCH  26  32
ATOM     31  C   UNL     1      -5.310  12.691  21.677  0.00  0.00    +0.000 C 
ATOM     32  C   UNL     1      -4.063  13.158  22.452  0.00  0.00    +0.000 C 
ATOM     33  C   UNL     1      -4.106  14.696  22.575  0.00  0.00    +0.000 C 
ATOM     34  C   UNL     1      -4.188  12.595  23.894  0.00  0.00    +0.000 C 
ENDBRANCH  26  32
BRANCH  29  35
ATOM     35  C   UNL     1      -0.872  12.709  18.778  0.00  0.00    +0.000 C 
BRANCH  35  36
ATOM     36  C   UNL     1       0.185  13.797  18.727  0.00  0.00    +0.000 A 
ATOM     37  C   UNL     1       1.524  13.454  18.462  0.00  0.00    +0.000 A 
ATOM     38  C   UNL     1       2.517  14.441  18.390  0.00  0.00    +0.000 A 
ATOM     39  C   UNL     1       2.169  15.785  18.570  0.00  0.00    +0.000 A 
ATOM     40  C   UNL     1       0.851  16.139  18.805  0.00  0.00    +0.000 A 
ATOM     41  C   UNL     1      -0.145  15.150  18.884  0.00  0.00    +0.000 A 
ENDBRANCH  35  36
ENDBRANCH  29  35
ENDBRANCH   1  28
TORSDOF 7
ENDMDL
MODEL 6
REMARK VINA RESULT:      -9.4      2.176      3.765
REMARK  Name = 
REMARK  10 active torsions:
REMARK  status: ('A' for Active; 'I' for Inactive)
REMARK    1  A    between atoms: C_1  and  C_2
REMARK    2  A    between atoms: C_2  and  C_3
REMARK    3  A    between atoms: C_2  and  C_4
REMARK    4  A    between atoms: C_2  and  C_5
REMARK    5  A    between atoms: C_7  and  N_8
REMARK    6  A    between atoms: N_11  and  C_12
REMARK    7  A    between atoms: C_15  and  O_16
REMARK    8  A    between atoms: O_16  and  C_17
REMARK    9  A    between atoms: N_29  and  C_30
REMARK   10  A    between atoms: C_30  and  C_31
REMARK                            x       y       z     vdW  Elec       q    Type
REMARK                         _______ _______ _______ _____ _____    ______ ____
ROOT
ATOM      1  N   UNL     1       0.673  10.888  21.023  0.00  0.00    +0.000 N 
ATOM      2  C   UNL     1       1.089   9.869  20.053  0.00  0.00    +0.000 C 
ATOM      3  O   UNL     1       1.067  10.196  18.874  0.00  0.00    +0.000 OA
ATOM      4  N   UNL     1       1.491   8.638  20.571  0.00  0.00    +0.000 N 
ATOM      5  H   UNL     1       0.601  10.679  22.006  0.00  0.00    +0.000 HD
ATOM      6  H   UNL     1       1.522   8.537  21.574  0.00  0.00    +0.000 HD
ENDROOT
BRANCH   4   7
ATOM      7  C   UNL     1       1.879   7.444  19.801  0.00  0.00    +0.000 A 
ATOM      8  C   UNL     1       1.771   6.140  20.280  0.00  0.00    +0.000 A 
ATOM      9  C   UNL     1       2.223   5.002  19.518  0.00  0.00    +0.000 A 
ATOM     10  C   UNL     1       2.782   5.089  18.245  0.00  0.00    +0.000 A 
ATOM     11  C   UNL     1       2.885   6.400  17.741  0.00  0.00    +0.000 A 
ATOM     12  C   UNL     1       2.437   7.553  18.497  0.00  0.00    +0.000 A 
BRANCH  10  13
ATOM     13  O   UNL     1       3.533   3.986  17.782  0.00  0.00    +0.000 OA
BRANCH  13  14
ATOM     14  C   UNL     1       4.812   4.102  17.242  0.00  0.00    +0.000 A 
ATOM     15  C   UNL     1       5.018   4.160  15.863  0.00  0.00    +0.000 A 
ATOM     16  C   UNL     1       6.344   4.226  15.384  0.00  0.00    +0.000 A 
ATOM     17  N   UNL     1       7.356   4.836  16.031  0.00  0.00    +0.000 NA
ATOM     18  C   UNL     1       7.086   4.996  17.317  0.00  0.00    +0.000 A 
ATOM     19  N   UNL     1       7.992   5.465  18.247  0.00  0.00    +0.000 N 
ATOM     20  C   UNL     1       7.457   5.283  19.518  0.00  0.00    +0.000 A 
ATOM     21  O   UNL     1       8.025   5.494  20.576  0.00  0.00    +0.000 OA
ATOM     22  N   UNL     1       6.151   4.771  19.342  0.00  0.00    +0.000 N 
ATOM     23  C   UNL     1       5.912   4.578  17.974  0.00  0.00    +0.000 A 
ATOM     24  H   UNL     1       8.929   5.775  18.033  0.00  0.00    +0.000 HD
ATOM     25  H   UNL     1       5.563   4.502  20.108  0.00  0.00    +0.000 HD
ENDBRANCH  13  14
ENDBRANCH  10  13
ENDBRANCH   4   7
BRANCH   1  28
ATOM     26  C   UNL     1      -0.101  14.322  20.049  0.00  0.00    +0.000 A 
ATOM     27  C   UNL     1       0.856  13.303  20.380  0.00  0.00    +0.000 A 
ATOM     28  C   UNL     1       0.136  12.134  20.595  0.00  0.00    +0.000 A 
ATOM     29  N   UNL     1      -1.157  12.466  20.226  0.00  0.00    +0.000 N 
ATOM     30  N   UNL     1      -1.320  13.783  19.955  0.00  0.00    +0.000 NA
BRANCH  26  32
ATOM     31  C   UNL     1      -0.241  16.242  18.391  0.00  0.00    +0.000 C 
ATOM     32  C   UNL     1       0.101  15.838  19.838  0.00  0.00    +0.000 C 
ATOM     33  C   UNL     1       1.566  16.227  20.126  0.00  0.00    +0.000 C 
ATOM     34  C   UNL     1      -0.781  16.710  20.772  0.00  0.00    +0.000 C 
ENDBRANCH  26  32
BRANCH  29  35
ATOM     35  C   UNL     1      -2.330  11.609  20.128  0.00  0.00    +0.000 C 
BRANCH  35  36
ATOM     36  C   UNL     1      -2.814  11.421  18.702  0.00  0.00    +0.000 A 
ATOM     37  C   UNL     1      -4.151  11.715  18.376  0.00  0.00    +0.000 A 
ATOM     38  C   UNL     1      -4.619  11.569  17.063  0.00  0.00    +0.000 A 
ATOM     39  C   UNL     1      -3.740  11.139  16.061  0.00  0.00    +0.000 A 
ATOM     40  C   UNL     1      -2.416  10.872  16.362  0.00  0.00    +0.000 A 
ATOM     41  C   UNL     1      -1.946  11.012  17.679  0.00  0.00    +0.000 A 
ENDBRANCH  35  36
ENDBRANCH  29  35
ENDBRANCH   1  28
TORSDOF 7
ENDMDL
MODEL 7
REMARK VINA RESULT:      -9.3      2.981     10.974
REMARK  Name = 
REMARK  10 active torsions:
REMARK  status: ('A' for Active; 'I' for Inactive)
REMARK    1  A    between atoms: C_1  and  C_2
REMARK    2  A    between atoms: C_2  and  C_3
REMARK    3  A    between atoms: C_2  and  C_4
REMARK    4  A    between atoms: C_2  and  C_5
REMARK    5  A    between atoms: C_7  and  N_8
REMARK    6  A    between atoms: N_11  and  C_12
REMARK    7  A    between atoms: C_15  and  O_16
REMARK    8  A    between atoms: O_16  and  C_17
REMARK    9  A    between atoms: N_29  and  C_30
REMARK   10  A    between atoms: C_30  and  C_31
REMARK                            x       y       z     vdW  Elec       q    Type
REMARK                         _______ _______ _______ _____ _____    ______ ____
ROOT
ATOM      1  N   UNL     1       2.202   7.957  20.857  0.00  0.00    +0.000 N 
ATOM      2  C   UNL     1       0.960   8.736  20.809  0.00  0.00    +0.000 C 
ATOM      3  O   UNL     1      -0.018   8.175  20.333  0.00  0.00    +0.000 OA
ATOM      4  N   UNL     1       1.010  10.029  21.331  0.00  0.00    +0.000 N 
ATOM      5  H   UNL     1       3.067   8.366  21.173  0.00  0.00    +0.000 HD
ATOM      6  H   UNL     1       1.874  10.332  21.755  0.00  0.00    +0.000 HD
ENDROOT
BRANCH   4   7
ATOM      7  C   UNL     1      -0.078  11.021  21.329  0.00  0.00    +0.000 A 
ATOM      8  C   UNL     1      -1.005  11.162  22.360  0.00  0.00    +0.000 A 
ATOM      9  C   UNL     1      -2.095  12.102  22.291  0.00  0.00    +0.000 A 
ATOM     10  C   UNL     1      -2.314  12.962  21.217  0.00  0.00    +0.000 A 
ATOM     11  C   UNL     1      -1.378  12.842  20.172  0.00  0.00    +0.000 A 
ATOM     12  C   UNL     1      -0.279  11.898  20.228  0.00  0.00    +0.000 A 
BRANCH  10  13
ATOM     13  O   UNL     1      -3.600  13.532  21.085  0.00  0.00    +0.000 OA
BRANCH  13  14
ATOM     14  C   UNL     1      -4.735  12.796  20.753  0.00  0.00    +0.000 A 
ATOM     15  C   UNL     1      -5.895  12.857  21.527  0.00  0.00    +0.000 A 
ATOM     16  C   UNL     1      -6.990  12.047  21.161  0.00  0.00    +0.000 A 
ATOM     17  N   UNL     1      -7.296  11.711  19.893  0.00  0.00    +0.000 NA
ATOM     18  C   UNL     1      -6.258  11.861  19.085  0.00  0.00    +0.000 A 
ATOM     19  N   UNL     1      -6.241  11.464  17.763  0.00  0.00    +0.000 N 
ATOM     20  C   UNL     1      -4.936  11.554  17.291  0.00  0.00    +0.000 A 
ATOM     21  O   UNL     1      -4.538  11.191  16.197  0.00  0.00    +0.000 OA
ATOM     22  N   UNL     1      -4.160  12.108  18.335  0.00  0.00    +0.000 N 
ATOM     23  C   UNL     1      -4.972  12.295  19.463  0.00  0.00    +0.000 A 
ATOM     24  H   UNL     1      -7.027  11.066  17.270  0.00  0.00    +0.000 HD
ATOM     25  H   UNL     1      -3.167  12.232  18.271  0.00  0.00    +0.000 HD
ENDBRANCH  13  14
ENDBRANCH  10  13
ENDBRANCH   4   7
BRANCH   1  28
ATOM     26  C   UNL     1       2.104   4.454  19.829  0.00  0.00    +0.000 A 
ATOM     27  C   UNL     1       1.661   5.516  20.688  0.00  0.00    +0.000 A 
ATOM     28  C   UNL     1       2.289   6.675  20.248  0.00  0.00    +0.000 A 
ATOM     29  N   UNL     1       2.921   6.287  19.078  0.00  0.00    +0.000 N 
ATOM     30  N   UNL     1       2.866   4.952  18.851  0.00  0.00    +0.000 NA
BRANCH  26  32
ATOM     31  C   UNL     1       0.640   2.531  19.046  0.00  0.00    +0.000 C 
ATOM     32  C   UNL     1       1.844   2.935  19.919  0.00  0.00    +0.000 C 
ATOM     33  C   UNL     1       1.554   2.528  21.379  0.00  0.00    +0.000 C 
ATOM     34  C   UNL     1       3.050   2.077  19.451  0.00  0.00    +0.000 C 
ENDBRANCH  26  32
BRANCH  29  35
ATOM     35  C   UNL     1       3.642   7.104  18.112  0.00  0.00    +0.000 C 
BRANCH  35  36
ATOM     36  C   UNL     1       4.843   6.397  17.512  0.00  0.00    +0.000 A 
ATOM     37  C   UNL     1       4.875   6.128  16.131  0.00  0.00    +0.000 A 
ATOM     38  C   UNL     1       5.981   5.494  15.548  0.00  0.00    +0.000 A 
ATOM     39  C   UNL     1       7.073   5.137  16.349  0.00  0.00    +0.000 A 
ATOM     40  C   UNL     1       7.067   5.419  17.704  0.00  0.00    +0.000 A 
ATOM     41  C   UNL     1       5.956   6.050  18.291  0.00  0.00    +0.000 A 
ENDBRANCH  35  36
ENDBRANCH  29  35
ENDBRANCH   1  28
TORSDOF 7
ENDMDL
MODEL 8
REMARK VINA RESULT:      -9.3      2.915     11.767
REMARK  Name = 
REMARK  10 active torsions:
REMARK  status: ('A' for Active; 'I' for Inactive)
REMARK    1  A    between atoms: C_1  and  C_2
REMARK    2  A    between atoms: C_2  and  C_3
REMARK    3  A    between atoms: C_2  and  C_4
REMARK    4  A    between atoms: C_2  and  C_5
REMARK    5  A    between atoms: C_7  and  N_8
REMARK    6  A    between atoms: N_11  and  C_12
REMARK    7  A    between atoms: C_15  and  O_16
REMARK    8  A    between atoms: O_16  and  C_17
REMARK    9  A    between atoms: N_29  and  C_30
REMARK   10  A    between atoms: C_30  and  C_31
REMARK                            x       y       z     vdW  Elec       q    Type
REMARK                         _______ _______ _______ _____ _____    ______ ____
ROOT
ATOM      1  N   UNL     1       2.049   8.343  17.739  0.00  0.00    +0.000 N 
ATOM      2  C   UNL     1       1.579   8.813  19.047  0.00  0.00    +0.000 C 
ATOM      3  O   UNL     1       2.148   8.354  20.028  0.00  0.00    +0.000 OA
ATOM      4  N   UNL     1       0.548   9.752  19.042  0.00  0.00    +0.000 N 
ATOM      5  H   UNL     1       1.592   8.621  16.885  0.00  0.00    +0.000 HD
ATOM      6  H   UNL     1       0.224  10.090  18.149  0.00  0.00    +0.000 HD
ENDROOT
BRANCH   4   7
ATOM      7  C   UNL     1      -0.136  10.314  20.219  0.00  0.00    +0.000 A 
ATOM      8  C   UNL     1      -0.907  11.474  20.192  0.00  0.00    +0.000 A 
ATOM      9  C   UNL     1      -1.506  12.026  21.380  0.00  0.00    +0.000 A 
ATOM     10  C   UNL     1      -1.395  11.456  22.646  0.00  0.00    +0.000 A 
ATOM     11  C   UNL     1      -0.630  10.275  22.689  0.00  0.00    +0.000 A 
ATOM     12  C   UNL     1      -0.019   9.709  21.501  0.00  0.00    +0.000 A 
BRANCH  10  13
ATOM     13  O   UNL     1      -1.673  12.276  23.762  0.00  0.00    +0.000 OA
BRANCH  13  14
ATOM     14  C   UNL     1      -2.545  13.362  23.718  0.00  0.00    +0.000 A 
ATOM     15  C   UNL     1      -2.131  14.609  23.244  0.00  0.00    +0.000 A 
ATOM     16  C   UNL     1      -3.051  15.677  23.274  0.00  0.00    +0.000 A 
ATOM     17  N   UNL     1      -4.382  15.539  23.116  0.00  0.00    +0.000 NA
ATOM     18  C   UNL     1      -4.773  14.295  23.345  0.00  0.00    +0.000 A 
ATOM     19  N   UNL     1      -6.093  13.894  23.391  0.00  0.00    +0.000 N 
ATOM     20  C   UNL     1      -6.143  12.593  23.881  0.00  0.00    +0.000 A 
ATOM     21  O   UNL     1      -7.151  11.960  24.144  0.00  0.00    +0.000 OA
ATOM     22  N   UNL     1      -4.806  12.167  24.049  0.00  0.00    +0.000 N 
ATOM     23  C   UNL     1      -3.942  13.224  23.727  0.00  0.00    +0.000 A 
ATOM     24  H   UNL     1      -6.884  14.493  23.210  0.00  0.00    +0.000 HD
ATOM     25  H   UNL     1      -4.561  11.278  24.441  0.00  0.00    +0.000 HD
ENDBRANCH  13  14
ENDBRANCH  10  13
ENDBRANCH   4   7
BRANCH   1  28
ATOM     26  C   UNL     1       4.952   6.160  17.351  0.00  0.00    +0.000 A 
ATOM     27  C   UNL     1       4.387   7.470  17.521  0.00  0.00    +0.000 A 
ATOM     28  C   UNL     1       3.013   7.302  17.635  0.00  0.00    +0.000 A 
ATOM     29  N   UNL     1       2.850   5.928  17.698  0.00  0.00    +0.000 N 
ATOM     30  N   UNL     1       3.993   5.237  17.470  0.00  0.00    +0.000 NA
BRANCH  26  32
ATOM     31  C   UNL     1       6.548   5.279  15.582  0.00  0.00    +0.000 C 
ATOM     32  C   UNL     1       6.405   5.740  17.046  0.00  0.00    +0.000 C 
ATOM     33  C   UNL     1       6.833   4.582  17.972  0.00  0.00    +0.000 C 
ATOM     34  C   UNL     1       7.433   6.883  17.263  0.00  0.00    +0.000 C 
ENDBRANCH  26  32
BRANCH  29  35
ATOM     35  C   UNL     1       1.636   5.160  17.937  0.00  0.00    +0.000 C 
BRANCH  35  36
ATOM     36  C   UNL     1       1.712   4.298  19.183  0.00  0.00    +0.000 A 
ATOM     37  C   UNL     1       2.159   4.860  20.393  0.00  0.00    +0.000 A 
ATOM     38  C   UNL     1       2.221   4.091  21.563  0.00  0.00    +0.000 A 
ATOM     39  C   UNL     1       1.818   2.751  21.530  0.00  0.00    +0.000 A 
ATOM     40  C   UNL     1       1.350   2.191  20.353  0.00  0.00    +0.000 A 
ATOM     41  C   UNL     1       1.294   2.959  19.177  0.00  0.00    +0.000 A 
ENDBRANCH  35  36
ENDBRANCH  29  35
ENDBRANCH   1  28
TORSDOF 7
ENDMDL
MODEL 9
REMARK VINA RESULT:      -9.3      2.683     11.244
REMARK  Name = 
REMARK  10 active torsions:
REMARK  status: ('A' for Active; 'I' for Inactive)
REMARK    1  A    between atoms: C_1  and  C_2
REMARK    2  A    between atoms: C_2  and  C_3
REMARK    3  A    between atoms: C_2  and  C_4
REMARK    4  A    between atoms: C_2  and  C_5
REMARK    5  A    between atoms: C_7  and  N_8
REMARK    6  A    between atoms: N_11  and  C_12
REMARK    7  A    between atoms: C_15  and  O_16
REMARK    8  A    between atoms: O_16  and  C_17
REMARK    9  A    between atoms: N_29  and  C_30
REMARK   10  A    between atoms: C_30  and  C_31
REMARK                            x       y       z     vdW  Elec       q    Type
REMARK                         _______ _______ _______ _____ _____    ______ ____
ROOT
ATOM      1  N   UNL     1       2.356   7.508  17.900  0.00  0.00    +0.000 N 
ATOM      2  C   UNL     1       1.897   8.250  19.080  0.00  0.00    +0.000 C 
ATOM      3  O   UNL     1       1.985   7.673  20.155  0.00  0.00    +0.000 OA
ATOM      4  N   UNL     1       1.429   9.546  18.863  0.00  0.00    +0.000 N 
ATOM      5  H   UNL     1       2.257   7.887  16.971  0.00  0.00    +0.000 HD
ATOM      6  H   UNL     1       1.481   9.915  17.926  0.00  0.00    +0.000 HD
ENDROOT
BRANCH   4   7
ATOM      7  C   UNL     1       0.854  10.453  19.870  0.00  0.00    +0.000 A 
ATOM      8  C   UNL     1       1.209  11.794  20.004  0.00  0.00    +0.000 A 
ATOM      9  C   UNL     1       0.669  12.631  21.045  0.00  0.00    +0.000 A 
ATOM     10  C   UNL     1      -0.259  12.200  21.990  0.00  0.00    +0.000 A 
ATOM     11  C   UNL     1      -0.640  10.850  21.860  0.00  0.00    +0.000 A 
ATOM     12  C   UNL     1      -0.102   9.995  20.819  0.00  0.00    +0.000 A 
BRANCH  10  13
ATOM     13  O   UNL     1      -0.404  12.967  23.167  0.00  0.00    +0.000 OA
BRANCH  13  14
ATOM     14  C   UNL     1      -1.377  13.951  23.327  0.00  0.00    +0.000 A 
ATOM     15  C   UNL     1      -1.182  15.252  22.859  0.00  0.00    +0.000 A 
ATOM     16  C   UNL     1      -2.189  16.210  23.100  0.00  0.00    +0.000 A 
ATOM     17  N   UNL     1      -3.505  15.930  23.158  0.00  0.00    +0.000 NA
ATOM     18  C   UNL     1      -3.721  14.644  23.381  0.00  0.00    +0.000 A 
ATOM     19  N   UNL     1      -4.964  14.097  23.625  0.00  0.00    +0.000 N 
ATOM     20  C   UNL     1      -4.795  12.782  24.045  0.00  0.00    +0.000 A 
ATOM     21  O   UNL     1      -5.672  12.032  24.438  0.00  0.00    +0.000 OA
ATOM     22  N   UNL     1      -3.412  12.502  23.965  0.00  0.00    +0.000 N 
ATOM     23  C   UNL     1      -2.730  13.659  23.562  0.00  0.00    +0.000 A 
ATOM     24  H   UNL     1      -5.833  14.611  23.611  0.00  0.00    +0.000 HD
ATOM     25  H   UNL     1      -3.013  11.631  24.263  0.00  0.00    +0.000 HD
ENDBRANCH  13  14
ENDBRANCH  10  13
ENDBRANCH   4   7
BRANCH   1  28
ATOM     26  C   UNL     1       2.824   3.944  18.546  0.00  0.00    +0.000 A 
ATOM     27  C   UNL     1       2.017   5.131  18.612  0.00  0.00    +0.000 A 
ATOM     28  C   UNL     1       2.741   6.143  17.994  0.00  0.00    +0.000 A 
ATOM     29  N   UNL     1       3.835   5.487  17.455  0.00  0.00    +0.000 N 
ATOM     30  N   UNL     1       3.925   4.188  17.829  0.00  0.00    +0.000 NA
BRANCH  26  32
ATOM     31  C   UNL     1       3.470   1.488  18.490  0.00  0.00    +0.000 C 
ATOM     32  C   UNL     1       2.596   2.555  19.178  0.00  0.00    +0.000 C 
ATOM     33  C   UNL     1       1.115   2.143  19.041  0.00  0.00    +0.000 C 
ATOM     34  C   UNL     1       2.931   2.507  20.693  0.00  0.00    +0.000 C 
ENDBRANCH  26  32
BRANCH  29  35
ATOM     35  C   UNL     1       4.885   6.013  16.594  0.00  0.00    +0.000 C 
BRANCH  35  36
ATOM     36  C   UNL     1       6.131   6.426  17.355  0.00  0.00    +0.000 A 
ATOM     37  C   UNL     1       6.709   7.686  17.115  0.00  0.00    +0.000 A 
ATOM     38  C   UNL     1       7.848   8.100  17.818  0.00  0.00    +0.000 A 
ATOM     39  C   UNL     1       8.409   7.254  18.783  0.00  0.00    +0.000 A 
ATOM     40  C   UNL     1       7.836   6.022  19.049  0.00  0.00    +0.000 A 
ATOM     41  C   UNL     1       6.696   5.603  18.340  0.00  0.00    +0.000 A 
ENDBRANCH  35  36
ENDBRANCH  29  35
ENDBRANCH   1  28
TORSDOF 7
ENDMDL
