MODEL 1
REMARK VINA RESULT:      -6.7      0.000      0.000
REMARK  Name = 
REMARK  11 active torsions:
REMARK  status: ('A' for Active; 'I' for Inactive)
REMARK    1  A    between atoms: C_1  and  C_2
REMARK    2  A    between atoms: C_2  and  N_3
REMARK    3  A    between atoms: C_2  and  C_24
REMARK    4  A    between atoms: C_9  and  C_10
REMARK    5  A    between atoms: C_9  and  C_17
REMARK    6  A    between atoms: C_10  and  C_11
REMARK    7  A    between atoms: C_17  and  O_19
REMARK    8  A    between atoms: O_19  and  C_20
REMARK    9  A    between atoms: C_20  and  C_21
REMARK   10  A    between atoms: C_20  and  C_22
REMARK   11  A    between atoms: C_20  and  C_23
REMARK                            x       y       z     vdW  Elec       q    Type
REMARK                         _______ _______ _______ _____ _____    ______ ____
ROOT
ATOM      1  N   UNL     1       5.248   3.518  19.042  0.00  0.00    +0.000 N 
ATOM      2  C   UNL     1       6.177   4.498  19.253  0.00  0.00    +0.000 C 
ATOM      3  O   UNL     1       6.548   4.828  20.378  0.00  0.00    +0.000 OA
ATOM      4  N   UNL     1       6.738   5.041  18.133  0.00  0.00    +0.000 N 
ATOM      5  C   UNL     1       7.744   6.089  18.071  0.00  0.00    +0.000 C 
ATOM      6  C   UNL     1       7.122   6.506  16.741  0.00  0.00    +0.000 C 
ATOM      7  C   UNL     1       6.351   5.151  16.708  0.00  0.00    +0.000 C 
ATOM      8  H   UNL     1       4.837   3.414  18.122  0.00  0.00    +0.000 HD
ENDROOT
BRANCH   1  10
ATOM      9  C   UNL     1       5.077   1.344  20.154  0.00  0.00    +0.000 C 
ATOM     10  C   UNL     1       4.610   2.800  20.136  0.00  0.00    +0.000 C 
BRANCH  10  11
ATOM     11  C   UNL     1       3.089   2.871  20.077  0.00  0.00    +0.000 A 
ATOM     12  C   UNL     1       2.389   2.113  19.124  0.00  0.00    +0.000 A 
ATOM     13  C   UNL     1       1.003   2.224  18.995  0.00  0.00    +0.000 A 
ATOM     14  C   UNL     1       0.292   3.089  19.823  0.00  0.00    +0.000 A 
ATOM     15  C   UNL     1       0.966   3.841  20.780  0.00  0.00    +0.000 A 
ATOM     16  C   UNL     1       2.356   3.736  20.905  0.00  0.00    +0.000 A 
ENDBRANCH  10  11
ENDBRANCH   1  10
BRANCH   7  17
ATOM     17  C   UNL     1       4.798   5.188  16.480  0.00  0.00    +0.000 C 
ATOM     18  O   UNL     1       4.151   4.183  16.165  0.00  0.00    +0.000 OA
BRANCH  17  19
ATOM     19  O   UNL     1       4.239   6.419  16.676  0.00  0.00    +0.000 OA
BRANCH  19  20
ATOM     20  C   UNL     1       3.256   6.602  17.727  0.00  0.00    +0.000 C 
ATOM     21  C   UNL     1       3.921   6.651  19.107  0.00  0.00    +0.000 C 
ATOM     22  C   UNL     1       2.608   7.971  17.472  0.00  0.00    +0.000 C 
ATOM     23  C   UNL     1       2.166   5.527  17.632  0.00  0.00    +0.000 C 
ENDBRANCH  19  20
ENDBRANCH  17  19
ENDBRANCH   7  17
BRANCH   7  24
ATOM     24  C   UNL     1       7.013   4.016  15.896  0.00  0.00    +0.000 C 
BRANCH  24  25
ATOM     25  C   UNL     1       7.005   4.336  14.415  0.00  0.00    +0.000 A 
ATOM     26  C   UNL     1       6.173   3.620  13.543  0.00  0.00    +0.000 A 
ATOM     27  C   UNL     1       6.210   3.858  12.168  0.00  0.00    +0.000 A 
ATOM     28  C   UNL     1       7.067   4.825  11.650  0.00  0.00    +0.000 A 
ATOM     29  C   UNL     1       7.880   5.563  12.508  0.00  0.00    +0.000 A 
ATOM     30  C   UNL     1       7.846   5.324  13.883  0.00  0.00    +0.000 A 
ENDBRANCH  24  25
ENDBRANCH   7  24
TORSDOF 7
ENDMDL
MODEL 2
REMARK VINA RESULT:      -6.6      1.735      6.415
REMARK  Name = 
REMARK  11 active torsions:
REMARK  status: ('A' for Active; 'I' for Inactive)
REMARK    1  A    between atoms: C_1  and  C_2
REMARK    2  A    between atoms: C_2  and  N_3
REMARK    3  A    between atoms: C_2  and  C_24
REMARK    4  A    between atoms: C_9  and  C_10
REMARK    5  A    between atoms: C_9  and  C_17
REMARK    6  A    between atoms: C_10  and  C_11
REMARK    7  A    between atoms: C_17  and  O_19
REMARK    8  A    between atoms: O_19  and  C_20
REMARK    9  A    between atoms: C_20  and  C_21
REMARK   10  A    between atoms: C_20  and  C_22
REMARK   11  A    between atoms: C_20  and  C_23
REMARK                            x       y       z     vdW  Elec       q    Type
REMARK                         _______ _______ _______ _____ _____    ______ ____
ROOT
ATOM      1  N   UNL     1       6.354   4.619  15.249  0.00  0.00    +0.000 N 
ATOM      2  C   UNL     1       6.988   4.794  16.447  0.00  0.00    +0.000 C 
ATOM      3  O   UNL     1       8.182   4.550  16.605  0.00  0.00    +0.000 OA
ATOM      4  N   UNL     1       6.235   5.338  17.448  0.00  0.00    +0.000 N 
ATOM      5  C   UNL     1       6.658   5.630  18.808  0.00  0.00    +0.000 C 
ATOM      6  C   UNL     1       5.217   5.366  19.234  0.00  0.00    +0.000 C 
ATOM      7  C   UNL     1       4.788   5.447  17.737  0.00  0.00    +0.000 C 
ATOM      8  H   UNL     1       5.341   4.650  15.214  0.00  0.00    +0.000 HD
ENDROOT
BRANCH   1  10
ATOM      9  C   UNL     1       7.893   5.212  13.441  0.00  0.00    +0.000 C 
ATOM     10  C   UNL     1       7.039   4.111  14.069  0.00  0.00    +0.000 C 
BRANCH  10  11
ATOM     11  C   UNL     1       6.082   3.525  13.040  0.00  0.00    +0.000 A 
ATOM     12  C   UNL     1       6.475   2.421  12.266  0.00  0.00    +0.000 A 
ATOM     13  C   UNL     1       5.648   1.918  11.258  0.00  0.00    +0.000 A 
ATOM     14  C   UNL     1       4.410   2.507  11.013  0.00  0.00    +0.000 A 
ATOM     15  C   UNL     1       3.998   3.596  11.776  0.00  0.00    +0.000 A 
ATOM     16  C   UNL     1       4.829   4.104  12.781  0.00  0.00    +0.000 A 
ENDBRANCH  10  11
ENDBRANCH   1  10
BRANCH   7  17
ATOM     17  C   UNL     1       3.937   4.268  17.145  0.00  0.00    +0.000 C 
ATOM     18  O   UNL     1       3.617   4.217  15.953  0.00  0.00    +0.000 OA
BRANCH  17  19
ATOM     19  O   UNL     1       3.605   3.311  18.062  0.00  0.00    +0.000 OA
BRANCH  19  20
ATOM     20  C   UNL     1       2.226   3.178  18.493  0.00  0.00    +0.000 C 
ATOM     21  C   UNL     1       1.728   1.739  18.322  0.00  0.00    +0.000 C 
ATOM     22  C   UNL     1       2.215   3.501  19.994  0.00  0.00    +0.000 C 
ATOM     23  C   UNL     1       1.340   4.202  17.773  0.00  0.00    +0.000 C 
ENDBRANCH  19  20
ENDBRANCH  17  19
ENDBRANCH   7  17
BRANCH   7  24
ATOM     24  C   UNL     1       4.259   6.819  17.259  0.00  0.00    +0.000 C 
BRANCH  24  25
ATOM     25  C   UNL     1       3.184   7.337  18.192  0.00  0.00    +0.000 A 
ATOM     26  C   UNL     1       2.413   8.450  17.831  0.00  0.00    +0.000 A 
ATOM     27  C   UNL     1       1.469   8.980  18.713  0.00  0.00    +0.000 A 
ATOM     28  C   UNL     1       1.275   8.393  19.961  0.00  0.00    +0.000 A 
ATOM     29  C   UNL     1       2.015   7.271  20.323  0.00  0.00    +0.000 A 
ATOM     30  C   UNL     1       2.962   6.742  19.443  0.00  0.00    +0.000 A 
ENDBRANCH  24  25
ENDBRANCH   7  24
TORSDOF 7
ENDMDL
MODEL 3
REMARK VINA RESULT:      -6.5      9.063     11.727
REMARK  Name = 
REMARK  11 active torsions:
REMARK  status: ('A' for Active; 'I' for Inactive)
REMARK    1  A    between atoms: C_1  and  C_2
REMARK    2  A    between atoms: C_2  and  N_3
REMARK    3  A    between atoms: C_2  and  C_24
REMARK    4  A    between atoms: C_9  and  C_10
REMARK    5  A    between atoms: C_9  and  C_17
REMARK    6  A    between atoms: C_10  and  C_11
REMARK    7  A    between atoms: C_17  and  O_19
REMARK    8  A    between atoms: O_19  and  C_20
REMARK    9  A    between atoms: C_20  and  C_21
REMARK   10  A    between atoms: C_20  and  C_22
REMARK   11  A    between atoms: C_20  and  C_23
REMARK                            x       y       z     vdW  Elec       q    Type
REMARK                         _______ _______ _______ _____ _____    ______ ____
ROOT
ATOM      1  N   UNL     1      -4.147  11.774  17.952  0.00  0.00    +0.000 N 
ATOM      2  C   UNL     1      -3.282  10.742  17.725  0.00  0.00    +0.000 C 
ATOM      3  O   UNL     1      -3.636   9.682  17.212  0.00  0.00    +0.000 OA
ATOM      4  N   UNL     1      -1.972  10.982  18.027  0.00  0.00    +0.000 N 
ATOM      5  C   UNL     1      -0.853  10.065  17.882  0.00  0.00    +0.000 C 
ATOM      6  C   UNL     1      -0.212  10.775  19.071  0.00  0.00    +0.000 C 
ATOM      7  C   UNL     1      -1.250  11.928  18.907  0.00  0.00    +0.000 C 
ATOM      8  H   UNL     1      -3.857  12.544  18.544  0.00  0.00    +0.000 HD
ENDROOT
BRANCH   1  10
ATOM      9  C   UNL     1      -6.056  13.039  17.087  0.00  0.00    +0.000 C 
ATOM     10  C   UNL     1      -5.563  11.694  17.622  0.00  0.00    +0.000 C 
BRANCH  10  11
ATOM     11  C   UNL     1      -6.417  11.244  18.800  0.00  0.00    +0.000 A 
ATOM     12  C   UNL     1      -6.866  12.186  19.739  0.00  0.00    +0.000 A 
ATOM     13  C   UNL     1      -7.580  11.787  20.872  0.00  0.00    +0.000 A 
ATOM     14  C   UNL     1      -7.863  10.440  21.080  0.00  0.00    +0.000 A 
ATOM     15  C   UNL     1      -7.434   9.491  20.156  0.00  0.00    +0.000 A 
ATOM     16  C   UNL     1      -6.714   9.890  19.024  0.00  0.00    +0.000 A 
ENDBRANCH  10  11
ENDBRANCH   1  10
BRANCH   7  17
ATOM     17  C   UNL     1      -2.075  12.368  20.168  0.00  0.00    +0.000 C 
ATOM     18  O   UNL     1      -2.665  13.451  20.228  0.00  0.00    +0.000 OA
BRANCH  17  19
ATOM     19  O   UNL     1      -2.087  11.440  21.172  0.00  0.00    +0.000 OA
BRANCH  19  20
ATOM     20  C   UNL     1      -1.575  11.793  22.483  0.00  0.00    +0.000 C 
ATOM     21  C   UNL     1      -0.874  10.602  23.144  0.00  0.00    +0.000 C 
ATOM     22  C   UNL     1      -0.521  12.885  22.249  0.00  0.00    +0.000 C 
ATOM     23  C   UNL     1      -2.694  12.381  23.352  0.00  0.00    +0.000 C 
ENDBRANCH  19  20
ENDBRANCH  17  19
ENDBRANCH   7  17
BRANCH   7  24
ATOM     24  C   UNL     1      -0.778  13.150  18.088  0.00  0.00    +0.000 C 
BRANCH  24  25
ATOM     25  C   UNL     1       0.336  13.884  18.808  0.00  0.00    +0.000 A 
ATOM     26  C   UNL     1       1.572  13.259  19.018  0.00  0.00    +0.000 A 
ATOM     27  C   UNL     1       2.580  13.899  19.742  0.00  0.00    +0.000 A 
ATOM     28  C   UNL     1       2.368  15.178  20.251  0.00  0.00    +0.000 A 
ATOM     29  C   UNL     1       1.153  15.821  20.027  0.00  0.00    +0.000 A 
ATOM     30  C   UNL     1       0.144  15.181  19.305  0.00  0.00    +0.000 A 
ENDBRANCH  24  25
ENDBRANCH   7  24
TORSDOF 7
ENDMDL
MODEL 4
REMARK VINA RESULT:      -6.4      1.743      6.472
REMARK  Name = 
REMARK  11 active torsions:
REMARK  status: ('A' for Active; 'I' for Inactive)
REMARK    1  A    between atoms: C_1  and  C_2
REMARK    2  A    between atoms: C_2  and  N_3
REMARK    3  A    between atoms: C_2  and  C_24
REMARK    4  A    between atoms: C_9  and  C_10
REMARK    5  A    between atoms: C_9  and  C_17
REMARK    6  A    between atoms: C_10  and  C_11
REMARK    7  A    between atoms: C_17  and  O_19
REMARK    8  A    between atoms: O_19  and  C_20
REMARK    9  A    between atoms: C_20  and  C_21
REMARK   10  A    between atoms: C_20  and  C_22
REMARK   11  A    between atoms: C_20  and  C_23
REMARK                            x       y       z     vdW  Elec       q    Type
REMARK                         _______ _______ _______ _____ _____    ______ ____
ROOT
ATOM      1  N   UNL     1       6.358   4.618  15.190  0.00  0.00    +0.000 N 
ATOM      2  C   UNL     1       6.979   4.835  16.388  0.00  0.00    +0.000 C 
ATOM      3  O   UNL     1       8.181   4.640  16.555  0.00  0.00    +0.000 OA
ATOM      4  N   UNL     1       6.201   5.361  17.379  0.00  0.00    +0.000 N 
ATOM      5  C   UNL     1       6.605   5.688  18.736  0.00  0.00    +0.000 C 
ATOM      6  C   UNL     1       5.173   5.372  19.160  0.00  0.00    +0.000 C 
ATOM      7  C   UNL     1       4.748   5.416  17.660  0.00  0.00    +0.000 C 
ATOM      8  H   UNL     1       5.346   4.607  15.151  0.00  0.00    +0.000 HD
ENDROOT
BRANCH   1  10
ATOM      9  C   UNL     1       7.961   5.220  13.441  0.00  0.00    +0.000 C 
ATOM     10  C   UNL     1       7.069   4.121  14.021  0.00  0.00    +0.000 C 
BRANCH  10  11
ATOM     11  C   UNL     1       6.133   3.576  12.951  0.00  0.00    +0.000 A 
ATOM     12  C   UNL     1       4.868   4.159  12.764  0.00  0.00    +0.000 A 
ATOM     13  C   UNL     1       3.959   3.625  11.848  0.00  0.00    +0.000 A 
ATOM     14  C   UNL     1       4.302   2.505  11.096  0.00  0.00    +0.000 A 
ATOM     15  C   UNL     1       5.554   1.918  11.260  0.00  0.00    +0.000 A 
ATOM     16  C   UNL     1       6.462   2.449  12.182  0.00  0.00    +0.000 A 
ENDBRANCH  10  11
ENDBRANCH   1  10
BRANCH   7  17
ATOM     17  C   UNL     1       3.949   4.195  17.081  0.00  0.00    +0.000 C 
ATOM     18  O   UNL     1       3.655   4.104  15.885  0.00  0.00    +0.000 OA
BRANCH  17  19
ATOM     19  O   UNL     1       3.630   3.250  18.015  0.00  0.00    +0.000 OA
BRANCH  19  20
ATOM     20  C   UNL     1       2.270   3.166  18.515  0.00  0.00    +0.000 C 
ATOM     21  C   UNL     1       1.345   4.137  17.774  0.00  0.00    +0.000 C 
ATOM     22  C   UNL     1       1.790   1.739  18.209  0.00  0.00    +0.000 C 
ATOM     23  C   UNL     1       2.246   3.367  20.035  0.00  0.00    +0.000 C 
ENDBRANCH  19  20
ENDBRANCH  17  19
ENDBRANCH   7  17
BRANCH   7  24
ATOM     24  C   UNL     1       4.168   6.758  17.162  0.00  0.00    +0.000 C 
BRANCH  24  25
ATOM     25  C   UNL     1       3.141   7.297  18.137  0.00  0.00    +0.000 A 
ATOM     26  C   UNL     1       2.412   8.453  17.827  0.00  0.00    +0.000 A 
ATOM     27  C   UNL     1       1.516   8.999  18.747  0.00  0.00    +0.000 A 
ATOM     28  C   UNL     1       1.327   8.386  19.984  0.00  0.00    +0.000 A 
ATOM     29  C   UNL     1       2.025   7.222  20.295  0.00  0.00    +0.000 A 
ATOM     30  C   UNL     1       2.924   6.676  19.376  0.00  0.00    +0.000 A 
ENDBRANCH  24  25
ENDBRANCH   7  24
TORSDOF 7
ENDMDL
MODEL 5
REMARK VINA RESULT:      -6.4      3.562      6.897
REMARK  Name = 
REMARK  11 active torsions:
REMARK  status: ('A' for Active; 'I' for Inactive)
REMARK    1  A    between atoms: C_1  and  C_2
REMARK    2  A    between atoms: C_2  and  N_3
REMARK    3  A    between atoms: C_2  and  C_24
REMARK    4  A    between atoms: C_9  and  C_10
REMARK    5  A    between atoms: C_9  and  C_17
REMARK    6  A    between atoms: C_10  and  C_11
REMARK    7  A    between atoms: C_17  and  O_19
REMARK    8  A    between atoms: O_19  and  C_20
REMARK    9  A    between atoms: C_20  and  C_21
REMARK   10  A    between atoms: C_20  and  C_22
REMARK   11  A    between atoms: C_20  and  C_23
REMARK                            x       y       z     vdW  Elec       q    Type
REMARK                         _______ _______ _______ _____ _____    ______ ____
ROOT
ATOM      1  N   UNL     1       1.340   9.239  18.252  0.00  0.00    +0.000 N 
ATOM      2  C   UNL     1       1.433   8.687  19.498  0.00  0.00    +0.000 C 
ATOM      3  O   UNL     1       1.082   9.283  20.514  0.00  0.00    +0.000 OA
ATOM      4  N   UNL     1       1.867   7.393  19.548  0.00  0.00    +0.000 N 
ATOM      5  C   UNL     1       2.054   6.572  20.732  0.00  0.00    +0.000 C 
ATOM      6  C   UNL     1       3.168   5.858  19.972  0.00  0.00    +0.000 C 
ATOM      7  C   UNL     1       2.648   6.509  18.654  0.00  0.00    +0.000 C 
ATOM      8  H   UNL     1       1.813   8.793  17.474  0.00  0.00    +0.000 HD
ENDROOT
BRANCH   1  10
ATOM      9  C   UNL     1       1.472  11.558  19.024  0.00  0.00    +0.000 C 
ATOM     10  C   UNL     1       0.834  10.587  18.031  0.00  0.00    +0.000 C 
BRANCH  10  11
ATOM     11  C   UNL     1      -0.685  10.664  18.111  0.00  0.00    +0.000 A 
ATOM     12  C   UNL     1      -1.472   9.784  17.350  0.00  0.00    +0.000 A 
ATOM     13  C   UNL     1      -2.865   9.890  17.342  0.00  0.00    +0.000 A 
ATOM     14  C   UNL     1      -3.495  10.872  18.101  0.00  0.00    +0.000 A 
ATOM     15  C   UNL     1      -2.733  11.748  18.869  0.00  0.00    +0.000 A 
ATOM     16  C   UNL     1      -1.337  11.647  18.872  0.00  0.00    +0.000 A 
ENDBRANCH  10  11
ENDBRANCH   1  10
BRANCH   7  17
ATOM     17  C   UNL     1       3.676   7.277  17.750  0.00  0.00    +0.000 C 
ATOM     18  O   UNL     1       3.328   7.937  16.766  0.00  0.00    +0.000 OA
BRANCH  17  19
ATOM     19  O   UNL     1       4.973   7.158  18.164  0.00  0.00    +0.000 OA
BRANCH  19  20
ATOM     20  C   UNL     1       5.892   6.323  17.413  0.00  0.00    +0.000 C 
ATOM     21  C   UNL     1       5.360   6.040  16.004  0.00  0.00    +0.000 C 
ATOM     22  C   UNL     1       7.187   7.136  17.269  0.00  0.00    +0.000 C 
ATOM     23  C   UNL     1       6.211   5.043  18.195  0.00  0.00    +0.000 C 
ENDBRANCH  19  20
ENDBRANCH  17  19
ENDBRANCH   7  17
BRANCH   7  24
ATOM     24  C   UNL     1       1.690   5.642  17.806  0.00  0.00    +0.000 C 
BRANCH  24  25
ATOM     25  C   UNL     1       1.983   4.167  17.999  0.00  0.00    +0.000 A 
ATOM     26  C   UNL     1       1.184   3.395  18.851  0.00  0.00    +0.000 A 
ATOM     27  C   UNL     1       1.487   2.053  19.092  0.00  0.00    +0.000 A 
ATOM     28  C   UNL     1       2.587   1.466  18.470  0.00  0.00    +0.000 A 
ATOM     29  C   UNL     1       3.375   2.215  17.600  0.00  0.00    +0.000 A 
ATOM     30  C   UNL     1       3.073   3.557  17.361  0.00  0.00    +0.000 A 
ENDBRANCH  24  25
ENDBRANCH   7  24
TORSDOF 7
ENDMDL
MODEL 6
REMARK VINA RESULT:      -6.4      1.763      6.769
REMARK  Name = 
REMARK  11 active torsions:
REMARK  status: ('A' for Active; 'I' for Inactive)
REMARK    1  A    between atoms: C_1  and  C_2
REMARK    2  A    between atoms: C_2  and  N_3
REMARK    3  A    between atoms: C_2  and  C_24
REMARK    4  A    between atoms: C_9  and  C_10
REMARK    5  A    between atoms: C_9  and  C_17
REMARK    6  A    between atoms: C_10  and  C_11
REMARK    7  A    between atoms: C_17  and  O_19
REMARK    8  A    between atoms: O_19  and  C_20
REMARK    9  A    between atoms: C_20  and  C_21
REMARK   10  A    between atoms: C_20  and  C_22
REMARK   11  A    between atoms: C_20  and  C_23
REMARK                            x       y       z     vdW  Elec       q    Type
REMARK                         _______ _______ _______ _____ _____    ______ ____
ROOT
ATOM      1  N   UNL     1       5.679   4.559  15.395  0.00  0.00    +0.000 N 
ATOM      2  C   UNL     1       5.280   5.860  15.519  0.00  0.00    +0.000 C 
ATOM      3  O   UNL     1       5.637   6.739  14.738  0.00  0.00    +0.000 OA
ATOM      4  N   UNL     1       4.389   6.119  16.522  0.00  0.00    +0.000 N 
ATOM      5  C   UNL     1       3.806   7.403  16.871  0.00  0.00    +0.000 C 
ATOM      6  C   UNL     1       3.744   6.901  18.311  0.00  0.00    +0.000 C 
ATOM      7  C   UNL     1       4.007   5.455  17.788  0.00  0.00    +0.000 C 
ATOM      8  H   UNL     1       5.518   3.915  16.161  0.00  0.00    +0.000 HD
ENDROOT
BRANCH   1  10
ATOM      9  C   UNL     1       7.470   5.269  13.885  0.00  0.00    +0.000 C 
ATOM     10  C   UNL     1       6.574   4.115  14.336  0.00  0.00    +0.000 C 
BRANCH  10  11
ATOM     11  C   UNL     1       5.830   3.522  13.147  0.00  0.00    +0.000 A 
ATOM     12  C   UNL     1       6.412   2.482  12.403  0.00  0.00    +0.000 A 
ATOM     13  C   UNL     1       5.787   1.978  11.260  0.00  0.00    +0.000 A 
ATOM     14  C   UNL     1       4.565   2.501  10.845  0.00  0.00    +0.000 A 
ATOM     15  C   UNL     1       3.967   3.526  11.573  0.00  0.00    +0.000 A 
ATOM     16  C   UNL     1       4.596   4.035  12.715  0.00  0.00    +0.000 A 
ENDBRANCH  10  11
ENDBRANCH   1  10
BRANCH   7  17
ATOM     17  C   UNL     1       5.172   4.631  18.443  0.00  0.00    +0.000 C 
ATOM     18  O   UNL     1       5.301   3.415  18.270  0.00  0.00    +0.000 OA
BRANCH  17  19
ATOM     19  O   UNL     1       6.025   5.385  19.199  0.00  0.00    +0.000 OA
BRANCH  19  20
ATOM     20  C   UNL     1       7.376   5.630  18.729  0.00  0.00    +0.000 C 
ATOM     21  C   UNL     1       7.492   7.006  18.065  0.00  0.00    +0.000 C 
ATOM     22  C   UNL     1       8.269   5.637  19.978  0.00  0.00    +0.000 C 
ATOM     23  C   UNL     1       7.837   4.489  17.813  0.00  0.00    +0.000 C 
ENDBRANCH  19  20
ENDBRANCH  17  19
ENDBRANCH   7  17
BRANCH   7  24
ATOM     24  C   UNL     1       2.754   4.580  17.564  0.00  0.00    +0.000 C 
BRANCH  24  25
ATOM     25  C   UNL     1       2.291   3.957  18.866  0.00  0.00    +0.000 A 
ATOM     26  C   UNL     1       2.016   2.585  18.934  0.00  0.00    +0.000 A 
ATOM     27  C   UNL     1       1.521   2.014  20.107  0.00  0.00    +0.000 A 
ATOM     28  C   UNL     1       1.308   2.807  21.232  0.00  0.00    +0.000 A 
ATOM     29  C   UNL     1       1.602   4.168  21.188  0.00  0.00    +0.000 A 
ATOM     30  C   UNL     1       2.095   4.740  20.013  0.00  0.00    +0.000 A 
ENDBRANCH  24  25
ENDBRANCH   7  24
TORSDOF 7
ENDMDL
MODEL 7
REMARK VINA RESULT:      -6.4      1.762      6.831
REMARK  Name = 
REMARK  11 active torsions:
REMARK  status: ('A' for Active; 'I' for Inactive)
REMARK    1  A    between atoms: C_1  and  C_2
REMARK    2  A    between atoms: C_2  and  N_3
REMARK    3  A    between atoms: C_2  and  C_24
REMARK    4  A    between atoms: C_9  and  C_10
REMARK    5  A    between atoms: C_9  and  C_17
REMARK    6  A    between atoms: C_10  and  C_11
REMARK    7  A    between atoms: C_17  and  O_19
REMARK    8  A    between atoms: O_19  and  C_20
REMARK    9  A    between atoms: C_20  and  C_21
REMARK   10  A    between atoms: C_20  and  C_22
REMARK   11  A    between atoms: C_20  and  C_23
REMARK                            x       y       z     vdW  Elec       q    Type
REMARK                         _______ _______ _______ _____ _____    ______ ____
ROOT
ATOM      1  N   UNL     1       5.718   4.561  15.367  0.00  0.00    +0.000 N 
ATOM      2  C   UNL     1       5.298   5.855  15.498  0.00  0.00    +0.000 C 
ATOM      3  O   UNL     1       5.659   6.749  14.736  0.00  0.00    +0.000 OA
ATOM      4  N   UNL     1       4.382   6.090  16.483  0.00  0.00    +0.000 N 
ATOM      5  C   UNL     1       3.773   7.362  16.834  0.00  0.00    +0.000 C 
ATOM      6  C   UNL     1       3.686   6.841  18.266  0.00  0.00    +0.000 C 
ATOM      7  C   UNL     1       3.981   5.406  17.733  0.00  0.00    +0.000 C 
ATOM      8  H   UNL     1       5.550   3.906  16.122  0.00  0.00    +0.000 HD
ENDROOT
BRANCH   1  10
ATOM      9  C   UNL     1       7.553   5.305  13.929  0.00  0.00    +0.000 C 
ATOM     10  C   UNL     1       6.643   4.142  14.323  0.00  0.00    +0.000 C 
BRANCH  10  11
ATOM     11  C   UNL     1       5.932   3.584  13.098  0.00  0.00    +0.000 A 
ATOM     12  C   UNL     1       4.652   4.052  12.756  0.00  0.00    +0.000 A 
ATOM     13  C   UNL     1       3.945   3.496  11.687  0.00  0.00    +0.000 A 
ATOM     14  C   UNL     1       4.509   2.469  10.936  0.00  0.00    +0.000 A 
ATOM     15  C   UNL     1       5.780   1.997  11.253  0.00  0.00    +0.000 A 
ATOM     16  C   UNL     1       6.486   2.549  12.328  0.00  0.00    +0.000 A 
ENDBRANCH  10  11
ENDBRANCH   1  10
BRANCH   7  17
ATOM     17  C   UNL     1       5.142   4.590  18.404  0.00  0.00    +0.000 C 
ATOM     18  O   UNL     1       5.280   3.374  18.236  0.00  0.00    +0.000 OA
BRANCH  17  19
ATOM     19  O   UNL     1       5.982   5.351  19.169  0.00  0.00    +0.000 OA
BRANCH  19  20
ATOM     20  C   UNL     1       7.335   5.606  18.711  0.00  0.00    +0.000 C 
ATOM     21  C   UNL     1       7.448   6.987  18.055  0.00  0.00    +0.000 C 
ATOM     22  C   UNL     1       8.217   5.613  19.968  0.00  0.00    +0.000 C 
ATOM     23  C   UNL     1       7.812   4.473  17.794  0.00  0.00    +0.000 C 
ENDBRANCH  19  20
ENDBRANCH  17  19
ENDBRANCH   7  17
BRANCH   7  24
ATOM     24  C   UNL     1       2.745   4.516  17.471  0.00  0.00    +0.000 C 
BRANCH  24  25
ATOM     25  C   UNL     1       2.207   3.945  18.767  0.00  0.00    +0.000 A 
ATOM     26  C   UNL     1       1.929   4.790  19.849  0.00  0.00    +0.000 A 
ATOM     27  C   UNL     1       1.501   4.268  21.071  0.00  0.00    +0.000 A 
ATOM     28  C   UNL     1       1.331   2.893  21.220  0.00  0.00    +0.000 A 
ATOM     29  C   UNL     1       1.578   2.043  20.144  0.00  0.00    +0.000 A 
ATOM     30  C   UNL     1       2.009   2.565  18.923  0.00  0.00    +0.000 A 
ENDBRANCH  24  25
ENDBRANCH   7  24
TORSDOF 7
ENDMDL
MODEL 8
REMARK VINA RESULT:      -6.3      8.899     11.533
REMARK  Name = 
REMARK  11 active torsions:
REMARK  status: ('A' for Active; 'I' for Inactive)
REMARK    1  A    between atoms: C_1  and  C_2
REMARK    2  A    between atoms: C_2  and  N_3
REMARK    3  A    between atoms: C_2  and  C_24
REMARK    4  A    between atoms: C_9  and  C_10
REMARK    5  A    between atoms: C_9  and  C_17
REMARK    6  A    between atoms: C_10  and  C_11
REMARK    7  A    between atoms: C_17  and  O_19
REMARK    8  A    between atoms: O_19  and  C_20
REMARK    9  A    between atoms: C_20  and  C_21
REMARK   10  A    between atoms: C_20  and  C_22
REMARK   11  A    between atoms: C_20  and  C_23
REMARK                            x       y       z     vdW  Elec       q    Type
REMARK                         _______ _______ _______ _____ _____    ______ ____
ROOT
ATOM      1  N   UNL     1      -3.546  11.704  18.322  0.00  0.00    +0.000 N 
ATOM      2  C   UNL     1      -2.559  10.759  18.330  0.00  0.00    +0.000 C 
ATOM      3  O   UNL     1      -2.761   9.588  18.015  0.00  0.00    +0.000 OA
ATOM      4  N   UNL     1      -1.305  11.206  18.633  0.00  0.00    +0.000 N 
ATOM      5  C   UNL     1      -0.085  10.421  18.709  0.00  0.00    +0.000 C 
ATOM      6  C   UNL     1       0.399  11.410  19.766  0.00  0.00    +0.000 C 
ATOM      7  C   UNL     1      -0.748  12.379  19.345  0.00  0.00    +0.000 C 
ATOM      8  H   UNL     1      -3.380  12.599  18.768  0.00  0.00    +0.000 HD
ENDROOT
BRANCH   1  10
ATOM      9  C   UNL     1      -5.398  12.337  16.852  0.00  0.00    +0.000 C 
ATOM     10  C   UNL     1      -4.921  11.394  17.957  0.00  0.00    +0.000 C 
BRANCH  10  11
ATOM     11  C   UNL     1      -5.871  11.445  19.146  0.00  0.00    +0.000 A 
ATOM     12  C   UNL     1      -5.665  12.388  20.167  0.00  0.00    +0.000 A 
ATOM     13  C   UNL     1      -6.472  12.400  21.308  0.00  0.00    +0.000 A 
ATOM     14  C   UNL     1      -7.503  11.474  21.443  0.00  0.00    +0.000 A 
ATOM     15  C   UNL     1      -7.728  10.537  20.439  0.00  0.00    +0.000 A 
ATOM     16  C   UNL     1      -6.916  10.520  19.299  0.00  0.00    +0.000 A 
ENDBRANCH  10  11
ENDBRANCH   1  10
BRANCH   7  17
ATOM     17  C   UNL     1      -1.693  12.941  20.465  0.00  0.00    +0.000 C 
ATOM     18  O   UNL     1      -1.998  14.136  20.536  0.00  0.00    +0.000 OA
BRANCH  17  19
ATOM     19  O   UNL     1      -2.150  11.989  21.333  0.00  0.00    +0.000 OA
BRANCH  19  20
ATOM     20  C   UNL     1      -1.852  12.105  22.748  0.00  0.00    +0.000 C 
ATOM     21  C   UNL     1      -3.136  12.207  23.578  0.00  0.00    +0.000 C 
ATOM     22  C   UNL     1      -1.141  10.802  23.144  0.00  0.00    +0.000 C 
ATOM     23  C   UNL     1      -0.890  13.274  22.997  0.00  0.00    +0.000 C 
ENDBRANCH  19  20
ENDBRANCH  17  19
ENDBRANCH   7  17
BRANCH   7  24
ATOM     24  C   UNL     1      -0.364  13.476  18.327  0.00  0.00    +0.000 C 
BRANCH  24  25
ATOM     25  C   UNL     1       0.997  14.058  18.649  0.00  0.00    +0.000 A 
ATOM     26  C   UNL     1       2.144  13.567  18.010  0.00  0.00    +0.000 A 
ATOM     27  C   UNL     1       3.410  14.046  18.351  0.00  0.00    +0.000 A 
ATOM     28  C   UNL     1       3.543  15.033  19.325  0.00  0.00    +0.000 A 
ATOM     29  C   UNL     1       2.410  15.549  19.949  0.00  0.00    +0.000 A 
ATOM     30  C   UNL     1       1.143  15.069  19.611  0.00  0.00    +0.000 A 
ENDBRANCH  24  25
ENDBRANCH   7  24
TORSDOF 7
ENDMDL
MODEL 9
REMARK VINA RESULT:      -6.2      8.535     11.614
REMARK  Name = 
REMARK  11 active torsions:
REMARK  status: ('A' for Active; 'I' for Inactive)
REMARK    1  A    between atoms: C_1  and  C_2
REMARK    2  A    between atoms: C_2  and  N_3
REMARK    3  A    between atoms: C_2  and  C_24
REMARK    4  A    between atoms: C_9  and  C_10
REMARK    5  A    between atoms: C_9  and  C_17
REMARK    6  A    between atoms: C_10  and  C_11
REMARK    7  A    between atoms: C_17  and  O_19
REMARK    8  A    between atoms: O_19  and  C_20
REMARK    9  A    between atoms: C_20  and  C_21
REMARK   10  A    between atoms: C_20  and  C_22
REMARK   11  A    between atoms: C_20  and  C_23
REMARK                            x       y       z     vdW  Elec       q    Type
REMARK                         _______ _______ _______ _____ _____    ______ ____
ROOT
ATOM      1  N   UNL     1      -4.320  12.375  19.213  0.00  0.00    +0.000 N 
ATOM      2  C   UNL     1      -3.961  11.440  18.283  0.00  0.00    +0.000 C 
ATOM      3  O   UNL     1      -4.784  10.748  17.688  0.00  0.00    +0.000 OA
ATOM      4  N   UNL     1      -2.629  11.372  17.987  0.00  0.00    +0.000 N 
ATOM      5  C   UNL     1      -1.983  10.476  17.042  0.00  0.00    +0.000 C 
ATOM      6  C   UNL     1      -0.752  10.534  17.942  0.00  0.00    +0.000 C 
ATOM      7  C   UNL     1      -1.377  11.763  18.672  0.00  0.00    +0.000 C 
ATOM      8  H   UNL     1      -3.608  12.781  19.809  0.00  0.00    +0.000 HD
ENDROOT
BRANCH   1  10
ATOM      9  C   UNL     1      -6.199  13.926  18.980  0.00  0.00    +0.000 C 
ATOM     10  C   UNL     1      -5.707  12.611  19.587  0.00  0.00    +0.000 C 
BRANCH  10  11
ATOM     11  C   UNL     1      -5.918  12.609  21.095  0.00  0.00    +0.000 A 
ATOM     12  C   UNL     1      -7.184  12.312  21.625  0.00  0.00    +0.000 A 
ATOM     13  C   UNL     1      -7.424  12.384  22.999  0.00  0.00    +0.000 A 
ATOM     14  C   UNL     1      -6.398  12.747  23.868  0.00  0.00    +0.000 A 
ATOM     15  C   UNL     1      -5.133  13.035  23.364  0.00  0.00    +0.000 A 
ATOM     16  C   UNL     1      -4.895  12.969  21.986  0.00  0.00    +0.000 A 
ENDBRANCH  10  11
ENDBRANCH   1  10
BRANCH   7  17
ATOM     17  C   UNL     1      -1.477  11.722  20.238  0.00  0.00    +0.000 C 
ATOM     18  O   UNL     1      -1.662  12.738  20.916  0.00  0.00    +0.000 OA
BRANCH  17  19
ATOM     19  O   UNL     1      -1.357  10.468  20.767  0.00  0.00    +0.000 OA
BRANCH  19  20
ATOM     20  C   UNL     1      -0.250  10.167  21.656  0.00  0.00    +0.000 C 
ATOM     21  C   UNL     1      -0.633  10.406  23.120  0.00  0.00    +0.000 C 
ATOM     22  C   UNL     1       0.037   8.668  21.487  0.00  0.00    +0.000 C 
ATOM     23  C   UNL     1       1.000  10.948  21.234  0.00  0.00    +0.000 C 
ENDBRANCH  19  20
ENDBRANCH  17  19
ENDBRANCH   7  17
BRANCH   7  24
ATOM     24  C   UNL     1      -0.917  13.150  18.172  0.00  0.00    +0.000 C 
BRANCH  24  25
ATOM     25  C   UNL     1       0.505  13.438  18.610  0.00  0.00    +0.000 A 
ATOM     26  C   UNL     1       0.763  14.442  19.553  0.00  0.00    +0.000 A 
ATOM     27  C   UNL     1       2.074  14.764  19.910  0.00  0.00    +0.000 A 
ATOM     28  C   UNL     1       3.141  14.075  19.340  0.00  0.00    +0.000 A 
ATOM     29  C   UNL     1       2.898  13.056  18.421  0.00  0.00    +0.000 A 
ATOM     30  C   UNL     1       1.587  12.736  18.061  0.00  0.00    +0.000 A 
ENDBRANCH  24  25
ENDBRANCH   7  24
TORSDOF 7
ENDMDL
