MODEL 1
REMARK VINA RESULT:      -8.1      0.000      0.000
REMARK  Name = 
REMARK  6 active torsions:
REMARK  status: ('A' for Active; 'I' for Inactive)
REMARK    1  A    between atoms: C_1  and  C_2
REMARK    2  A    between atoms: C_6  and  C_8
REMARK    3  A    between atoms: C_8  and  S_9
REMARK    4  A    between atoms: S_9  and  C_10
REMARK    5  A    between atoms: C_13  and  C_14
REMARK    6  A    between atoms: N_20  and  C_21
REMARK                            x       y       z     vdW  Elec       q    Type
REMARK                         _______ _______ _______ _____ _____    ______ ____
ROOT
ATOM      1  S   UNL     1       7.176   6.743  17.293  0.00  0.00    +0.000 S 
ENDROOT
BRANCH   1   2
ATOM      2  C   UNL     1       6.262   5.581  18.191  0.00  0.00    +0.000 A 
ATOM      3  N   UNL     1       6.731   4.574  18.883  0.00  0.00    +0.000 NA
ATOM      4  N   UNL     1       5.651   3.869  19.365  0.00  0.00    +0.000 NA
ATOM      5  C   UNL     1       4.535   4.435  18.930  0.00  0.00    +0.000 A 
ATOM      6  N   UNL     1       4.891   5.579  18.240  0.00  0.00    +0.000 N 
ATOM      7  C   UNL     1       4.032   6.609  17.713  0.00  0.00    +0.000 C 
BRANCH   5   8
ATOM      8  C   UNL     1       3.179   3.922  19.175  0.00  0.00    +0.000 A 
ATOM      9  C   UNL     1       2.448   4.391  20.278  0.00  0.00    +0.000 A 
ATOM     10  C   UNL     1       1.153   3.925  20.535  0.00  0.00    +0.000 A 
ATOM     11  C   UNL     1       0.569   2.985  19.690  0.00  0.00    +0.000 A 
ATOM     12  C   UNL     1       1.289   2.487  18.608  0.00  0.00    +0.000 A 
ATOM     13  C   UNL     1       2.592   2.937  18.367  0.00  0.00    +0.000 A 
ENDBRANCH   5   8
ENDBRANCH   1   2
BRANCH   1  14
ATOM     14  C   UNL     1       8.262   7.431  18.577  0.00  0.00    +0.000 C 
BRANCH  14  20
ATOM     15  C   UNL     1      11.184  14.074  20.163  0.00  0.00    +0.000 C 
ATOM     16  C   UNL     1      10.483  12.857  19.712  0.00  0.00    +0.000 A 
ATOM     17  C   UNL     1      10.488  11.535  20.088  0.00  0.00    +0.000 A 
ATOM     18  C   UNL     1       9.564  10.905  19.212  0.00  0.00    +0.000 A 
ATOM     19  N   UNL     1       9.267   9.551  19.234  0.00  0.00    +0.000 N 
ATOM     20  C   UNL     1       8.375   8.936  18.366  0.00  0.00    +0.000 C 
ATOM     21  O   UNL     1       7.722   9.489  17.484  0.00  0.00    +0.000 OA
ATOM     22  N   UNL     1       9.040  11.805  18.375  0.00  0.00    +0.000 NA
ATOM     23  O   UNL     1       9.614  13.018  18.685  0.00  0.00    +0.000 OA
ATOM     24  H   UNL     1       9.763   8.992  19.910  0.00  0.00    +0.000 HD
ENDBRANCH  14  20
ENDBRANCH   1  14
TORSDOF 4
ENDMDL
MODEL 2
REMARK VINA RESULT:      -8.0      4.854      7.008
REMARK  Name = 
REMARK  6 active torsions:
REMARK  status: ('A' for Active; 'I' for Inactive)
REMARK    1  A    between atoms: C_1  and  C_2
REMARK    2  A    between atoms: C_6  and  C_8
REMARK    3  A    between atoms: C_8  and  S_9
REMARK    4  A    between atoms: S_9  and  C_10
REMARK    5  A    between atoms: C_13  and  C_14
REMARK    6  A    between atoms: N_20  and  C_21
REMARK                            x       y       z     vdW  Elec       q    Type
REMARK                         _______ _______ _______ _____ _____    ______ ____
ROOT
ATOM      1  S   UNL     1       3.754   4.897  18.568  0.00  0.00    +0.000 S 
ENDROOT
BRANCH   1   2
ATOM      2  C   UNL     1       2.959   6.422  18.759  0.00  0.00    +0.000 A 
ATOM      3  N   UNL     1       3.049   7.462  17.969  0.00  0.00    +0.000 NA
ATOM      4  N   UNL     1       2.317   8.477  18.542  0.00  0.00    +0.000 NA
ATOM      5  C   UNL     1       1.820   8.054  19.695  0.00  0.00    +0.000 A 
ATOM      6  N   UNL     1       2.149   6.719  19.826  0.00  0.00    +0.000 N 
ATOM      7  C   UNL     1       1.708   5.782  20.828  0.00  0.00    +0.000 C 
BRANCH   5   8
ATOM      8  C   UNL     1       1.044   8.882  20.632  0.00  0.00    +0.000 A 
ATOM      9  C   UNL     1       0.179   9.868  20.135  0.00  0.00    +0.000 A 
ATOM     10  C   UNL     1      -0.576  10.669  21.001  0.00  0.00    +0.000 A 
ATOM     11  C   UNL     1      -0.477  10.491  22.378  0.00  0.00    +0.000 A 
ATOM     12  C   UNL     1       0.397   9.537  22.891  0.00  0.00    +0.000 A 
ATOM     13  C   UNL     1       1.167   8.755  22.024  0.00  0.00    +0.000 A 
ENDBRANCH   5   8
ENDBRANCH   1   2
BRANCH   1  14
ATOM     14  C   UNL     1       5.449   5.297  19.086  0.00  0.00    +0.000 C 
BRANCH  14  20
ATOM     15  C   UNL     1       7.076   3.981  11.958  0.00  0.00    +0.000 C 
ATOM     16  C   UNL     1       6.924   4.362  13.375  0.00  0.00    +0.000 A 
ATOM     17  C   UNL     1       6.072   4.005  14.393  0.00  0.00    +0.000 A 
ATOM     18  C   UNL     1       6.497   4.775  15.508  0.00  0.00    +0.000 A 
ATOM     19  N   UNL     1       5.897   4.735  16.758  0.00  0.00    +0.000 N 
ATOM     20  C   UNL     1       6.305   5.500  17.842  0.00  0.00    +0.000 C 
ATOM     21  O   UNL     1       7.243   6.294  17.858  0.00  0.00    +0.000 OA
ATOM     22  N   UNL     1       7.542   5.535  15.169  0.00  0.00    +0.000 NA
ATOM     23  O   UNL     1       7.806   5.279  13.841  0.00  0.00    +0.000 OA
ATOM     24  H   UNL     1       5.098   4.129  16.854  0.00  0.00    +0.000 HD
ENDBRANCH  14  20
ENDBRANCH   1  14
TORSDOF 4
ENDMDL
MODEL 3
REMARK VINA RESULT:      -7.9      4.754      6.842
REMARK  Name = 
REMARK  6 active torsions:
REMARK  status: ('A' for Active; 'I' for Inactive)
REMARK    1  A    between atoms: C_1  and  C_2
REMARK    2  A    between atoms: C_6  and  C_8
REMARK    3  A    between atoms: C_8  and  S_9
REMARK    4  A    between atoms: S_9  and  C_10
REMARK    5  A    between atoms: C_13  and  C_14
REMARK    6  A    between atoms: N_20  and  C_21
REMARK                            x       y       z     vdW  Elec       q    Type
REMARK                         _______ _______ _______ _____ _____    ______ ____
ROOT
ATOM      1  S   UNL     1       4.286   4.727  19.084  0.00  0.00    +0.000 S 
ENDROOT
BRANCH   1   2
ATOM      2  C   UNL     1       3.487   6.202  18.662  0.00  0.00    +0.000 A 
ATOM      3  N   UNL     1       3.767   6.988  17.653  0.00  0.00    +0.000 NA
ATOM      4  N   UNL     1       2.936   8.082  17.744  0.00  0.00    +0.000 NA
ATOM      5  C   UNL     1       2.185   7.967  18.830  0.00  0.00    +0.000 A 
ATOM      6  N   UNL     1       2.459   6.737  19.396  0.00  0.00    +0.000 N 
ATOM      7  C   UNL     1       1.791   6.089  20.497  0.00  0.00    +0.000 C 
BRANCH   5   8
ATOM      8  C   UNL     1       1.227   8.978  19.303  0.00  0.00    +0.000 A 
ATOM      9  C   UNL     1       1.040   9.165  20.682  0.00  0.00    +0.000 A 
ATOM     10  C   UNL     1       0.140  10.122  21.163  0.00  0.00    +0.000 A 
ATOM     11  C   UNL     1      -0.586  10.909  20.272  0.00  0.00    +0.000 A 
ATOM     12  C   UNL     1      -0.435  10.718  18.902  0.00  0.00    +0.000 A 
ATOM     13  C   UNL     1       0.448   9.744  18.423  0.00  0.00    +0.000 A 
ENDBRANCH   5   8
ENDBRANCH   1   2
BRANCH   1  14
ATOM     14  C   UNL     1       5.981   5.301  19.397  0.00  0.00    +0.000 C 
BRANCH  14  20
ATOM     15  C   UNL     1       6.778   3.908  12.144  0.00  0.00    +0.000 C 
ATOM     16  C   UNL     1       6.789   4.305  13.565  0.00  0.00    +0.000 A 
ATOM     17  C   UNL     1       6.061   3.959  14.678  0.00  0.00    +0.000 A 
ATOM     18  C   UNL     1       6.610   4.741  15.729  0.00  0.00    +0.000 A 
ATOM     19  N   UNL     1       6.159   4.715  17.039  0.00  0.00    +0.000 N 
ATOM     20  C   UNL     1       6.688   5.491  18.061  0.00  0.00    +0.000 C 
ATOM     21  O   UNL     1       7.620   6.286  17.960  0.00  0.00    +0.000 OA
ATOM     22  N   UNL     1       7.609   5.497  15.263  0.00  0.00    +0.000 NA
ATOM     23  O   UNL     1       7.718   5.227  13.916  0.00  0.00    +0.000 OA
ATOM     24  H   UNL     1       5.377   4.109  17.234  0.00  0.00    +0.000 HD
ENDBRANCH  14  20
ENDBRANCH   1  14
TORSDOF 4
ENDMDL
MODEL 4
REMARK VINA RESULT:      -7.6      1.038      1.547
REMARK  Name = 
REMARK  6 active torsions:
REMARK  status: ('A' for Active; 'I' for Inactive)
REMARK    1  A    between atoms: C_1  and  C_2
REMARK    2  A    between atoms: C_6  and  C_8
REMARK    3  A    between atoms: C_8  and  S_9
REMARK    4  A    between atoms: S_9  and  C_10
REMARK    5  A    between atoms: C_13  and  C_14
REMARK    6  A    between atoms: N_20  and  C_21
REMARK                            x       y       z     vdW  Elec       q    Type
REMARK                         _______ _______ _______ _____ _____    ______ ____
ROOT
ATOM      1  S   UNL     1       6.872   6.458  16.779  0.00  0.00    +0.000 S 
ENDROOT
BRANCH   1   2
ATOM      2  C   UNL     1       5.265   6.327  17.406  0.00  0.00    +0.000 A 
ATOM      3  N   UNL     1       4.366   7.277  17.475  0.00  0.00    +0.000 NA
ATOM      4  N   UNL     1       3.264   6.754  18.112  0.00  0.00    +0.000 NA
ATOM      5  C   UNL     1       3.518   5.500  18.458  0.00  0.00    +0.000 A 
ATOM      6  N   UNL     1       4.762   5.173  17.951  0.00  0.00    +0.000 N 
ATOM      7  C   UNL     1       5.410   3.886  17.930  0.00  0.00    +0.000 C 
BRANCH   5   8
ATOM      8  C   UNL     1       2.608   4.636  19.224  0.00  0.00    +0.000 A 
ATOM      9  C   UNL     1       2.724   4.572  20.622  0.00  0.00    +0.000 A 
ATOM     10  C   UNL     1       1.870   3.763  21.380  0.00  0.00    +0.000 A 
ATOM     11  C   UNL     1       0.883   3.007  20.751  0.00  0.00    +0.000 A 
ATOM     12  C   UNL     1       0.771   3.036  19.364  0.00  0.00    +0.000 A 
ATOM     13  C   UNL     1       1.642   3.828  18.607  0.00  0.00    +0.000 A 
ENDBRANCH   5   8
ENDBRANCH   1   2
BRANCH   1  14
ATOM     14  C   UNL     1       7.782   7.078  18.224  0.00  0.00    +0.000 C 
BRANCH  14  20
ATOM     15  C   UNL     1      11.092  13.460  20.097  0.00  0.00    +0.000 C 
ATOM     16  C   UNL     1      10.331  12.305  19.584  0.00  0.00    +0.000 A 
ATOM     17  C   UNL     1      10.213  10.982  19.936  0.00  0.00    +0.000 A 
ATOM     18  C   UNL     1       9.299  10.435  18.996  0.00  0.00    +0.000 A 
ATOM     19  N   UNL     1       8.901   9.107  18.977  0.00  0.00    +0.000 N 
ATOM     20  C   UNL     1       8.020   8.573  18.047  0.00  0.00    +0.000 C 
ATOM     21  O   UNL     1       7.465   9.185  17.137  0.00  0.00    +0.000 OA
ATOM     22  N   UNL     1       8.896  11.383  18.145  0.00  0.00    +0.000 NA
ATOM     23  O   UNL     1       9.539  12.545  18.510  0.00  0.00    +0.000 OA
ATOM     24  H   UNL     1       9.313   8.504  19.670  0.00  0.00    +0.000 HD
ENDBRANCH  14  20
ENDBRANCH   1  14
TORSDOF 4
ENDMDL
MODEL 5
REMARK VINA RESULT:      -7.5      1.712      2.428
REMARK  Name = 
REMARK  6 active torsions:
REMARK  status: ('A' for Active; 'I' for Inactive)
REMARK    1  A    between atoms: C_1  and  C_2
REMARK    2  A    between atoms: C_6  and  C_8
REMARK    3  A    between atoms: C_8  and  S_9
REMARK    4  A    between atoms: S_9  and  C_10
REMARK    5  A    between atoms: C_13  and  C_14
REMARK    6  A    between atoms: N_20  and  C_21
REMARK                            x       y       z     vdW  Elec       q    Type
REMARK                         _______ _______ _______ _____ _____    ______ ____
ROOT
ATOM      1  S   UNL     1       8.098   7.510  18.109  0.00  0.00    +0.000 S 
ENDROOT
BRANCH   1   2
ATOM      2  C   UNL     1       6.701   6.744  17.434  0.00  0.00    +0.000 A 
ATOM      3  N   UNL     1       6.180   6.957  16.252  0.00  0.00    +0.000 NA
ATOM      4  N   UNL     1       5.038   6.194  16.164  0.00  0.00    +0.000 NA
ATOM      5  C   UNL     1       4.856   5.553  17.309  0.00  0.00    +0.000 A 
ATOM      6  N   UNL     1       5.945   5.824  18.115  0.00  0.00    +0.000 N 
ATOM      7  C   UNL     1       6.283   5.241  19.389  0.00  0.00    +0.000 C 
BRANCH   5   8
ATOM      8  C   UNL     1       3.700   4.699  17.622  0.00  0.00    +0.000 A 
ATOM      9  C   UNL     1       3.726   3.340  17.272  0.00  0.00    +0.000 A 
ATOM     10  C   UNL     1       2.644   2.500  17.561  0.00  0.00    +0.000 A 
ATOM     11  C   UNL     1       1.519   3.008  18.207  0.00  0.00    +0.000 A 
ATOM     12  C   UNL     1       1.464   4.359  18.537  0.00  0.00    +0.000 A 
ATOM     13  C   UNL     1       2.537   5.201  18.226  0.00  0.00    +0.000 A 
ENDBRANCH   5   8
ENDBRANCH   1   2
BRANCH   1  14
ATOM     14  C   UNL     1       7.805   9.252  17.686  0.00  0.00    +0.000 C 
BRANCH  14  20
ATOM     15  C   UNL     1      11.935  15.385  18.401  0.00  0.00    +0.000 C 
ATOM     16  C   UNL     1      11.206  14.104  18.435  0.00  0.00    +0.000 A 
ATOM     17  C   UNL     1      10.334  13.457  17.593  0.00  0.00    +0.000 A 
ATOM     18  C   UNL     1      10.012  12.246  18.263  0.00  0.00    +0.000 A 
ATOM     19  N   UNL     1       9.142  11.288  17.767  0.00  0.00    +0.000 N 
ATOM     20  C   UNL     1       8.818  10.112  18.431  0.00  0.00    +0.000 C 
ATOM     21  O   UNL     1       9.256   9.751  19.522  0.00  0.00    +0.000 OA
ATOM     22  N   UNL     1      10.664  12.181  19.428  0.00  0.00    +0.000 NA
ATOM     23  O   UNL     1      11.405  13.337  19.535  0.00  0.00    +0.000 OA
ATOM     24  H   UNL     1       8.705  11.491  16.882  0.00  0.00    +0.000 HD
ENDBRANCH  14  20
ENDBRANCH   1  14
TORSDOF 4
ENDMDL
MODEL 6
REMARK VINA RESULT:      -7.5      1.737      2.287
REMARK  Name = 
REMARK  6 active torsions:
REMARK  status: ('A' for Active; 'I' for Inactive)
REMARK    1  A    between atoms: C_1  and  C_2
REMARK    2  A    between atoms: C_6  and  C_8
REMARK    3  A    between atoms: C_8  and  S_9
REMARK    4  A    between atoms: S_9  and  C_10
REMARK    5  A    between atoms: C_13  and  C_14
REMARK    6  A    between atoms: N_20  and  C_21
REMARK                            x       y       z     vdW  Elec       q    Type
REMARK                         _______ _______ _______ _____ _____    ______ ____
ROOT
ATOM      1  S   UNL     1       8.118   7.519  18.217  0.00  0.00    +0.000 S 
ENDROOT
BRANCH   1   2
ATOM      2  C   UNL     1       6.751   6.744  17.492  0.00  0.00    +0.000 A 
ATOM      3  N   UNL     1       6.258   6.970  16.301  0.00  0.00    +0.000 NA
ATOM      4  N   UNL     1       5.130   6.192  16.170  0.00  0.00    +0.000 NA
ATOM      5  C   UNL     1       4.929   5.527  17.298  0.00  0.00    +0.000 A 
ATOM      6  N   UNL     1       5.992   5.801  18.137  0.00  0.00    +0.000 N 
ATOM      7  C   UNL     1       6.306   5.201  19.409  0.00  0.00    +0.000 C 
BRANCH   5   8
ATOM      8  C   UNL     1       3.778   4.651  17.566  0.00  0.00    +0.000 A 
ATOM      9  C   UNL     1       2.577   5.205  18.034  0.00  0.00    +0.000 A 
ATOM     10  C   UNL     1       1.464   4.398  18.294  0.00  0.00    +0.000 A 
ATOM     11  C   UNL     1       1.535   3.023  18.086  0.00  0.00    +0.000 A 
ATOM     12  C   UNL     1       2.726   2.451  17.649  0.00  0.00    +0.000 A 
ATOM     13  C   UNL     1       3.845   3.258  17.413  0.00  0.00    +0.000 A 
ENDBRANCH   5   8
ENDBRANCH   1   2
BRANCH   1  14
ATOM     14  C   UNL     1       7.868   9.249  17.721  0.00  0.00    +0.000 C 
BRANCH  14  20
ATOM     15  C   UNL     1      12.042  15.359  18.373  0.00  0.00    +0.000 C 
ATOM     16  C   UNL     1      11.299  14.086  18.424  0.00  0.00    +0.000 A 
ATOM     17  C   UNL     1      10.443  13.424  17.577  0.00  0.00    +0.000 A 
ATOM     18  C   UNL     1      10.090  12.236  18.272  0.00  0.00    +0.000 A 
ATOM     19  N   UNL     1       9.224  11.272  17.781  0.00  0.00    +0.000 N 
ATOM     20  C   UNL     1       8.869  10.121  18.469  0.00  0.00    +0.000 C 
ATOM     21  O   UNL     1       9.272   9.787  19.582  0.00  0.00    +0.000 OA
ATOM     22  N   UNL     1      10.708  12.199  19.457  0.00  0.00    +0.000 NA
ATOM     23  O   UNL     1      11.458  13.351  19.551  0.00  0.00    +0.000 OA
ATOM     24  H   UNL     1       8.815  11.454  16.878  0.00  0.00    +0.000 HD
ENDBRANCH  14  20
ENDBRANCH   1  14
TORSDOF 4
ENDMDL
MODEL 7
REMARK VINA RESULT:      -7.4      5.198      6.876
REMARK  Name = 
REMARK  6 active torsions:
REMARK  status: ('A' for Active; 'I' for Inactive)
REMARK    1  A    between atoms: C_1  and  C_2
REMARK    2  A    between atoms: C_6  and  C_8
REMARK    3  A    between atoms: C_8  and  S_9
REMARK    4  A    between atoms: S_9  and  C_10
REMARK    5  A    between atoms: C_13  and  C_14
REMARK    6  A    between atoms: N_20  and  C_21
REMARK                            x       y       z     vdW  Elec       q    Type
REMARK                         _______ _______ _______ _____ _____    ______ ____
ROOT
ATOM      1  S   UNL     1       2.882   3.399  18.897  0.00  0.00    +0.000 S 
ENDROOT
BRANCH   1   2
ATOM      2  C   UNL     1       2.410   4.912  19.590  0.00  0.00    +0.000 A 
ATOM      3  N   UNL     1       1.899   5.109  20.779  0.00  0.00    +0.000 NA
ATOM      4  N   UNL     1       1.602   6.449  20.882  0.00  0.00    +0.000 NA
ATOM      5  C   UNL     1       1.902   7.048  19.738  0.00  0.00    +0.000 A 
ATOM      6  N   UNL     1       2.492   6.105  18.918  0.00  0.00    +0.000 N 
ATOM      7  C   UNL     1       3.126   6.303  17.639  0.00  0.00    +0.000 C 
BRANCH   5   8
ATOM      8  C   UNL     1       1.654   8.467  19.439  0.00  0.00    +0.000 A 
ATOM      9  C   UNL     1       2.171   9.028  18.261  0.00  0.00    +0.000 A 
ATOM     10  C   UNL     1       1.948  10.374  17.946  0.00  0.00    +0.000 A 
ATOM     11  C   UNL     1       1.203  11.178  18.805  0.00  0.00    +0.000 A 
ATOM     12  C   UNL     1       0.707  10.646  19.992  0.00  0.00    +0.000 A 
ATOM     13  C   UNL     1       0.951   9.306  20.315  0.00  0.00    +0.000 A 
ENDBRANCH   5   8
ENDBRANCH   1   2
BRANCH   1  14
ATOM     14  C   UNL     1       4.556   3.190  19.572  0.00  0.00    +0.000 C 
BRANCH  14  20
ATOM     15  C   UNL     1       7.491   5.051  13.007  0.00  0.00    +0.000 C 
ATOM     16  C   UNL     1       7.048   4.811  14.393  0.00  0.00    +0.000 A 
ATOM     17  C   UNL     1       6.142   3.971  14.995  0.00  0.00    +0.000 A 
ATOM     18  C   UNL     1       6.224   4.280  16.379  0.00  0.00    +0.000 A 
ATOM     19  N   UNL     1       5.461   3.667  17.361  0.00  0.00    +0.000 N 
ATOM     20  C   UNL     1       5.532   3.982  18.711  0.00  0.00    +0.000 C 
ATOM     21  O   UNL     1       6.274   4.818  19.224  0.00  0.00    +0.000 OA
ATOM     22  N   UNL     1       7.131   5.240  16.582  0.00  0.00    +0.000 NA
ATOM     23  O   UNL     1       7.642   5.571  15.346  0.00  0.00    +0.000 OA
ATOM     24  H   UNL     1       4.798   2.975  17.050  0.00  0.00    +0.000 HD
ENDBRANCH  14  20
ENDBRANCH   1  14
TORSDOF 4
ENDMDL
MODEL 8
REMARK VINA RESULT:      -7.4      5.027      7.495
REMARK  Name = 
REMARK  6 active torsions:
REMARK  status: ('A' for Active; 'I' for Inactive)
REMARK    1  A    between atoms: C_1  and  C_2
REMARK    2  A    between atoms: C_6  and  C_8
REMARK    3  A    between atoms: C_8  and  S_9
REMARK    4  A    between atoms: S_9  and  C_10
REMARK    5  A    between atoms: C_13  and  C_14
REMARK    6  A    between atoms: N_20  and  C_21
REMARK                            x       y       z     vdW  Elec       q    Type
REMARK                         _______ _______ _______ _____ _____    ______ ____
ROOT
ATOM      1  S   UNL     1       2.956   5.887  18.361  0.00  0.00    +0.000 S 
ENDROOT
BRANCH   1   2
ATOM      2  C   UNL     1       2.199   7.020  19.427  0.00  0.00    +0.000 A 
ATOM      3  N   UNL     1       1.841   6.814  20.670  0.00  0.00    +0.000 NA
ATOM      4  N   UNL     1       1.209   7.955  21.108  0.00  0.00    +0.000 NA
ATOM      5  C   UNL     1       1.158   8.831  20.115  0.00  0.00    +0.000 A 
ATOM      6  N   UNL     1       1.851   8.291  19.049  0.00  0.00    +0.000 N 
ATOM      7  C   UNL     1       2.206   8.920  17.801  0.00  0.00    +0.000 C 
BRANCH   5   8
ATOM      8  C   UNL     1       0.490  10.140  20.180  0.00  0.00    +0.000 A 
ATOM      9  C   UNL     1      -0.753  10.317  19.553  0.00  0.00    +0.000 A 
ATOM     10  C   UNL     1      -1.415  11.550  19.600  0.00  0.00    +0.000 A 
ATOM     11  C   UNL     1      -0.844  12.623  20.279  0.00  0.00    +0.000 A 
ATOM     12  C   UNL     1       0.401  12.475  20.883  0.00  0.00    +0.000 A 
ATOM     13  C   UNL     1       1.072  11.249  20.814  0.00  0.00    +0.000 A 
ENDBRANCH   5   8
ENDBRANCH   1   2
BRANCH   1  14
ATOM     14  C   UNL     1       4.591   5.691  19.128  0.00  0.00    +0.000 C 
BRANCH  14  20
ATOM     15  C   UNL     1       7.026   4.099  12.293  0.00  0.00    +0.000 C 
ATOM     16  C   UNL     1       6.730   4.501  13.681  0.00  0.00    +0.000 A 
ATOM     17  C   UNL     1       5.680   4.310  14.547  0.00  0.00    +0.000 A 
ATOM     18  C   UNL     1       6.063   4.985  15.737  0.00  0.00    +0.000 A 
ATOM     19  N   UNL     1       5.281   5.058  16.879  0.00  0.00    +0.000 N 
ATOM     20  C   UNL     1       5.651   5.731  18.035  0.00  0.00    +0.000 C 
ATOM     21  O   UNL     1       6.707   6.334  18.217  0.00  0.00    +0.000 OA
ATOM     22  N   UNL     1       7.272   5.534  15.583  0.00  0.00    +0.000 NA
ATOM     23  O   UNL     1       7.685   5.234  14.304  0.00  0.00    +0.000 OA
ATOM     24  H   UNL     1       4.378   4.613  16.835  0.00  0.00    +0.000 HD
ENDBRANCH  14  20
ENDBRANCH   1  14
TORSDOF 4
ENDMDL
MODEL 9
REMARK VINA RESULT:      -7.3      4.135      6.303
REMARK  Name = 
REMARK  6 active torsions:
REMARK  status: ('A' for Active; 'I' for Inactive)
REMARK    1  A    between atoms: C_1  and  C_2
REMARK    2  A    between atoms: C_6  and  C_8
REMARK    3  A    between atoms: C_8  and  S_9
REMARK    4  A    between atoms: S_9  and  C_10
REMARK    5  A    between atoms: C_13  and  C_14
REMARK    6  A    between atoms: N_20  and  C_21
REMARK                            x       y       z     vdW  Elec       q    Type
REMARK                         _______ _______ _______ _____ _____    ______ ____
ROOT
ATOM      1  S   UNL     1       1.824   2.093  19.555  0.00  0.00    +0.000 S 
ENDROOT
BRANCH   1   2
ATOM      2  C   UNL     1       2.103   3.746  19.984  0.00  0.00    +0.000 A 
ATOM      3  N   UNL     1       2.504   4.202  21.143  0.00  0.00    +0.000 NA
ATOM      4  N   UNL     1       2.515   5.577  21.061  0.00  0.00    +0.000 NA
ATOM      5  C   UNL     1       2.085   5.943  19.863  0.00  0.00    +0.000 A 
ATOM      6  N   UNL     1       1.886   4.792  19.123  0.00  0.00    +0.000 N 
ATOM      7  C   UNL     1       1.571   4.672  17.722  0.00  0.00    +0.000 C 
BRANCH   5   8
ATOM      8  C   UNL     1       1.886   7.333  19.427  0.00  0.00    +0.000 A 
ATOM      9  C   UNL     1       1.253   8.246  20.286  0.00  0.00    +0.000 A 
ATOM     10  C   UNL     1       1.054   9.577  19.902  0.00  0.00    +0.000 A 
ATOM     11  C   UNL     1       1.487  10.017  18.654  0.00  0.00    +0.000 A 
ATOM     12  C   UNL     1       2.091   9.119  17.777  0.00  0.00    +0.000 A 
ATOM     13  C   UNL     1       2.268   7.783  18.154  0.00  0.00    +0.000 A 
ENDBRANCH   5   8
ENDBRANCH   1   2
BRANCH   1  14
ATOM     14  C   UNL     1       3.307   1.709  18.579  0.00  0.00    +0.000 C 
BRANCH  14  20
ATOM     15  C   UNL     1       7.772   7.579  17.693  0.00  0.00    +0.000 C 
ATOM     16  C   UNL     1       6.994   6.376  18.043  0.00  0.00    +0.000 A 
ATOM     17  C   UNL     1       5.997   5.651  17.436  0.00  0.00    +0.000 A 
ATOM     18  C   UNL     1       5.704   4.602  18.348  0.00  0.00    +0.000 A 
ATOM     19  N   UNL     1       4.736   3.632  18.137  0.00  0.00    +0.000 N 
ATOM     20  C   UNL     1       4.442   2.617  19.037  0.00  0.00    +0.000 C 
ATOM     21  O   UNL     1       4.991   2.425  20.119  0.00  0.00    +0.000 OA
ATOM     22  N   UNL     1       6.488   4.699  19.425  0.00  0.00    +0.000 NA
ATOM     23  O   UNL     1       7.290   5.804  19.235  0.00  0.00    +0.000 OA
ATOM     24  H   UNL     1       4.205   3.705  17.284  0.00  0.00    +0.000 HD
ENDBRANCH  14  20
ENDBRANCH   1  14
TORSDOF 4
ENDMDL
