MODEL 1
REMARK VINA RESULT:      -7.7      0.000      0.000
REMARK  Name = 
REMARK  7 active torsions:
REMARK  status: ('A' for Active; 'I' for Inactive)
REMARK    1  A    between atoms: C_1  and  C_2
REMARK    2  A    between atoms: C_2  and  C_3
REMARK    3  A    between atoms: C_2  and  O_4
REMARK    4  A    between atoms: O_4  and  C_5
REMARK    5  A    between atoms: C_8  and  C_9
REMARK    6  A    between atoms: C_9  and  N_10
REMARK    7  A    between atoms: C_11  and  C_13
REMARK                            x       y       z     vdW  Elec       q    Type
REMARK                         _______ _______ _______ _____ _____    ______ ____
ROOT
ATOM      1  C   UNL     1       6.346   4.962  18.442  0.00  0.00    +0.000 C 
ENDROOT
BRANCH   1   5
ATOM      2  C   UNL     1       6.586   4.472  14.228  0.00  0.00    +0.000 A 
ATOM      3  C   UNL     1       5.680   3.688  14.922  0.00  0.00    +0.000 A 
ATOM      4  C   UNL     1       5.566   3.863  16.300  0.00  0.00    +0.000 A 
ATOM      5  C   UNL     1       6.390   4.784  16.952  0.00  0.00    +0.000 A 
ATOM      6  C   UNL     1       7.283   5.504  16.161  0.00  0.00    +0.000 A 
ATOM      7  N   UNL     1       7.394   5.377  14.816  0.00  0.00    +0.000 NA
BRANCH   2   8
ATOM      8  O   UNL     1       6.644   4.269  12.865  0.00  0.00    +0.000 OA
BRANCH   8  10
ATOM      9  C   UNL     1       4.760   3.457  11.666  0.00  0.00    +0.000 C 
ATOM     10  C   UNL     1       6.037   3.053  12.406  0.00  0.00    +0.000 C 
ATOM     11  C   UNL     1       6.966   2.317  11.440  0.00  0.00    +0.000 C 
ENDBRANCH   8  10
ENDBRANCH   2   8
ENDBRANCH   1   5
BRANCH   1  12
ATOM     12  N   UNL     1       5.355   4.129  19.093  0.00  0.00    +0.000 N 
ATOM     13  C   UNL     1       4.132   4.666  19.433  0.00  0.00    +0.000 C 
ATOM     14  O   UNL     1       3.805   5.808  19.126  0.00  0.00    +0.000 OA
ATOM     15  H   UNL     1       5.593   3.172  19.323  0.00  0.00    +0.000 HD
BRANCH  13  16
ATOM     16  C   UNL     1       3.200   3.732  20.200  0.00  0.00    +0.000 C 
ATOM     17  C   UNL     1       3.430   2.248  19.847  0.00  0.00    +0.000 C 
ATOM     18  C   UNL     1       2.832   2.009  18.461  0.00  0.00    +0.000 C 
ATOM     19  S   UNL     1       1.397   3.065  18.386  0.00  0.00    +0.000 S 
ATOM     20  O   UNL     1       0.212   2.265  18.622  0.00  0.00    +0.000 OA
ATOM     21  O   UNL     1       1.513   3.952  17.249  0.00  0.00    +0.000 OA
ATOM     22  C   UNL     1       1.736   4.005  19.865  0.00  0.00    +0.000 C 
ENDBRANCH  13  16
ENDBRANCH   1  12
TORSDOF 5
ENDMDL
MODEL 2
REMARK VINA RESULT:      -7.1      1.155      1.262
REMARK  Name = 
REMARK  7 active torsions:
REMARK  status: ('A' for Active; 'I' for Inactive)
REMARK    1  A    between atoms: C_1  and  C_2
REMARK    2  A    between atoms: C_2  and  C_3
REMARK    3  A    between atoms: C_2  and  O_4
REMARK    4  A    between atoms: O_4  and  C_5
REMARK    5  A    between atoms: C_8  and  C_9
REMARK    6  A    between atoms: C_9  and  N_10
REMARK    7  A    between atoms: C_11  and  C_13
REMARK                            x       y       z     vdW  Elec       q    Type
REMARK                         _______ _______ _______ _____ _____    ______ ____
ROOT
ATOM      1  C   UNL     1       6.200   5.649  17.611  0.00  0.00    +0.000 C 
ENDROOT
BRANCH   1   5
ATOM      2  C   UNL     1       6.417   4.218  13.616  0.00  0.00    +0.000 A 
ATOM      3  C   UNL     1       5.485   3.640  14.463  0.00  0.00    +0.000 A 
ATOM      4  C   UNL     1       5.379   4.124  15.765  0.00  0.00    +0.000 A 
ATOM      5  C   UNL     1       6.235   5.140  16.199  0.00  0.00    +0.000 A 
ATOM      6  C   UNL     1       7.151   5.634  15.271  0.00  0.00    +0.000 A 
ATOM      7  N   UNL     1       7.256   5.204  13.991  0.00  0.00    +0.000 NA
BRANCH   2   8
ATOM      8  O   UNL     1       6.465   3.711  12.333  0.00  0.00    +0.000 OA
BRANCH   8  10
ATOM      9  C   UNL     1       4.423   3.242  11.213  0.00  0.00    +0.000 C 
ATOM     10  C   UNL     1       5.543   2.645  12.066  0.00  0.00    +0.000 C 
ATOM     11  C   UNL     1       6.228   1.523  11.284  0.00  0.00    +0.000 C 
ENDBRANCH   8  10
ENDBRANCH   2   8
ENDBRANCH   1   5
BRANCH   1  12
ATOM     12  N   UNL     1       4.863   5.722  18.164  0.00  0.00    +0.000 N 
ATOM     13  C   UNL     1       4.464   4.794  19.103  0.00  0.00    +0.000 C 
ATOM     14  O   UNL     1       5.228   3.951  19.563  0.00  0.00    +0.000 OA
ATOM     15  H   UNL     1       4.228   6.433  17.823  0.00  0.00    +0.000 HD
BRANCH  13  16
ATOM     16  C   UNL     1       3.009   4.901  19.548  0.00  0.00    +0.000 C 
ATOM     17  C   UNL     1       2.668   3.927  20.694  0.00  0.00    +0.000 C 
ATOM     18  C   UNL     1       2.575   2.526  20.092  0.00  0.00    +0.000 C 
ATOM     19  S   UNL     1       1.893   2.766  18.462  0.00  0.00    +0.000 S 
ATOM     20  O   UNL     1       0.481   2.439  18.490  0.00  0.00    +0.000 OA
ATOM     21  O   UNL     1       2.794   2.205  17.478  0.00  0.00    +0.000 OA
ATOM     22  C   UNL     1       2.051   4.544  18.415  0.00  0.00    +0.000 C 
ENDBRANCH  13  16
ENDBRANCH   1  12
TORSDOF 5
ENDMDL
MODEL 3
REMARK VINA RESULT:      -6.9      1.844      2.197
REMARK  Name = 
REMARK  7 active torsions:
REMARK  status: ('A' for Active; 'I' for Inactive)
REMARK    1  A    between atoms: C_1  and  C_2
REMARK    2  A    between atoms: C_2  and  C_3
REMARK    3  A    between atoms: C_2  and  O_4
REMARK    4  A    between atoms: O_4  and  C_5
REMARK    5  A    between atoms: C_8  and  C_9
REMARK    6  A    between atoms: C_9  and  N_10
REMARK    7  A    between atoms: C_11  and  C_13
REMARK                            x       y       z     vdW  Elec       q    Type
REMARK                         _______ _______ _______ _____ _____    ______ ____
ROOT
ATOM      1  C   UNL     1       5.699   4.863  18.207  0.00  0.00    +0.000 C 
ENDROOT
BRANCH   1   5
ATOM      2  C   UNL     1       6.495   4.323  14.068  0.00  0.00    +0.000 A 
ATOM      3  C   UNL     1       5.229   4.006  14.533  0.00  0.00    +0.000 A 
ATOM      4  C   UNL     1       4.943   4.211  15.881  0.00  0.00    +0.000 A 
ATOM      5  C   UNL     1       5.942   4.685  16.736  0.00  0.00    +0.000 A 
ATOM      6  C   UNL     1       7.187   4.951  16.169  0.00  0.00    +0.000 A 
ATOM      7  N   UNL     1       7.484   4.790  14.856  0.00  0.00    +0.000 NA
BRANCH   2   8
ATOM      8  O   UNL     1       6.715   4.117  12.722  0.00  0.00    +0.000 OA
BRANCH   8  10
ATOM      9  C   UNL     1       4.888   3.306  11.438  0.00  0.00    +0.000 C 
ATOM     10  C   UNL     1       6.156   2.906  12.194  0.00  0.00    +0.000 C 
ATOM     11  C   UNL     1       7.132   2.240  11.223  0.00  0.00    +0.000 C 
ENDBRANCH   8  10
ENDBRANCH   2   8
ENDBRANCH   1   5
BRANCH   1  12
ATOM     12  N   UNL     1       4.299   4.789  18.573  0.00  0.00    +0.000 N 
ATOM     13  C   UNL     1       3.728   3.562  18.835  0.00  0.00    +0.000 C 
ATOM     14  O   UNL     1       4.380   2.523  18.858  0.00  0.00    +0.000 OA
ATOM     15  H   UNL     1       3.752   5.641  18.595  0.00  0.00    +0.000 HD
BRANCH  13  16
ATOM     16  C   UNL     1       2.229   3.588  19.116  0.00  0.00    +0.000 C 
ATOM     17  C   UNL     1       1.811   4.790  19.987  0.00  0.00    +0.000 C 
ATOM     18  C   UNL     1       2.262   4.498  21.417  0.00  0.00    +0.000 C 
ATOM     19  S   UNL     1       2.074   2.735  21.613  0.00  0.00    +0.000 S 
ATOM     20  O   UNL     1       0.851   2.472  22.345  0.00  0.00    +0.000 OA
ATOM     21  O   UNL     1       3.342   2.157  21.999  0.00  0.00    +0.000 OA
ATOM     22  C   UNL     1       1.784   2.352  19.893  0.00  0.00    +0.000 C 
ENDBRANCH  13  16
ENDBRANCH   1  12
TORSDOF 5
ENDMDL
MODEL 4
REMARK VINA RESULT:      -6.8      1.569      1.867
REMARK  Name = 
REMARK  7 active torsions:
REMARK  status: ('A' for Active; 'I' for Inactive)
REMARK    1  A    between atoms: C_1  and  C_2
REMARK    2  A    between atoms: C_2  and  C_3
REMARK    3  A    between atoms: C_2  and  O_4
REMARK    4  A    between atoms: O_4  and  C_5
REMARK    5  A    between atoms: C_8  and  C_9
REMARK    6  A    between atoms: C_9  and  N_10
REMARK    7  A    between atoms: C_11  and  C_13
REMARK                            x       y       z     vdW  Elec       q    Type
REMARK                         _______ _______ _______ _____ _____    ______ ____
ROOT
ATOM      1  C   UNL     1       3.531   6.871  18.140  0.00  0.00    +0.000 C 
ENDROOT
BRANCH   1   5
ATOM      2  C   UNL     1       6.280   5.120  15.414  0.00  0.00    +0.000 A 
ATOM      3  C   UNL     1       5.126   4.415  15.716  0.00  0.00    +0.000 A 
ATOM      4  C   UNL     1       4.200   4.993  16.581  0.00  0.00    +0.000 A 
ATOM      5  C   UNL     1       4.471   6.238  17.155  0.00  0.00    +0.000 A 
ATOM      6  C   UNL     1       5.672   6.850  16.800  0.00  0.00    +0.000 A 
ATOM      7  N   UNL     1       6.577   6.326  15.938  0.00  0.00    +0.000 NA
BRANCH   2   8
ATOM      8  O   UNL     1       7.153   4.507  14.538  0.00  0.00    +0.000 OA
BRANCH   8  10
ATOM      9  C   UNL     1       8.230   5.497  12.666  0.00  0.00    +0.000 C 
ATOM     10  C   UNL     1       6.946   4.825  13.154  0.00  0.00    +0.000 C 
ATOM     11  C   UNL     1       6.703   3.553  12.340  0.00  0.00    +0.000 C 
ENDBRANCH   8  10
ENDBRANCH   2   8
ENDBRANCH   1   5
BRANCH   1  12
ATOM     12  N   UNL     1       2.809   5.910  18.948  0.00  0.00    +0.000 N 
ATOM     13  C   UNL     1       3.501   5.101  19.824  0.00  0.00    +0.000 C 
ATOM     14  O   UNL     1       4.707   5.220  20.019  0.00  0.00    +0.000 OA
ATOM     15  H   UNL     1       1.807   5.822  18.828  0.00  0.00    +0.000 HD
BRANCH  13  16
ATOM     16  C   UNL     1       2.659   4.060  20.554  0.00  0.00    +0.000 C 
ATOM     17  C   UNL     1       3.178   2.624  20.340  0.00  0.00    +0.000 C 
ATOM     18  C   UNL     1       2.800   2.206  18.920  0.00  0.00    +0.000 C 
ATOM     19  S   UNL     1       1.226   2.984  18.611  0.00  0.00    +0.000 S 
ATOM     20  O   UNL     1       0.175   1.999  18.777  0.00  0.00    +0.000 OA
ATOM     21  O   UNL     1       1.324   3.813  17.430  0.00  0.00    +0.000 OA
ATOM     22  C   UNL     1       1.220   4.049  20.044  0.00  0.00    +0.000 C 
ENDBRANCH  13  16
ENDBRANCH   1  12
TORSDOF 5
ENDMDL
MODEL 5
REMARK VINA RESULT:      -6.8      2.817      4.486
REMARK  Name = 
REMARK  7 active torsions:
REMARK  status: ('A' for Active; 'I' for Inactive)
REMARK    1  A    between atoms: C_1  and  C_2
REMARK    2  A    between atoms: C_2  and  C_3
REMARK    3  A    between atoms: C_2  and  O_4
REMARK    4  A    between atoms: O_4  and  C_5
REMARK    5  A    between atoms: C_8  and  C_9
REMARK    6  A    between atoms: C_9  and  N_10
REMARK    7  A    between atoms: C_11  and  C_13
REMARK                            x       y       z     vdW  Elec       q    Type
REMARK                         _______ _______ _______ _____ _____    ______ ____
ROOT
ATOM      1  C   UNL     1       3.704   3.264  16.571  0.00  0.00    +0.000 C 
ENDROOT
BRANCH   1   5
ATOM      2  C   UNL     1       5.929   6.864  16.957  0.00  0.00    +0.000 A 
ATOM      3  C   UNL     1       5.104   6.494  18.007  0.00  0.00    +0.000 A 
ATOM      4  C   UNL     1       4.396   5.299  17.909  0.00  0.00    +0.000 A 
ATOM      5  C   UNL     1       4.496   4.528  16.747  0.00  0.00    +0.000 A 
ATOM      6  C   UNL     1       5.337   5.004  15.743  0.00  0.00    +0.000 A 
ATOM      7  N   UNL     1       6.060   6.147  15.823  0.00  0.00    +0.000 NA
BRANCH   2   8
ATOM      8  O   UNL     1       6.619   8.048  17.116  0.00  0.00    +0.000 OA
BRANCH   8  10
ATOM      9  C   UNL     1       8.374   9.253  18.170  0.00  0.00    +0.000 C 
ATOM     10  C   UNL     1       7.972   7.905  17.571  0.00  0.00    +0.000 C 
ATOM     11  C   UNL     1       8.067   6.826  18.651  0.00  0.00    +0.000 C 
ENDBRANCH   8  10
ENDBRANCH   2   8
ENDBRANCH   1   5
BRANCH   1  12
ATOM     12  N   UNL     1       2.907   2.917  17.730  0.00  0.00    +0.000 N 
ATOM     13  C   UNL     1       1.672   3.504  17.907  0.00  0.00    +0.000 C 
ATOM     14  O   UNL     1       1.172   4.251  17.072  0.00  0.00    +0.000 OA
ATOM     15  H   UNL     1       3.289   2.274  18.413  0.00  0.00    +0.000 HD
BRANCH  13  16
ATOM     16  C   UNL     1       0.960   3.142  19.206  0.00  0.00    +0.000 C 
ATOM     17  C   UNL     1       0.923   4.316  20.206  0.00  0.00    +0.000 C 
ATOM     18  C   UNL     1       2.324   4.459  20.797  0.00  0.00    +0.000 C 
ATOM     19  S   UNL     1       2.955   2.795  20.905  0.00  0.00    +0.000 S 
ATOM     20  O   UNL     1       2.833   2.334  22.274  0.00  0.00    +0.000 OA
ATOM     21  O   UNL     1       4.197   2.704  20.170  0.00  0.00    +0.000 OA
ATOM     22  C   UNL     1       1.674   2.010  19.939  0.00  0.00    +0.000 C 
ENDBRANCH  13  16
ENDBRANCH   1  12
TORSDOF 5
ENDMDL
MODEL 6
REMARK VINA RESULT:      -6.8      1.458      1.562
REMARK  Name = 
REMARK  7 active torsions:
REMARK  status: ('A' for Active; 'I' for Inactive)
REMARK    1  A    between atoms: C_1  and  C_2
REMARK    2  A    between atoms: C_2  and  C_3
REMARK    3  A    between atoms: C_2  and  O_4
REMARK    4  A    between atoms: O_4  and  C_5
REMARK    5  A    between atoms: C_8  and  C_9
REMARK    6  A    between atoms: C_9  and  N_10
REMARK    7  A    between atoms: C_11  and  C_13
REMARK                            x       y       z     vdW  Elec       q    Type
REMARK                         _______ _______ _______ _____ _____    ______ ____
ROOT
ATOM      1  C   UNL     1       6.047   5.543  19.244  0.00  0.00    +0.000 C 
ENDROOT
BRANCH   1   5
ATOM      2  C   UNL     1       6.678   5.207  15.055  0.00  0.00    +0.000 A 
ATOM      3  C   UNL     1       5.625   5.994  15.493  0.00  0.00    +0.000 A 
ATOM      4  C   UNL     1       5.429   6.141  16.864  0.00  0.00    +0.000 A 
ATOM      5  C   UNL     1       6.260   5.463  17.760  0.00  0.00    +0.000 A 
ATOM      6  C   UNL     1       7.274   4.680  17.212  0.00  0.00    +0.000 A 
ATOM      7  N   UNL     1       7.508   4.542  15.884  0.00  0.00    +0.000 NA
BRANCH   2   8
ATOM      8  O   UNL     1       6.837   5.111  13.688  0.00  0.00    +0.000 OA
BRANCH   8  10
ATOM      9  C   UNL     1       5.048   3.705  13.003  0.00  0.00    +0.000 C 
ATOM     10  C   UNL     1       6.568   3.815  13.135  0.00  0.00    +0.000 C 
ATOM     11  C   UNL     1       7.205   3.677  11.751  0.00  0.00    +0.000 C 
ENDBRANCH   8  10
ENDBRANCH   2   8
ENDBRANCH   1   5
BRANCH   1  12
ATOM     12  N   UNL     1       4.651   5.526  19.628  0.00  0.00    +0.000 N 
ATOM     13  C   UNL     1       4.009   4.319  19.806  0.00  0.00    +0.000 C 
ATOM     14  O   UNL     1       4.595   3.244  19.739  0.00  0.00    +0.000 OA
ATOM     15  H   UNL     1       4.157   6.405  19.724  0.00  0.00    +0.000 HD
BRANCH  13  16
ATOM     16  C   UNL     1       2.518   4.413  20.114  0.00  0.00    +0.000 C 
ATOM     17  C   UNL     1       2.039   3.298  21.066  0.00  0.00    +0.000 C 
ATOM     18  C   UNL     1       1.979   2.002  20.259  0.00  0.00    +0.000 C 
ATOM     19  S   UNL     1       1.476   2.497  18.621  0.00  0.00    +0.000 S 
ATOM     20  O   UNL     1       0.062   2.221  18.460  0.00  0.00    +0.000 OA
ATOM     21  O   UNL     1       2.462   2.051  17.661  0.00  0.00    +0.000 OA
ATOM     22  C   UNL     1       1.675   4.256  18.851  0.00  0.00    +0.000 C 
ENDBRANCH  13  16
ENDBRANCH   1  12
TORSDOF 5
ENDMDL
MODEL 7
REMARK VINA RESULT:      -6.7      1.459      1.829
REMARK  Name = 
REMARK  7 active torsions:
REMARK  status: ('A' for Active; 'I' for Inactive)
REMARK    1  A    between atoms: C_1  and  C_2
REMARK    2  A    between atoms: C_2  and  C_3
REMARK    3  A    between atoms: C_2  and  O_4
REMARK    4  A    between atoms: O_4  and  C_5
REMARK    5  A    between atoms: C_8  and  C_9
REMARK    6  A    between atoms: C_9  and  N_10
REMARK    7  A    between atoms: C_11  and  C_13
REMARK                            x       y       z     vdW  Elec       q    Type
REMARK                         _______ _______ _______ _____ _____    ______ ____
ROOT
ATOM      1  C   UNL     1       3.886   6.567  17.728  0.00  0.00    +0.000 C 
ENDROOT
BRANCH   1   5
ATOM      2  C   UNL     1       5.868   4.173  14.830  0.00  0.00    +0.000 A 
ATOM      3  C   UNL     1       5.894   5.549  14.665  0.00  0.00    +0.000 A 
ATOM      4  C   UNL     1       5.279   6.347  15.626  0.00  0.00    +0.000 A 
ATOM      5  C   UNL     1       4.616   5.749  16.702  0.00  0.00    +0.000 A 
ATOM      6  C   UNL     1       4.631   4.357  16.759  0.00  0.00    +0.000 A 
ATOM      7  N   UNL     1       5.247   3.557  15.856  0.00  0.00    +0.000 NA
BRANCH   2   8
ATOM      8  O   UNL     1       6.509   3.433  13.858  0.00  0.00    +0.000 OA
BRANCH   8  10
ATOM      9  C   UNL     1       7.119   3.006  11.601  0.00  0.00    +0.000 C 
ATOM     10  C   UNL     1       6.146   3.760  12.509  0.00  0.00    +0.000 C 
ATOM     11  C   UNL     1       4.719   3.301  12.208  0.00  0.00    +0.000 C 
ENDBRANCH   8  10
ENDBRANCH   2   8
ENDBRANCH   1   5
BRANCH   1  12
ATOM     12  N   UNL     1       3.040   5.777  18.600  0.00  0.00    +0.000 N 
ATOM     13  C   UNL     1       3.595   5.138  19.688  0.00  0.00    +0.000 C 
ATOM     14  O   UNL     1       4.771   5.279  20.008  0.00  0.00    +0.000 OA
ATOM     15  H   UNL     1       2.059   5.677  18.373  0.00  0.00    +0.000 HD
BRANCH  13  16
ATOM     16  C   UNL     1       2.637   4.256  20.483  0.00  0.00    +0.000 C 
ATOM     17  C   UNL     1       3.081   2.779  20.515  0.00  0.00    +0.000 C 
ATOM     18  C   UNL     1       2.785   2.182  19.140  0.00  0.00    +0.000 C 
ATOM     19  S   UNL     1       1.289   2.986  18.597  0.00  0.00    +0.000 S 
ATOM     20  O   UNL     1       0.170   2.090  18.811  0.00  0.00    +0.000 OA
ATOM     21  O   UNL     1       1.526   3.632  17.324  0.00  0.00    +0.000 OA
ATOM     22  C   UNL     1       1.243   4.244  19.863  0.00  0.00    +0.000 C 
ENDBRANCH  13  16
ENDBRANCH   1  12
TORSDOF 5
ENDMDL
MODEL 8
REMARK VINA RESULT:      -6.7      4.362      7.299
REMARK  Name = 
REMARK  7 active torsions:
REMARK  status: ('A' for Active; 'I' for Inactive)
REMARK    1  A    between atoms: C_1  and  C_2
REMARK    2  A    between atoms: C_2  and  C_3
REMARK    3  A    between atoms: C_2  and  O_4
REMARK    4  A    between atoms: O_4  and  C_5
REMARK    5  A    between atoms: C_8  and  C_9
REMARK    6  A    between atoms: C_9  and  N_10
REMARK    7  A    between atoms: C_11  and  C_13
REMARK                            x       y       z     vdW  Elec       q    Type
REMARK                         _______ _______ _______ _____ _____    ______ ____
ROOT
ATOM      1  C   UNL     1       3.639   6.498  17.918  0.00  0.00    +0.000 C 
ENDROOT
BRANCH   1   5
ATOM      2  C   UNL     1       0.927   9.308  19.591  0.00  0.00    +0.000 A 
ATOM      3  C   UNL     1       1.278   9.458  18.259  0.00  0.00    +0.000 A 
ATOM      4  C   UNL     1       2.138   8.523  17.689  0.00  0.00    +0.000 A 
ATOM      5  C   UNL     1       2.660   7.491  18.474  0.00  0.00    +0.000 A 
ATOM      6  C   UNL     1       2.258   7.447  19.808  0.00  0.00    +0.000 A 
ATOM      7  N   UNL     1       1.400   8.325  20.382  0.00  0.00    +0.000 NA
BRANCH   2   8
ATOM      8  O   UNL     1       0.057  10.253  20.099  0.00  0.00    +0.000 OA
BRANCH   8  10
ATOM      9  C   UNL     1       0.517  12.397  21.012  0.00  0.00    +0.000 C 
ATOM     10  C   UNL     1       0.496  10.896  21.303  0.00  0.00    +0.000 C 
ATOM     11  C   UNL     1      -0.479  10.619  22.448  0.00  0.00    +0.000 C 
ENDBRANCH   8  10
ENDBRANCH   2   8
ENDBRANCH   1   5
BRANCH   1  12
ATOM     12  N   UNL     1       3.756   5.295  18.717  0.00  0.00    +0.000 N 
ATOM     13  C   UNL     1       3.694   4.062  18.103  0.00  0.00    +0.000 C 
ATOM     14  O   UNL     1       3.631   3.934  16.885  0.00  0.00    +0.000 OA
ATOM     15  H   UNL     1       3.845   5.380  19.722  0.00  0.00    +0.000 HD
BRANCH  13  16
ATOM     16  C   UNL     1       3.731   2.863  19.046  0.00  0.00    +0.000 C 
ATOM     17  C   UNL     1       2.728   1.763  18.642  0.00  0.00    +0.000 C 
ATOM     18  C   UNL     1       1.332   2.254  19.021  0.00  0.00    +0.000 C 
ATOM     19  S   UNL     1       1.561   3.194  20.519  0.00  0.00    +0.000 S 
ATOM     20  O   UNL     1       1.172   2.377  21.651  0.00  0.00    +0.000 OA
ATOM     21  O   UNL     1       1.054   4.535  20.326  0.00  0.00    +0.000 OA
ATOM     22  C   UNL     1       3.345   3.258  20.468  0.00  0.00    +0.000 C 
ENDBRANCH  13  16
ENDBRANCH   1  12
TORSDOF 5
ENDMDL
MODEL 9
REMARK VINA RESULT:      -6.7      4.434      7.631
REMARK  Name = 
REMARK  7 active torsions:
REMARK  status: ('A' for Active; 'I' for Inactive)
REMARK    1  A    between atoms: C_1  and  C_2
REMARK    2  A    between atoms: C_2  and  C_3
REMARK    3  A    between atoms: C_2  and  O_4
REMARK    4  A    between atoms: O_4  and  C_5
REMARK    5  A    between atoms: C_8  and  C_9
REMARK    6  A    between atoms: C_9  and  N_10
REMARK    7  A    between atoms: C_11  and  C_13
REMARK                            x       y       z     vdW  Elec       q    Type
REMARK                         _______ _______ _______ _____ _____    ______ ____
ROOT
ATOM      1  C   UNL     1       3.493   5.851  19.504  0.00  0.00    +0.000 C 
ENDROOT
BRANCH   1   5
ATOM      2  C   UNL     1       1.110   9.329  18.976  0.00  0.00    +0.000 A 
ATOM      3  C   UNL     1       1.832   8.865  17.888  0.00  0.00    +0.000 A 
ATOM      4  C   UNL     1       2.590   7.705  18.038  0.00  0.00    +0.000 A 
ATOM      5  C   UNL     1       2.641   7.067  19.280  0.00  0.00    +0.000 A 
ATOM      6  C   UNL     1       1.895   7.631  20.313  0.00  0.00    +0.000 A 
ATOM      7  N   UNL     1       1.126   8.740  20.188  0.00  0.00    +0.000 NA
BRANCH   2   8
ATOM      8  O   UNL     1       0.364  10.470  18.765  0.00  0.00    +0.000 OA
BRANCH   8  10
ATOM      9  C   UNL     1      -1.410  11.660  19.805  0.00  0.00    +0.000 C 
ATOM     10  C   UNL     1      -1.026  10.357  19.103  0.00  0.00    +0.000 C 
ATOM     11  C   UNL     1      -1.875  10.197  17.841  0.00  0.00    +0.000 C 
ENDBRANCH   8  10
ENDBRANCH   2   8
ENDBRANCH   1   5
BRANCH   1  12
ATOM     12  N   UNL     1       4.827   5.971  18.952  0.00  0.00    +0.000 N 
ATOM     13  C   UNL     1       5.668   4.878  18.962  0.00  0.00    +0.000 C 
ATOM     14  O   UNL     1       5.305   3.770  19.342  0.00  0.00    +0.000 OA
ATOM     15  H   UNL     1       5.134   6.869  18.600  0.00  0.00    +0.000 HD
BRANCH  13  16
ATOM     16  C   UNL     1       7.080   5.138  18.446  0.00  0.00    +0.000 C 
ATOM     17  C   UNL     1       7.306   6.615  18.062  0.00  0.00    +0.000 C 
ATOM     18  C   UNL     1       6.578   6.862  16.743  0.00  0.00    +0.000 C 
ATOM     19  S   UNL     1       6.734   5.336  15.833  0.00  0.00    +0.000 S 
ATOM     20  O   UNL     1       7.786   5.483  14.846  0.00  0.00    +0.000 OA
ATOM     21  O   UNL     1       5.417   4.847  15.488  0.00  0.00    +0.000 OA
ATOM     22  C   UNL     1       7.366   4.343  17.175  0.00  0.00    +0.000 C 
ENDBRANCH  13  16
ENDBRANCH   1  12
TORSDOF 5
ENDMDL
