MODEL 1
REMARK VINA RESULT:      -7.4      0.000      0.000
REMARK  Name = 
REMARK  8 active torsions:
REMARK  status: ('A' for Active; 'I' for Inactive)
REMARK    1  A    between atoms: C_1  and  N_2
REMARK    2  A    between atoms: N_9  and  C_10
REMARK    3  A    between atoms: C_10  and  C_11
REMARK    4  A    between atoms: C_11  and  C_12
REMARK    5  A    between atoms: C_12  and  N_13
REMARK    6  A    between atoms: N_19  and  C_20
REMARK    7  A    between atoms: C_20  and  C_21
REMARK    8  A    between atoms: N_29  and  C_30
REMARK                            x       y       z     vdW  Elec       q    Type
REMARK                         _______ _______ _______ _____ _____    ______ ____
ROOT
ATOM      1  C   UNL     1       4.481   5.293  16.876  0.00  0.00    +0.000 C 
ATOM      2  N   UNL     1       3.660   5.808  17.949  0.00  0.00    +0.000 N 
ATOM      3  C   UNL     1       3.126   7.095  17.841  0.00  0.00    +0.000 A 
ATOM      4  O   UNL     1       3.274   7.807  16.842  0.00  0.00    +0.000 OA
ATOM      5  C   UNL     1       2.385   7.504  18.986  0.00  0.00    +0.000 A 
ATOM      6  C   UNL     1       2.167   6.670  20.033  0.00  0.00    +0.000 A 
ATOM      7  N   UNL     1       1.421   7.244  21.006  0.00  0.00    +0.000 NA
ATOM      8  C   UNL     1       1.125   8.442  20.549  0.00  0.00    +0.000 A 
ATOM      9  N   UNL     1       0.319   9.312  21.186  0.00  0.00    +0.000 N 
ATOM     10  N   UNL     1       1.747   8.678  19.333  0.00  0.00    +0.000 N 
ATOM     11  N   UNL     1       2.647   5.384  20.075  0.00  0.00    +0.000 N 
ATOM     12  C   UNL     1       2.368   4.499  21.188  0.00  0.00    +0.000 C 
ATOM     13  C   UNL     1       3.429   4.920  19.021  0.00  0.00    +0.000 A 
ATOM     14  O   UNL     1       3.893   3.775  19.021  0.00  0.00    +0.000 OA
ATOM     15  H   UNL     1      -0.084  10.133  20.749  0.00  0.00    +0.000 HD
ENDROOT
BRANCH   9  16
ATOM     16  C   UNL     1       0.170   9.168  22.634  0.00  0.00    +0.000 C 
BRANCH  16  17
ATOM     17  C   UNL     1      -0.888  10.112  23.211  0.00  0.00    +0.000 C 
BRANCH  17  18
ATOM     18  C   UNL     1      -0.731  11.528  22.648  0.00  0.00    +0.000 C 
BRANCH  18  19
ATOM     19  N   UNL     1      -1.379  12.605  23.414  0.00  0.00    +0.000 NA
ATOM     20  C   UNL     1      -2.853  12.429  23.384  0.00  0.00    +0.000 C 
ATOM     21  C   UNL     1      -3.488  12.819  22.036  0.00  0.00    +0.000 C 
ATOM     22  O   UNL     1      -3.204  14.185  21.716  0.00  0.00    +0.000 OA
ATOM     23  C   UNL     1      -1.790  14.414  21.665  0.00  0.00    +0.000 C 
ATOM     24  C   UNL     1      -1.083  13.981  22.963  0.00  0.00    +0.000 C 
ENDBRANCH  18  19
ENDBRANCH  17  18
ENDBRANCH  16  17
ENDBRANCH   9  16
BRANCH  10  25
ATOM     25  C   UNL     1       1.672   9.890  18.519  0.00  0.00    +0.000 C 
BRANCH  25  26
ATOM     26  C   UNL     1       0.271  10.446  18.338  0.00  0.00    +0.000 A 
ATOM     27  C   UNL     1      -0.703   9.658  17.688  0.00  0.00    +0.000 A 
ATOM     28  C   UNL     1      -2.040  10.067  17.609  0.00  0.00    +0.000 A 
ATOM     29  C   UNL     1      -2.427  11.273  18.176  0.00  0.00    +0.000 A 
ATOM     30 CL   UNL     1      -4.081  11.740  18.154  0.00  0.00    +0.000 Cl
ATOM     31  C   UNL     1      -1.486  12.087  18.793  0.00  0.00    +0.000 A 
ATOM     32  C   UNL     1      -0.147  11.677  18.872  0.00  0.00    +0.000 A 
ATOM     33 CL   UNL     1       0.925  12.727  19.730  0.00  0.00    +0.000 Cl
ENDBRANCH  25  26
ENDBRANCH  10  25
TORSDOF 6
ENDMDL
MODEL 2
REMARK VINA RESULT:      -7.3      3.425      8.363
REMARK  Name = 
REMARK  8 active torsions:
REMARK  status: ('A' for Active; 'I' for Inactive)
REMARK    1  A    between atoms: C_1  and  N_2
REMARK    2  A    between atoms: N_9  and  C_10
REMARK    3  A    between atoms: C_10  and  C_11
REMARK    4  A    between atoms: C_11  and  C_12
REMARK    5  A    between atoms: C_12  and  N_13
REMARK    6  A    between atoms: N_19  and  C_20
REMARK    7  A    between atoms: C_20  and  C_21
REMARK    8  A    between atoms: N_29  and  C_30
REMARK                            x       y       z     vdW  Elec       q    Type
REMARK                         _______ _______ _______ _____ _____    ______ ____
ROOT
ATOM      1  C   UNL     1       0.996  11.978  18.455  0.00  0.00    +0.000 C 
ATOM      2  N   UNL     1       1.153  10.731  19.171  0.00  0.00    +0.000 N 
ATOM      3  C   UNL     1       1.757   9.648  18.526  0.00  0.00    +0.000 A 
ATOM      4  O   UNL     1       2.220   9.713  17.383  0.00  0.00    +0.000 OA
ATOM      5  C   UNL     1       1.799   8.465  19.318  0.00  0.00    +0.000 A 
ATOM      6  C   UNL     1       1.361   8.446  20.601  0.00  0.00    +0.000 A 
ATOM      7  N   UNL     1       1.511   7.233  21.182  0.00  0.00    +0.000 NA
ATOM      8  C   UNL     1       2.095   6.486  20.270  0.00  0.00    +0.000 A 
ATOM      9  N   UNL     1       2.498   5.219  20.480  0.00  0.00    +0.000 N 
ATOM     10  N   UNL     1       2.239   7.179  19.078  0.00  0.00    +0.000 N 
ATOM     11  N   UNL     1       0.837   9.551  21.227  0.00  0.00    +0.000 N 
ATOM     12  C   UNL     1       0.411   9.515  22.612  0.00  0.00    +0.000 C 
ATOM     13  C   UNL     1       0.708  10.735  20.509  0.00  0.00    +0.000 A 
ATOM     14  O   UNL     1       0.231  11.751  21.026  0.00  0.00    +0.000 OA
ATOM     15  H   UNL     1       3.133   4.718  19.868  0.00  0.00    +0.000 HD
ENDROOT
BRANCH   9  16
ATOM     16  C   UNL     1       1.839   4.462  21.543  0.00  0.00    +0.000 C 
BRANCH  16  17
ATOM     17  C   UNL     1       2.263   2.990  21.564  0.00  0.00    +0.000 C 
BRANCH  17  18
ATOM     18  C   UNL     1       3.165   2.658  20.372  0.00  0.00    +0.000 C 
BRANCH  18  19
ATOM     19  N   UNL     1       2.579   1.790  19.338  0.00  0.00    +0.000 NA
ATOM     20  C   UNL     1       3.505   1.684  18.183  0.00  0.00    +0.000 C 
ATOM     21  C   UNL     1       3.531   2.948  17.302  0.00  0.00    +0.000 C 
ATOM     22  O   UNL     1       2.225   3.238  16.791  0.00  0.00    +0.000 OA
ATOM     23  C   UNL     1       1.287   3.417  17.860  0.00  0.00    +0.000 C 
ATOM     24  C   UNL     1       1.261   2.213  18.819  0.00  0.00    +0.000 C 
ENDBRANCH  18  19
ENDBRANCH  17  18
ENDBRANCH  16  17
ENDBRANCH   9  16
BRANCH  10  25
ATOM     25  C   UNL     1       2.828   6.689  17.833  0.00  0.00    +0.000 C 
BRANCH  25  26
ATOM     26  C   UNL     1       4.285   6.278  17.940  0.00  0.00    +0.000 A 
ATOM     27  C   UNL     1       4.746   5.677  19.131  0.00  0.00    +0.000 A 
ATOM     28  C   UNL     1       6.044   5.162  19.236  0.00  0.00    +0.000 A 
ATOM     29  C   UNL     1       6.907   5.242  18.152  0.00  0.00    +0.000 A 
ATOM     30 CL   UNL     1       8.473   4.539  18.247  0.00  0.00    +0.000 Cl
ATOM     31  C   UNL     1       6.496   5.859  16.977  0.00  0.00    +0.000 A 
ATOM     32  C   UNL     1       5.196   6.373  16.872  0.00  0.00    +0.000 A 
ATOM     33 CL   UNL     1       4.761   7.048  15.342  0.00  0.00    +0.000 Cl
ENDBRANCH  25  26
ENDBRANCH  10  25
TORSDOF 6
ENDMDL
MODEL 3
REMARK VINA RESULT:      -7.0      3.907      6.422
REMARK  Name = 
REMARK  8 active torsions:
REMARK  status: ('A' for Active; 'I' for Inactive)
REMARK    1  A    between atoms: C_1  and  N_2
REMARK    2  A    between atoms: N_9  and  C_10
REMARK    3  A    between atoms: C_10  and  C_11
REMARK    4  A    between atoms: C_11  and  C_12
REMARK    5  A    between atoms: C_12  and  N_13
REMARK    6  A    between atoms: N_19  and  C_20
REMARK    7  A    between atoms: C_20  and  C_21
REMARK    8  A    between atoms: N_29  and  C_30
REMARK                            x       y       z     vdW  Elec       q    Type
REMARK                         _______ _______ _______ _____ _____    ______ ____
ROOT
ATOM      1  C   UNL     1       4.682   1.663  20.658  0.00  0.00    +0.000 C 
ATOM      2  N   UNL     1       3.996   2.847  20.190  0.00  0.00    +0.000 N 
ATOM      3  C   UNL     1       4.696   3.780  19.419  0.00  0.00    +0.000 A 
ATOM      4  O   UNL     1       5.869   3.620  19.065  0.00  0.00    +0.000 OA
ATOM      5  C   UNL     1       3.926   4.925  19.071  0.00  0.00    +0.000 A 
ATOM      6  C   UNL     1       2.615   5.034  19.401  0.00  0.00    +0.000 A 
ATOM      7  N   UNL     1       2.062   6.187  18.956  0.00  0.00    +0.000 NA
ATOM      8  C   UNL     1       3.024   6.795  18.296  0.00  0.00    +0.000 A 
ATOM      9  N   UNL     1       2.860   7.948  17.620  0.00  0.00    +0.000 N 
ATOM     10  N   UNL     1       4.214   6.090  18.388  0.00  0.00    +0.000 N 
ATOM     11  N   UNL     1       1.939   4.064  20.099  0.00  0.00    +0.000 N 
ATOM     12  C   UNL     1       0.528   4.186  20.407  0.00  0.00    +0.000 C 
ATOM     13  C   UNL     1       2.629   2.935  20.528  0.00  0.00    +0.000 A 
ATOM     14  O   UNL     1       2.066   2.041  21.169  0.00  0.00    +0.000 OA
ATOM     15  H   UNL     1       3.523   8.304  16.940  0.00  0.00    +0.000 HD
ENDROOT
BRANCH   9  16
ATOM     16  C   UNL     1       1.763   8.825  18.026  0.00  0.00    +0.000 C 
BRANCH  16  17
ATOM     17  C   UNL     1       2.167  10.302  18.037  0.00  0.00    +0.000 C 
BRANCH  17  18
ATOM     18  C   UNL     1       1.058  11.174  18.633  0.00  0.00    +0.000 C 
BRANCH  18  19
ATOM     19  N   UNL     1      -0.108  10.457  19.174  0.00  0.00    +0.000 NA
ATOM     20  C   UNL     1      -1.215  10.473  18.184  0.00  0.00    +0.000 C 
ATOM     21  C   UNL     1      -1.926  11.836  18.083  0.00  0.00    +0.000 C 
ATOM     22  O   UNL     1      -2.468  12.221  19.351  0.00  0.00    +0.000 OA
ATOM     23  C   UNL     1      -1.439  12.289  20.347  0.00  0.00    +0.000 C 
ATOM     24  C   UNL     1      -0.643  10.975  20.452  0.00  0.00    +0.000 C 
ENDBRANCH  18  19
ENDBRANCH  17  18
ENDBRANCH  16  17
ENDBRANCH   9  16
BRANCH  10  25
ATOM     25  C   UNL     1       5.504   6.447  17.801  0.00  0.00    +0.000 C 
BRANCH  25  26
ATOM     26  C   UNL     1       5.836   5.720  16.510  0.00  0.00    +0.000 A 
ATOM     27  C   UNL     1       5.055   5.967  15.361  0.00  0.00    +0.000 A 
ATOM     28  C   UNL     1       5.396   5.425  14.115  0.00  0.00    +0.000 A 
ATOM     29  C   UNL     1       6.523   4.623  13.997  0.00  0.00    +0.000 A 
ATOM     30 CL   UNL     1       6.992   4.022  12.456  0.00  0.00    +0.000 Cl
ATOM     31  C   UNL     1       7.292   4.333  15.117  0.00  0.00    +0.000 A 
ATOM     32  C   UNL     1       6.951   4.877  16.363  0.00  0.00    +0.000 A 
ATOM     33 CL   UNL     1       8.020   4.517  17.673  0.00  0.00    +0.000 Cl
ENDBRANCH  25  26
ENDBRANCH  10  25
TORSDOF 6
ENDMDL
MODEL 4
REMARK VINA RESULT:      -6.9      3.921      6.397
REMARK  Name = 
REMARK  8 active torsions:
REMARK  status: ('A' for Active; 'I' for Inactive)
REMARK    1  A    between atoms: C_1  and  N_2
REMARK    2  A    between atoms: N_9  and  C_10
REMARK    3  A    between atoms: C_10  and  C_11
REMARK    4  A    between atoms: C_11  and  C_12
REMARK    5  A    between atoms: C_12  and  N_13
REMARK    6  A    between atoms: N_19  and  C_20
REMARK    7  A    between atoms: C_20  and  C_21
REMARK    8  A    between atoms: N_29  and  C_30
REMARK                            x       y       z     vdW  Elec       q    Type
REMARK                         _______ _______ _______ _____ _____    ______ ____
ROOT
ATOM      1  C   UNL     1       4.499   1.744  20.862  0.00  0.00    +0.000 C 
ATOM      2  N   UNL     1       3.836   2.911  20.323  0.00  0.00    +0.000 N 
ATOM      3  C   UNL     1       4.570   3.814  19.548  0.00  0.00    +0.000 A 
ATOM      4  O   UNL     1       5.756   3.641  19.250  0.00  0.00    +0.000 OA
ATOM      5  C   UNL     1       3.818   4.946  19.126  0.00  0.00    +0.000 A 
ATOM      6  C   UNL     1       2.494   5.068  19.396  0.00  0.00    +0.000 A 
ATOM      7  N   UNL     1       1.964   6.204  18.886  0.00  0.00    +0.000 NA
ATOM      8  C   UNL     1       2.954   6.787  18.245  0.00  0.00    +0.000 A 
ATOM      9  N   UNL     1       2.822   7.914  17.521  0.00  0.00    +0.000 N 
ATOM     10  N   UNL     1       4.137   6.085  18.414  0.00  0.00    +0.000 N 
ATOM     11  N   UNL     1       1.787   4.125  20.100  0.00  0.00    +0.000 N 
ATOM     12  C   UNL     1       0.365   4.259  20.343  0.00  0.00    +0.000 C 
ATOM     13  C   UNL     1       2.456   3.012  20.599  0.00  0.00    +0.000 A 
ATOM     14  O   UNL     1       1.865   2.143  21.248  0.00  0.00    +0.000 OA
ATOM     15  H   UNL     1       3.513   8.245  16.857  0.00  0.00    +0.000 HD
ENDROOT
BRANCH   9  16
ATOM     16  C   UNL     1       1.710   8.807  17.847  0.00  0.00    +0.000 C 
BRANCH  16  17
ATOM     17  C   UNL     1       1.893   9.499  19.201  0.00  0.00    +0.000 C 
BRANCH  17  18
ATOM     18  C   UNL     1       0.830  10.581  19.416  0.00  0.00    +0.000 C 
BRANCH  18  19
ATOM     19  N   UNL     1      -0.388  10.159  20.127  0.00  0.00    +0.000 NA
ATOM     20  C   UNL     1      -1.049  11.338  20.741  0.00  0.00    +0.000 C 
ATOM     21  C   UNL     1      -0.328  11.858  21.999  0.00  0.00    +0.000 C 
ATOM     22  O   UNL     1      -0.246  10.835  22.996  0.00  0.00    +0.000 OA
ATOM     23  C   UNL     1       0.441   9.683  22.491  0.00  0.00    +0.000 C 
ATOM     24  C   UNL     1      -0.192   9.151  21.191  0.00  0.00    +0.000 C 
ENDBRANCH  18  19
ENDBRANCH  17  18
ENDBRANCH  16  17
ENDBRANCH   9  16
BRANCH  10  25
ATOM     25  C   UNL     1       5.452   6.419  17.869  0.00  0.00    +0.000 C 
BRANCH  25  26
ATOM     26  C   UNL     1       5.804   5.702  16.578  0.00  0.00    +0.000 A 
ATOM     27  C   UNL     1       5.018   5.926  15.428  0.00  0.00    +0.000 A 
ATOM     28  C   UNL     1       5.374   5.394  14.183  0.00  0.00    +0.000 A 
ATOM     29  C   UNL     1       6.523   4.623  14.066  0.00  0.00    +0.000 A 
ATOM     30 CL   UNL     1       7.008   4.036  12.525  0.00  0.00    +0.000 Cl
ATOM     31  C   UNL     1       7.299   4.355  15.185  0.00  0.00    +0.000 A 
ATOM     32  C   UNL     1       6.943   4.889  16.432  0.00  0.00    +0.000 A 
ATOM     33 CL   UNL     1       8.021   4.561  17.742  0.00  0.00    +0.000 Cl
ENDBRANCH  25  26
ENDBRANCH  10  25
TORSDOF 6
ENDMDL
MODEL 5
REMARK VINA RESULT:      -6.9      2.729      8.095
REMARK  Name = 
REMARK  8 active torsions:
REMARK  status: ('A' for Active; 'I' for Inactive)
REMARK    1  A    between atoms: C_1  and  N_2
REMARK    2  A    between atoms: N_9  and  C_10
REMARK    3  A    between atoms: C_10  and  C_11
REMARK    4  A    between atoms: C_11  and  C_12
REMARK    5  A    between atoms: C_12  and  N_13
REMARK    6  A    between atoms: N_19  and  C_20
REMARK    7  A    between atoms: C_20  and  C_21
REMARK    8  A    between atoms: N_29  and  C_30
REMARK                            x       y       z     vdW  Elec       q    Type
REMARK                         _______ _______ _______ _____ _____    ______ ____
ROOT
ATOM      1  C   UNL     1      -4.898  12.766  18.856  0.00  0.00    +0.000 C 
ATOM      2  N   UNL     1      -3.754  11.932  18.555  0.00  0.00    +0.000 N 
ATOM      3  C   UNL     1      -2.707  11.856  19.477  0.00  0.00    +0.000 A 
ATOM      4  O   UNL     1      -2.727  12.425  20.573  0.00  0.00    +0.000 OA
ATOM      5  C   UNL     1      -1.618  11.050  19.038  0.00  0.00    +0.000 A 
ATOM      6  C   UNL     1      -1.659  10.367  17.866  0.00  0.00    +0.000 A 
ATOM      7  N   UNL     1      -0.536   9.645  17.648  0.00  0.00    +0.000 NA
ATOM      8  C   UNL     1       0.208   9.835  18.718  0.00  0.00    +0.000 A 
ATOM      9  N   UNL     1       1.385   9.219  18.935  0.00  0.00    +0.000 N 
ATOM     10  N   UNL     1      -0.386  10.744  19.580  0.00  0.00    +0.000 N 
ATOM     11  N   UNL     1      -2.737  10.410  17.016  0.00  0.00    +0.000 N 
ATOM     12  C   UNL     1      -2.773   9.641  15.788  0.00  0.00    +0.000 C 
ATOM     13  C   UNL     1      -3.822  11.217  17.341  0.00  0.00    +0.000 A 
ATOM     14  O   UNL     1      -4.809  11.296  16.602  0.00  0.00    +0.000 OA
ATOM     15  H   UNL     1       1.850   9.190  19.836  0.00  0.00    +0.000 HD
ENDROOT
BRANCH   9  16
ATOM     16  C   UNL     1       2.122   8.728  17.772  0.00  0.00    +0.000 C 
BRANCH  16  17
ATOM     17  C   UNL     1       3.237   7.751  18.154  0.00  0.00    +0.000 C 
BRANCH  17  18
ATOM     18  C   UNL     1       2.761   6.299  18.045  0.00  0.00    +0.000 C 
BRANCH  18  19
ATOM     19  N   UNL     1       3.694   5.359  17.402  0.00  0.00    +0.000 NA
ATOM     20  C   UNL     1       3.448   3.983  17.901  0.00  0.00    +0.000 C 
ATOM     21  C   UNL     1       3.977   3.745  19.328  0.00  0.00    +0.000 C 
ATOM     22  O   UNL     1       5.386   3.990  19.394  0.00  0.00    +0.000 OA
ATOM     23  C   UNL     1       5.692   5.329  18.985  0.00  0.00    +0.000 C 
ATOM     24  C   UNL     1       5.130   5.653  17.588  0.00  0.00    +0.000 C 
ENDBRANCH  18  19
ENDBRANCH  17  18
ENDBRANCH  16  17
ENDBRANCH   9  16
BRANCH  10  25
ATOM     25  C   UNL     1       0.135  11.221  20.860  0.00  0.00    +0.000 C 
BRANCH  25  26
ATOM     26  C   UNL     1       0.825  12.572  20.800  0.00  0.00    +0.000 A 
ATOM     27  C   UNL     1       1.767  12.819  19.779  0.00  0.00    +0.000 A 
ATOM     28  C   UNL     1       2.335  14.086  19.599  0.00  0.00    +0.000 A 
ATOM     29  C   UNL     1       1.972  15.130  20.440  0.00  0.00    +0.000 A 
ATOM     30 CL   UNL     1       2.603  16.707  20.172  0.00  0.00    +0.000 Cl
ATOM     31  C   UNL     1       1.074  14.911  21.475  0.00  0.00    +0.000 A 
ATOM     32  C   UNL     1       0.504  13.642  21.655  0.00  0.00    +0.000 A 
ATOM     33 CL   UNL     1      -0.661  13.498  22.922  0.00  0.00    +0.000 Cl
ENDBRANCH  25  26
ENDBRANCH  10  25
TORSDOF 6
ENDMDL
MODEL 6
REMARK VINA RESULT:      -6.9      2.734      7.864
REMARK  Name = 
REMARK  8 active torsions:
REMARK  status: ('A' for Active; 'I' for Inactive)
REMARK    1  A    between atoms: C_1  and  N_2
REMARK    2  A    between atoms: N_9  and  C_10
REMARK    3  A    between atoms: C_10  and  C_11
REMARK    4  A    between atoms: C_11  and  C_12
REMARK    5  A    between atoms: C_12  and  N_13
REMARK    6  A    between atoms: N_19  and  C_20
REMARK    7  A    between atoms: C_20  and  C_21
REMARK    8  A    between atoms: N_29  and  C_30
REMARK                            x       y       z     vdW  Elec       q    Type
REMARK                         _______ _______ _______ _____ _____    ______ ____
ROOT
ATOM      1  C   UNL     1      -5.218  12.673  18.784  0.00  0.00    +0.000 C 
ATOM      2  N   UNL     1      -3.992  11.948  18.530  0.00  0.00    +0.000 N 
ATOM      3  C   UNL     1      -3.004  11.915  19.519  0.00  0.00    +0.000 A 
ATOM      4  O   UNL     1      -3.144  12.431  20.632  0.00  0.00    +0.000 OA
ATOM      5  C   UNL     1      -1.826  11.219  19.124  0.00  0.00    +0.000 A 
ATOM      6  C   UNL     1      -1.733  10.589  17.927  0.00  0.00    +0.000 A 
ATOM      7  N   UNL     1      -0.542   9.969  17.758  0.00  0.00    +0.000 NA
ATOM      8  C   UNL     1       0.111  10.170  18.883  0.00  0.00    +0.000 A 
ATOM      9  N   UNL     1       1.318   9.641  19.157  0.00  0.00    +0.000 N 
ATOM     10  N   UNL     1      -0.611  10.990  19.737  0.00  0.00    +0.000 N 
ATOM     11  N   UNL     1      -2.753  10.582  17.007  0.00  0.00    +0.000 N 
ATOM     12  C   UNL     1      -2.645   9.868  15.750  0.00  0.00    +0.000 C 
ATOM     13  C   UNL     1      -3.921  11.284  17.288  0.00  0.00    +0.000 A 
ATOM     14  O   UNL     1      -4.860  11.317  16.486  0.00  0.00    +0.000 OA
ATOM     15  H   UNL     1       1.725   9.610  20.086  0.00  0.00    +0.000 HD
ENDROOT
BRANCH   9  16
ATOM     16  C   UNL     1       2.168   9.263  18.029  0.00  0.00    +0.000 C 
BRANCH  16  17
ATOM     17  C   UNL     1       2.149   7.756  17.760  0.00  0.00    +0.000 C 
BRANCH  17  18
ATOM     18  C   UNL     1       2.648   6.971  18.977  0.00  0.00    +0.000 C 
BRANCH  18  19
ATOM     19  N   UNL     1       3.469   5.783  18.690  0.00  0.00    +0.000 NA
ATOM     20  C   UNL     1       2.768   4.910  17.715  0.00  0.00    +0.000 C 
ATOM     21  C   UNL     1       1.597   4.122  18.331  0.00  0.00    +0.000 C 
ATOM     22  O   UNL     1       2.051   3.298  19.410  0.00  0.00    +0.000 OA
ATOM     23  C   UNL     1       2.685   4.087  20.424  0.00  0.00    +0.000 C 
ATOM     24  C   UNL     1       3.826   4.953  19.859  0.00  0.00    +0.000 C 
ENDBRANCH  18  19
ENDBRANCH  17  18
ENDBRANCH  16  17
ENDBRANCH   9  16
BRANCH  10  25
ATOM     25  C   UNL     1      -0.217  11.449  21.068  0.00  0.00    +0.000 C 
BRANCH  25  26
ATOM     26  C   UNL     1       0.328  12.866  21.113  0.00  0.00    +0.000 A 
ATOM     27  C   UNL     1       1.214  13.296  20.102  0.00  0.00    +0.000 A 
ATOM     28  C   UNL     1       1.642  14.627  20.024  0.00  0.00    +0.000 A 
ATOM     29  C   UNL     1       1.194  15.552  20.957  0.00  0.00    +0.000 A 
ATOM     30 CL   UNL     1       1.651  17.203  20.816  0.00  0.00    +0.000 Cl
ATOM     31  C   UNL     1       0.349  15.153  21.984  0.00  0.00    +0.000 A 
ATOM     32  C   UNL     1      -0.080  13.820  22.062  0.00  0.00    +0.000 A 
ATOM     33 CL   UNL     1      -1.193  13.448  23.331  0.00  0.00    +0.000 Cl
ENDBRANCH  25  26
ENDBRANCH  10  25
TORSDOF 6
ENDMDL
MODEL 7
REMARK VINA RESULT:      -6.8      2.738      8.072
REMARK  Name = 
REMARK  8 active torsions:
REMARK  status: ('A' for Active; 'I' for Inactive)
REMARK    1  A    between atoms: C_1  and  N_2
REMARK    2  A    between atoms: N_9  and  C_10
REMARK    3  A    between atoms: C_10  and  C_11
REMARK    4  A    between atoms: C_11  and  C_12
REMARK    5  A    between atoms: C_12  and  N_13
REMARK    6  A    between atoms: N_19  and  C_20
REMARK    7  A    between atoms: C_20  and  C_21
REMARK    8  A    between atoms: N_29  and  C_30
REMARK                            x       y       z     vdW  Elec       q    Type
REMARK                         _______ _______ _______ _____ _____    ______ ____
ROOT
ATOM      1  C   UNL     1      -5.242  12.654  18.627  0.00  0.00    +0.000 C 
ATOM      2  N   UNL     1      -4.014  11.924  18.398  0.00  0.00    +0.000 N 
ATOM      3  C   UNL     1      -3.047  11.885  19.407  0.00  0.00    +0.000 A 
ATOM      4  O   UNL     1      -3.207  12.401  20.517  0.00  0.00    +0.000 OA
ATOM      5  C   UNL     1      -1.865  11.183  19.036  0.00  0.00    +0.000 A 
ATOM      6  C   UNL     1      -1.751  10.553  17.840  0.00  0.00    +0.000 A 
ATOM      7  N   UNL     1      -0.560   9.927  17.696  0.00  0.00    +0.000 NA
ATOM      8  C   UNL     1       0.071  10.124  18.834  0.00  0.00    +0.000 A 
ATOM      9  N   UNL     1       1.270   9.589  19.132  0.00  0.00    +0.000 N 
ATOM     10  N   UNL     1      -0.663  10.947  19.673  0.00  0.00    +0.000 N 
ATOM     11  N   UNL     1      -2.752  10.552  16.900  0.00  0.00    +0.000 N 
ATOM     12  C   UNL     1      -2.621   9.838  15.645  0.00  0.00    +0.000 C 
ATOM     13  C   UNL     1      -3.921  11.260  17.157  0.00  0.00    +0.000 A 
ATOM     14  O   UNL     1      -4.844  11.298  16.336  0.00  0.00    +0.000 OA
ATOM     15  H   UNL     1       1.657   9.556  20.069  0.00  0.00    +0.000 HD
ENDROOT
BRANCH   9  16
ATOM     16  C   UNL     1       2.141   9.207  18.021  0.00  0.00    +0.000 C 
BRANCH  16  17
ATOM     17  C   UNL     1       2.138   7.697  17.767  0.00  0.00    +0.000 C 
BRANCH  17  18
ATOM     18  C   UNL     1       3.524   7.093  18.013  0.00  0.00    +0.000 C 
BRANCH  18  19
ATOM     19  N   UNL     1       3.583   5.976  18.970  0.00  0.00    +0.000 NA
ATOM     20  C   UNL     1       4.866   5.246  18.816  0.00  0.00    +0.000 C 
ATOM     21  C   UNL     1       4.915   4.354  17.561  0.00  0.00    +0.000 C 
ATOM     22  O   UNL     1       3.860   3.386  17.584  0.00  0.00    +0.000 OA
ATOM     23  C   UNL     1       2.581   4.027  17.668  0.00  0.00    +0.000 C 
ATOM     24  C   UNL     1       2.489   4.987  18.868  0.00  0.00    +0.000 C 
ENDBRANCH  18  19
ENDBRANCH  17  18
ENDBRANCH  16  17
ENDBRANCH   9  16
BRANCH  10  25
ATOM     25  C   UNL     1      -0.295  11.404  21.012  0.00  0.00    +0.000 C 
BRANCH  25  26
ATOM     26  C   UNL     1       0.254  12.818  21.070  0.00  0.00    +0.000 A 
ATOM     27  C   UNL     1       1.115  13.265  20.045  0.00  0.00    +0.000 A 
ATOM     28  C   UNL     1       1.545  14.597  19.979  0.00  0.00    +0.000 A 
ATOM     29  C   UNL     1       1.124  15.505  20.940  0.00  0.00    +0.000 A 
ATOM     30 CL   UNL     1       1.581  17.158  20.819  0.00  0.00    +0.000 Cl
ATOM     31  C   UNL     1       0.304  15.089  21.982  0.00  0.00    +0.000 A 
ATOM     32  C   UNL     1      -0.127  13.756  22.046  0.00  0.00    +0.000 A 
ATOM     33 CL   UNL     1      -1.207  13.363  23.336  0.00  0.00    +0.000 Cl
ENDBRANCH  25  26
ENDBRANCH  10  25
TORSDOF 6
ENDMDL
MODEL 8
REMARK VINA RESULT:      -6.7      4.345      6.576
REMARK  Name = 
REMARK  8 active torsions:
REMARK  status: ('A' for Active; 'I' for Inactive)
REMARK    1  A    between atoms: C_1  and  N_2
REMARK    2  A    between atoms: N_9  and  C_10
REMARK    3  A    between atoms: C_10  and  C_11
REMARK    4  A    between atoms: C_11  and  C_12
REMARK    5  A    between atoms: C_12  and  N_13
REMARK    6  A    between atoms: N_19  and  C_20
REMARK    7  A    between atoms: C_20  and  C_21
REMARK    8  A    between atoms: N_29  and  C_30
REMARK                            x       y       z     vdW  Elec       q    Type
REMARK                         _______ _______ _______ _____ _____    ______ ____
ROOT
ATOM      1  C   UNL     1       4.663   1.747  20.784  0.00  0.00    +0.000 C 
ATOM      2  N   UNL     1       3.980   2.917  20.277  0.00  0.00    +0.000 N 
ATOM      3  C   UNL     1       4.685   3.827  19.484  0.00  0.00    +0.000 A 
ATOM      4  O   UNL     1       5.860   3.657  19.142  0.00  0.00    +0.000 OA
ATOM      5  C   UNL     1       3.917   4.961  19.097  0.00  0.00    +0.000 A 
ATOM      6  C   UNL     1       2.604   5.080  19.415  0.00  0.00    +0.000 A 
ATOM      7  N   UNL     1       2.055   6.220  18.933  0.00  0.00    +0.000 NA
ATOM      8  C   UNL     1       3.022   6.808  18.261  0.00  0.00    +0.000 A 
ATOM      9  N   UNL     1       2.862   7.941  17.551  0.00  0.00    +0.000 N 
ATOM     10  N   UNL     1       4.211   6.106  18.383  0.00  0.00    +0.000 N 
ATOM     11  N   UNL     1       1.923   4.131  20.137  0.00  0.00    +0.000 N 
ATOM     12  C   UNL     1       0.510   4.262  20.431  0.00  0.00    +0.000 C 
ATOM     13  C   UNL     1       2.611   3.015  20.603  0.00  0.00    +0.000 A 
ATOM     14  O   UNL     1       2.043   2.141  21.266  0.00  0.00    +0.000 OA
ATOM     15  H   UNL     1       3.530   8.277  16.866  0.00  0.00    +0.000 HD
ENDROOT
BRANCH   9  16
ATOM     16  C   UNL     1       1.763   8.830  17.924  0.00  0.00    +0.000 C 
BRANCH  16  17
ATOM     17  C   UNL     1       2.213  10.285  18.080  0.00  0.00    +0.000 C 
BRANCH  17  18
ATOM     18  C   UNL     1       1.290  11.050  19.034  0.00  0.00    +0.000 C 
BRANCH  18  19
ATOM     19  N   UNL     1       0.831  12.370  18.571  0.00  0.00    +0.000 NA
ATOM     20  C   UNL     1       2.000  13.225  18.245  0.00  0.00    +0.000 C 
ATOM     21  C   UNL     1       2.731  13.763  19.490  0.00  0.00    +0.000 C 
ATOM     22  O   UNL     1       1.842  14.530  20.309  0.00  0.00    +0.000 OA
ATOM     23  C   UNL     1       0.716  13.743  20.716  0.00  0.00    +0.000 C 
ATOM     24  C   UNL     1      -0.023  13.119  19.517  0.00  0.00    +0.000 C 
ENDBRANCH  18  19
ENDBRANCH  17  18
ENDBRANCH  16  17
ENDBRANCH   9  16
BRANCH  10  25
ATOM     25  C   UNL     1       5.505   6.446  17.794  0.00  0.00    +0.000 C 
BRANCH  25  26
ATOM     26  C   UNL     1       5.827   5.711  16.505  0.00  0.00    +0.000 A 
ATOM     27  C   UNL     1       5.039   5.952  15.360  0.00  0.00    +0.000 A 
ATOM     28  C   UNL     1       5.371   5.402  14.115  0.00  0.00    +0.000 A 
ATOM     29  C   UNL     1       6.497   4.598  13.994  0.00  0.00    +0.000 A 
ATOM     30 CL   UNL     1       6.954   3.988  12.454  0.00  0.00    +0.000 Cl
ATOM     31  C   UNL     1       7.273   4.314  15.110  0.00  0.00    +0.000 A 
ATOM     32  C   UNL     1       6.941   4.865  16.356  0.00  0.00    +0.000 A 
ATOM     33 CL   UNL     1       8.018   4.513  17.661  0.00  0.00    +0.000 Cl
ENDBRANCH  25  26
ENDBRANCH  10  25
TORSDOF 6
ENDMDL
MODEL 9
REMARK VINA RESULT:      -6.6      2.749      7.845
REMARK  Name = 
REMARK  8 active torsions:
REMARK  status: ('A' for Active; 'I' for Inactive)
REMARK    1  A    between atoms: C_1  and  N_2
REMARK    2  A    between atoms: N_9  and  C_10
REMARK    3  A    between atoms: C_10  and  C_11
REMARK    4  A    between atoms: C_11  and  C_12
REMARK    5  A    between atoms: C_12  and  N_13
REMARK    6  A    between atoms: N_19  and  C_20
REMARK    7  A    between atoms: C_20  and  C_21
REMARK    8  A    between atoms: N_29  and  C_30
REMARK                            x       y       z     vdW  Elec       q    Type
REMARK                         _______ _______ _______ _____ _____    ______ ____
ROOT
ATOM      1  C   UNL     1      -4.976  12.759  18.956  0.00  0.00    +0.000 C 
ATOM      2  N   UNL     1      -3.842  11.929  18.612  0.00  0.00    +0.000 N 
ATOM      3  C   UNL     1      -2.776  11.827  19.510  0.00  0.00    +0.000 A 
ATOM      4  O   UNL     1      -2.772  12.370  20.620  0.00  0.00    +0.000 OA
ATOM      5  C   UNL     1      -1.700  11.029  19.030  0.00  0.00    +0.000 A 
ATOM      6  C   UNL     1      -1.767  10.375  17.843  0.00  0.00    +0.000 A 
ATOM      7  N   UNL     1      -0.651   9.654  17.585  0.00  0.00    +0.000 NA
ATOM      8  C   UNL     1       0.115   9.816  18.643  0.00  0.00    +0.000 A 
ATOM      9  N   UNL     1       1.294   9.191  18.822  0.00  0.00    +0.000 N 
ATOM     10  N   UNL     1      -0.457  10.706  19.538  0.00  0.00    +0.000 N 
ATOM     11  N   UNL     1      -2.861  10.441  17.016  0.00  0.00    +0.000 N 
ATOM     12  C   UNL     1      -2.925   9.702  15.771  0.00  0.00    +0.000 C 
ATOM     13  C   UNL     1      -3.937  11.243  17.383  0.00  0.00    +0.000 A 
ATOM     14  O   UNL     1      -4.938  11.343  16.666  0.00  0.00    +0.000 OA
ATOM     15  H   UNL     1       1.778   9.140  19.712  0.00  0.00    +0.000 HD
ENDROOT
BRANCH   9  16
ATOM     16  C   UNL     1       2.005   8.726  17.632  0.00  0.00    +0.000 C 
BRANCH  16  17
ATOM     17  C   UNL     1       3.367   8.109  17.967  0.00  0.00    +0.000 C 
BRANCH  17  18
ATOM     18  C   UNL     1       3.314   6.581  17.891  0.00  0.00    +0.000 C 
BRANCH  18  19
ATOM     19  N   UNL     1       2.121   5.944  18.472  0.00  0.00    +0.000 NA
ATOM     20  C   UNL     1       2.388   5.563  19.882  0.00  0.00    +0.000 C 
ATOM     21  C   UNL     1       3.287   4.320  20.020  0.00  0.00    +0.000 C 
ATOM     22  O   UNL     1       2.697   3.191  19.365  0.00  0.00    +0.000 OA
ATOM     23  C   UNL     1       2.469   3.468  17.977  0.00  0.00    +0.000 C 
ATOM     24  C   UNL     1       1.629   4.741  17.768  0.00  0.00    +0.000 C 
ENDBRANCH  18  19
ENDBRANCH  17  18
ENDBRANCH  16  17
ENDBRANCH   9  16
BRANCH  10  25
ATOM     25  C   UNL     1       0.090  11.151  20.819  0.00  0.00    +0.000 C 
BRANCH  25  26
ATOM     26  C   UNL     1       0.788  12.498  20.776  0.00  0.00    +0.000 A 
ATOM     27  C   UNL     1       1.747  12.746  19.771  0.00  0.00    +0.000 A 
ATOM     28  C   UNL     1       2.324  14.011  19.606  0.00  0.00    +0.000 A 
ATOM     29  C   UNL     1       1.953  15.053  20.446  0.00  0.00    +0.000 A 
ATOM     30 CL   UNL     1       2.596  16.627  20.196  0.00  0.00    +0.000 Cl
ATOM     31  C   UNL     1       1.038  14.832  21.467  0.00  0.00    +0.000 A 
ATOM     32  C   UNL     1       0.460  13.566  21.631  0.00  0.00    +0.000 A 
ATOM     33 CL   UNL     1      -0.726  13.421  22.880  0.00  0.00    +0.000 Cl
ENDBRANCH  25  26
ENDBRANCH  10  25
TORSDOF 6
ENDMDL
