MODEL 1
REMARK VINA RESULT:      -7.1      0.000      0.000
REMARK  Name = 
REMARK  11 active torsions:
REMARK  status: ('A' for Active; 'I' for Inactive)
REMARK    1  A    between atoms: C_1  and  C_2
REMARK    2  A    between atoms: C_2  and  C_4
REMARK    3  A    between atoms: C_5  and  C_6
REMARK    4  A    between atoms: C_7  and  C_8
REMARK    5  A    between atoms: C_8  and  C_9
REMARK    6  A    between atoms: C_10  and  C_11
REMARK    7  A    between atoms: C_12  and  C_13
REMARK    8  A    between atoms: C_13  and  C_14
REMARK    9  A    between atoms: C_15  and  C_16
REMARK   10  A    between atoms: C_18  and  C_19
REMARK   11  A    between atoms: C_18  and  C_20
REMARK                            x       y       z     vdW  Elec       q    Type
REMARK                         _______ _______ _______ _____ _____    ______ ____
ROOT
ATOM      1  C   UNL     1       2.741   6.755  18.103  0.00  0.00    +0.000 C 
ATOM      2  C   UNL     1       2.332   7.243  19.289  0.00  0.00    +0.000 C 
ENDROOT
BRANCH   1   4
ATOM      3  C   UNL     1       4.605   5.436  17.117  0.00  0.00    +0.000 C 
ATOM      4  C   UNL     1       3.457   5.528  17.825  0.00  0.00    +0.000 C 
ATOM      5  C   UNL     1       2.973   4.140  18.252  0.00  0.00    +0.000 C 
ATOM      6  C   UNL     1       1.482   3.871  17.987  0.00  0.00    +0.000 C 
ATOM      7  C   UNL     1       3.328   3.837  19.716  0.00  0.00    +0.000 C 
ATOM      8  C   UNL     1       3.799   3.231  17.307  0.00  0.00    +0.000 C 
ATOM      9  C   UNL     1       5.047   4.019  16.942  0.00  0.00    +0.000 C 
BRANCH   3  11
ATOM     10  C   UNL     1       6.543   7.158  17.254  0.00  0.00    +0.000 C 
ATOM     11  C   UNL     1       5.401   6.531  16.478  0.00  0.00    +0.000 C 
ATOM     12  O   UNL     1       5.160   6.905  15.336  0.00  0.00    +0.000 OA
ENDBRANCH   3  11
ENDBRANCH   1   4
BRANCH   2  13
ATOM     13  C   UNL     1       1.639   8.515  19.484  0.00  0.00    +0.000 C 
ATOM     14  C   UNL     1       1.616   9.520  18.348  0.00  0.00    +0.000 C 
ATOM     15  C   UNL     1       1.090   8.794  20.690  0.00  0.00    +0.000 C 
BRANCH  15  16
ATOM     16  C   UNL     1       0.429  10.048  20.985  0.00  0.00    +0.000 C 
ATOM     17  C   UNL     1      -0.217  10.369  22.116  0.00  0.00    +0.000 C 
BRANCH  17  18
ATOM     18  C   UNL     1      -0.846  11.665  22.377  0.00  0.00    +0.000 C 
ATOM     19  C   UNL     1      -0.216  12.945  21.870  0.00  0.00    +0.000 C 
ATOM     20  C   UNL     1      -1.991  11.694  23.089  0.00  0.00    +0.000 C 
BRANCH  20  21
ATOM     21  C   UNL     1      -2.707  12.943  23.429  0.00  0.00    +0.000 C 
ATOM     22  O   UNL     1      -3.667  13.321  22.760  0.00  0.00    +0.000 OA
ENDBRANCH  20  21
ENDBRANCH  17  18
ENDBRANCH  15  16
ENDBRANCH   2  13
TORSDOF 6
ENDMDL
MODEL 2
REMARK VINA RESULT:      -7.0      4.219      7.976
REMARK  Name = 
REMARK  11 active torsions:
REMARK  status: ('A' for Active; 'I' for Inactive)
REMARK    1  A    between atoms: C_1  and  C_2
REMARK    2  A    between atoms: C_2  and  C_4
REMARK    3  A    between atoms: C_5  and  C_6
REMARK    4  A    between atoms: C_7  and  C_8
REMARK    5  A    between atoms: C_8  and  C_9
REMARK    6  A    between atoms: C_10  and  C_11
REMARK    7  A    between atoms: C_12  and  C_13
REMARK    8  A    between atoms: C_13  and  C_14
REMARK    9  A    between atoms: C_15  and  C_16
REMARK   10  A    between atoms: C_18  and  C_19
REMARK   11  A    between atoms: C_18  and  C_20
REMARK                            x       y       z     vdW  Elec       q    Type
REMARK                         _______ _______ _______ _____ _____    ______ ____
ROOT
ATOM      1  C   UNL     1       5.105   6.060  18.624  0.00  0.00    +0.000 C 
ATOM      2  C   UNL     1       6.123   6.278  17.772  0.00  0.00    +0.000 C 
ENDROOT
BRANCH   1   4
ATOM      3  C   UNL     1       2.628   5.879  18.477  0.00  0.00    +0.000 C 
ATOM      4  C   UNL     1       3.867   5.344  18.397  0.00  0.00    +0.000 C 
ATOM      5  C   UNL     1       3.790   3.847  18.087  0.00  0.00    +0.000 C 
ATOM      6  C   UNL     1       4.676   2.961  18.980  0.00  0.00    +0.000 C 
ATOM      7  C   UNL     1       4.054   3.558  16.601  0.00  0.00    +0.000 C 
ATOM      8  C   UNL     1       2.310   3.546  18.431  0.00  0.00    +0.000 C 
ATOM      9  C   UNL     1       1.559   4.857  18.264  0.00  0.00    +0.000 C 
BRANCH   3  11
ATOM     10  C   UNL     1       2.217   8.315  17.680  0.00  0.00    +0.000 C 
ATOM     11  C   UNL     1       2.235   7.288  18.796  0.00  0.00    +0.000 C 
ATOM     12  O   UNL     1       1.906   7.613  19.931  0.00  0.00    +0.000 OA
ENDBRANCH   3  11
ENDBRANCH   1   4
BRANCH   2  13
ATOM     13  C   UNL     1       7.329   7.045  18.075  0.00  0.00    +0.000 C 
ATOM     14  C   UNL     1       8.357   6.452  19.019  0.00  0.00    +0.000 C 
ATOM     15  C   UNL     1       7.472   8.289  17.559  0.00  0.00    +0.000 C 
BRANCH  15  16
ATOM     16  C   UNL     1       8.611   9.135  17.846  0.00  0.00    +0.000 C 
ATOM     17  C   UNL     1       8.645  10.176  18.692  0.00  0.00    +0.000 C 
BRANCH  17  18
ATOM     18  C   UNL     1       9.833  10.986  18.971  0.00  0.00    +0.000 C 
ATOM     19  C   UNL     1      10.148  11.433  20.382  0.00  0.00    +0.000 C 
ATOM     20  C   UNL     1      10.632  11.333  17.941  0.00  0.00    +0.000 C 
BRANCH  20  21
ATOM     21  C   UNL     1      11.848  12.160  18.099  0.00  0.00    +0.000 C 
ATOM     22  O   UNL     1      12.232  12.896  17.191  0.00  0.00    +0.000 OA
ENDBRANCH  20  21
ENDBRANCH  17  18
ENDBRANCH  15  16
ENDBRANCH   2  13
TORSDOF 6
ENDMDL
MODEL 3
REMARK VINA RESULT:      -7.0      1.650      2.058
REMARK  Name = 
REMARK  11 active torsions:
REMARK  status: ('A' for Active; 'I' for Inactive)
REMARK    1  A    between atoms: C_1  and  C_2
REMARK    2  A    between atoms: C_2  and  C_4
REMARK    3  A    between atoms: C_5  and  C_6
REMARK    4  A    between atoms: C_7  and  C_8
REMARK    5  A    between atoms: C_8  and  C_9
REMARK    6  A    between atoms: C_10  and  C_11
REMARK    7  A    between atoms: C_12  and  C_13
REMARK    8  A    between atoms: C_13  and  C_14
REMARK    9  A    between atoms: C_15  and  C_16
REMARK   10  A    between atoms: C_18  and  C_19
REMARK   11  A    between atoms: C_18  and  C_20
REMARK                            x       y       z     vdW  Elec       q    Type
REMARK                         _______ _______ _______ _____ _____    ______ ____
ROOT
ATOM      1  C   UNL     1       2.618   5.686  20.040  0.00  0.00    +0.000 C 
ATOM      2  C   UNL     1       2.346   6.615  19.106  0.00  0.00    +0.000 C 
ENDROOT
BRANCH   1   4
ATOM      3  C   UNL     1       4.273   3.945  19.392  0.00  0.00    +0.000 C 
ATOM      4  C   UNL     1       3.060   4.319  19.859  0.00  0.00    +0.000 C 
ATOM      5  C   UNL     1       2.180   3.094  20.119  0.00  0.00    +0.000 C 
ATOM      6  C   UNL     1       0.755   3.195  19.549  0.00  0.00    +0.000 C 
ATOM      7  C   UNL     1       2.144   2.724  21.610  0.00  0.00    +0.000 C 
ATOM      8  C   UNL     1       2.940   2.005  19.321  0.00  0.00    +0.000 C 
ATOM      9  C   UNL     1       4.388   2.462  19.248  0.00  0.00    +0.000 C 
BRANCH   3  11
ATOM     10  C   UNL     1       5.458   5.348  17.557  0.00  0.00    +0.000 C 
ATOM     11  C   UNL     1       5.422   4.808  18.974  0.00  0.00    +0.000 C 
ATOM     12  O   UNL     1       6.313   5.103  19.762  0.00  0.00    +0.000 OA
ENDBRANCH   3  11
ENDBRANCH   1   4
BRANCH   2  13
ATOM     13  C   UNL     1       1.869   7.970  19.376  0.00  0.00    +0.000 C 
ATOM     14  C   UNL     1       1.901   8.995  18.258  0.00  0.00    +0.000 C 
ATOM     15  C   UNL     1       1.469   8.296  20.627  0.00  0.00    +0.000 C 
BRANCH  15  16
ATOM     16  C   UNL     1       1.028   9.626  20.993  0.00  0.00    +0.000 C 
ATOM     17  C   UNL     1      -0.228  10.007  21.271  0.00  0.00    +0.000 C 
BRANCH  17  18
ATOM     18  C   UNL     1      -0.619  11.362  21.666  0.00  0.00    +0.000 C 
ATOM     19  C   UNL     1      -0.244  12.554  20.810  0.00  0.00    +0.000 C 
ATOM     20  C   UNL     1      -1.309  11.525  22.813  0.00  0.00    +0.000 C 
BRANCH  20  21
ATOM     21  C   UNL     1      -1.744  12.845  23.320  0.00  0.00    +0.000 C 
ATOM     22  O   UNL     1      -2.917  13.047  23.628  0.00  0.00    +0.000 OA
ENDBRANCH  20  21
ENDBRANCH  17  18
ENDBRANCH  15  16
ENDBRANCH   2  13
TORSDOF 6
ENDMDL
MODEL 4
REMARK VINA RESULT:      -6.9      1.696      2.994
REMARK  Name = 
REMARK  11 active torsions:
REMARK  status: ('A' for Active; 'I' for Inactive)
REMARK    1  A    between atoms: C_1  and  C_2
REMARK    2  A    between atoms: C_2  and  C_4
REMARK    3  A    between atoms: C_5  and  C_6
REMARK    4  A    between atoms: C_7  and  C_8
REMARK    5  A    between atoms: C_8  and  C_9
REMARK    6  A    between atoms: C_10  and  C_11
REMARK    7  A    between atoms: C_12  and  C_13
REMARK    8  A    between atoms: C_13  and  C_14
REMARK    9  A    between atoms: C_15  and  C_16
REMARK   10  A    between atoms: C_18  and  C_19
REMARK   11  A    between atoms: C_18  and  C_20
REMARK                            x       y       z     vdW  Elec       q    Type
REMARK                         _______ _______ _______ _____ _____    ______ ____
ROOT
ATOM      1  C   UNL     1       3.130   6.987  18.341  0.00  0.00    +0.000 C 
ATOM      2  C   UNL     1       2.384   7.941  17.754  0.00  0.00    +0.000 C 
ENDROOT
BRANCH   1   4
ATOM      3  C   UNL     1       3.089   4.601  17.641  0.00  0.00    +0.000 C 
ATOM      4  C   UNL     1       3.708   5.797  17.753  0.00  0.00    +0.000 C 
ATOM      5  C   UNL     1       5.143   5.715  17.225  0.00  0.00    +0.000 C 
ATOM      6  C   UNL     1       6.205   6.331  18.151  0.00  0.00    +0.000 C 
ATOM      7  C   UNL     1       5.260   6.289  15.804  0.00  0.00    +0.000 C 
ATOM      8  C   UNL     1       5.363   4.182  17.196  0.00  0.00    +0.000 C 
ATOM      9  C   UNL     1       3.985   3.555  17.060  0.00  0.00    +0.000 C 
BRANCH   3  11
ATOM     10  C   UNL     1       1.417   4.024  19.541  0.00  0.00    +0.000 C 
ATOM     11  C   UNL     1       1.705   4.219  18.065  0.00  0.00    +0.000 C 
ATOM     12  O   UNL     1       0.804   4.090  17.244  0.00  0.00    +0.000 OA
ENDBRANCH   3  11
ENDBRANCH   1   4
BRANCH   2  13
ATOM     13  C   UNL     1       1.808   9.100  18.433  0.00  0.00    +0.000 C 
ATOM     14  C   UNL     1       2.101  10.487  17.892  0.00  0.00    +0.000 C 
ATOM     15  C   UNL     1       1.082   8.916  19.560  0.00  0.00    +0.000 C 
BRANCH  15  16
ATOM     16  C   UNL     1       0.517  10.010  20.322  0.00  0.00    +0.000 C 
ATOM     17  C   UNL     1      -0.647  10.636  20.086  0.00  0.00    +0.000 C 
BRANCH  17  18
ATOM     18  C   UNL     1      -1.190  11.722  20.905  0.00  0.00    +0.000 C 
ATOM     19  C   UNL     1      -2.034  12.812  20.279  0.00  0.00    +0.000 C 
ATOM     20  C   UNL     1      -0.912  11.734  22.225  0.00  0.00    +0.000 C 
BRANCH  20  21
ATOM     21  C   UNL     1      -1.392  12.787  23.147  0.00  0.00    +0.000 C 
ATOM     22  O   UNL     1      -0.631  13.660  23.558  0.00  0.00    +0.000 OA
ENDBRANCH  20  21
ENDBRANCH  17  18
ENDBRANCH  15  16
ENDBRANCH   2  13
TORSDOF 6
ENDMDL
MODEL 5
REMARK VINA RESULT:      -6.9      1.831      2.363
REMARK  Name = 
REMARK  11 active torsions:
REMARK  status: ('A' for Active; 'I' for Inactive)
REMARK    1  A    between atoms: C_1  and  C_2
REMARK    2  A    between atoms: C_2  and  C_4
REMARK    3  A    between atoms: C_5  and  C_6
REMARK    4  A    between atoms: C_7  and  C_8
REMARK    5  A    between atoms: C_8  and  C_9
REMARK    6  A    between atoms: C_10  and  C_11
REMARK    7  A    between atoms: C_12  and  C_13
REMARK    8  A    between atoms: C_13  and  C_14
REMARK    9  A    between atoms: C_15  and  C_16
REMARK   10  A    between atoms: C_18  and  C_19
REMARK   11  A    between atoms: C_18  and  C_20
REMARK                            x       y       z     vdW  Elec       q    Type
REMARK                         _______ _______ _______ _____ _____    ______ ____
ROOT
ATOM      1  C   UNL     1       2.708   5.797  20.099  0.00  0.00    +0.000 C 
ATOM      2  C   UNL     1       2.287   6.686  19.181  0.00  0.00    +0.000 C 
ENDROOT
BRANCH   1   4
ATOM      3  C   UNL     1       4.375   4.081  19.417  0.00  0.00    +0.000 C 
ATOM      4  C   UNL     1       3.164   4.437  19.902  0.00  0.00    +0.000 C 
ATOM      5  C   UNL     1       2.302   3.199  20.163  0.00  0.00    +0.000 C 
ATOM      6  C   UNL     1       0.869   3.287  19.611  0.00  0.00    +0.000 C 
ATOM      7  C   UNL     1       2.289   2.818  21.652  0.00  0.00    +0.000 C 
ATOM      8  C   UNL     1       3.065   2.126  19.348  0.00  0.00    +0.000 C 
ATOM      9  C   UNL     1       4.506   2.601  19.261  0.00  0.00    +0.000 C 
BRANCH   3  11
ATOM     10  C   UNL     1       5.462   5.606  17.619  0.00  0.00    +0.000 C 
ATOM     11  C   UNL     1       5.509   4.961  18.991  0.00  0.00    +0.000 C 
ATOM     12  O   UNL     1       6.453   5.186  19.740  0.00  0.00    +0.000 OA
ENDBRANCH   3  11
ENDBRANCH   1   4
BRANCH   2  13
ATOM     13  C   UNL     1       1.808   8.036  19.471  0.00  0.00    +0.000 C 
ATOM     14  C   UNL     1       1.889   9.093  18.385  0.00  0.00    +0.000 C 
ATOM     15  C   UNL     1       1.363   8.330  20.715  0.00  0.00    +0.000 C 
BRANCH  15  16
ATOM     16  C   UNL     1       0.916   9.652  21.101  0.00  0.00    +0.000 C 
ATOM     17  C   UNL     1      -0.233   9.963  21.721  0.00  0.00    +0.000 C 
BRANCH  17  18
ATOM     18  C   UNL     1      -0.626  11.317  22.118  0.00  0.00    +0.000 C 
ATOM     19  C   UNL     1      -1.734  11.533  23.126  0.00  0.00    +0.000 C 
ATOM     20  C   UNL     1       0.011  12.363  21.556  0.00  0.00    +0.000 C 
BRANCH  20  21
ATOM     21  C   UNL     1      -0.311  13.774  21.866  0.00  0.00    +0.000 C 
ATOM     22  O   UNL     1      -0.139  14.659  21.030  0.00  0.00    +0.000 OA
ENDBRANCH  20  21
ENDBRANCH  17  18
ENDBRANCH  15  16
ENDBRANCH   2  13
TORSDOF 6
ENDMDL
MODEL 6
REMARK VINA RESULT:      -6.9      1.584      3.153
REMARK  Name = 
REMARK  11 active torsions:
REMARK  status: ('A' for Active; 'I' for Inactive)
REMARK    1  A    between atoms: C_1  and  C_2
REMARK    2  A    between atoms: C_2  and  C_4
REMARK    3  A    between atoms: C_5  and  C_6
REMARK    4  A    between atoms: C_7  and  C_8
REMARK    5  A    between atoms: C_8  and  C_9
REMARK    6  A    between atoms: C_10  and  C_11
REMARK    7  A    between atoms: C_12  and  C_13
REMARK    8  A    between atoms: C_13  and  C_14
REMARK    9  A    between atoms: C_15  and  C_16
REMARK   10  A    between atoms: C_18  and  C_19
REMARK   11  A    between atoms: C_18  and  C_20
REMARK                            x       y       z     vdW  Elec       q    Type
REMARK                         _______ _______ _______ _____ _____    ______ ____
ROOT
ATOM      1  C   UNL     1       3.470   6.240  17.940  0.00  0.00    +0.000 C 
ATOM      2  C   UNL     1       3.047   7.502  17.738  0.00  0.00    +0.000 C 
ENDROOT
BRANCH   1   4
ATOM      3  C   UNL     1       4.371   4.130  16.980  0.00  0.00    +0.000 C 
ATOM      4  C   UNL     1       4.421   5.468  17.169  0.00  0.00    +0.000 C 
ATOM      5  C   UNL     1       5.666   6.062  16.504  0.00  0.00    +0.000 C 
ATOM      6  C   UNL     1       6.469   7.027  17.391  0.00  0.00    +0.000 C 
ATOM      7  C   UNL     1       5.332   6.714  15.153  0.00  0.00    +0.000 C 
ATOM      8  C   UNL     1       6.521   4.790  16.281  0.00  0.00    +0.000 C 
ATOM      9  C   UNL     1       5.545   3.627  16.204  0.00  0.00    +0.000 C 
BRANCH   3  11
ATOM     10  C   UNL     1       3.713   2.272  18.670  0.00  0.00    +0.000 C 
ATOM     11  C   UNL     1       3.358   3.150  17.485  0.00  0.00    +0.000 C 
ATOM     12  O   UNL     1       2.248   3.067  16.974  0.00  0.00    +0.000 OA
ENDBRANCH   3  11
ENDBRANCH   1   4
BRANCH   2  13
ATOM     13  C   UNL     1       2.052   8.200  18.549  0.00  0.00    +0.000 C 
ATOM     14  C   UNL     1       1.302   9.371  17.943  0.00  0.00    +0.000 C 
ATOM     15  C   UNL     1       1.866   7.827  19.837  0.00  0.00    +0.000 C 
BRANCH  15  16
ATOM     16  C   UNL     1       0.936   8.494  20.725  0.00  0.00    +0.000 C 
ATOM     17  C   UNL     1       1.156   9.622  21.418  0.00  0.00    +0.000 C 
BRANCH  17  18
ATOM     18  C   UNL     1       0.170  10.274  22.282  0.00  0.00    +0.000 C 
ATOM     19  C   UNL     1      -0.313   9.599  23.548  0.00  0.00    +0.000 C 
ATOM     20  C   UNL     1      -0.306  11.483  21.919  0.00  0.00    +0.000 C 
BRANCH  20  21
ATOM     21  C   UNL     1      -1.314  12.229  22.703  0.00  0.00    +0.000 C 
ATOM     22  O   UNL     1      -0.981  13.162  23.432  0.00  0.00    +0.000 OA
ENDBRANCH  20  21
ENDBRANCH  17  18
ENDBRANCH  15  16
ENDBRANCH   2  13
TORSDOF 6
ENDMDL
MODEL 7
REMARK VINA RESULT:      -6.8      1.700      3.069
REMARK  Name = 
REMARK  11 active torsions:
REMARK  status: ('A' for Active; 'I' for Inactive)
REMARK    1  A    between atoms: C_1  and  C_2
REMARK    2  A    between atoms: C_2  and  C_4
REMARK    3  A    between atoms: C_5  and  C_6
REMARK    4  A    between atoms: C_7  and  C_8
REMARK    5  A    between atoms: C_8  and  C_9
REMARK    6  A    between atoms: C_10  and  C_11
REMARK    7  A    between atoms: C_12  and  C_13
REMARK    8  A    between atoms: C_13  and  C_14
REMARK    9  A    between atoms: C_15  and  C_16
REMARK   10  A    between atoms: C_18  and  C_19
REMARK   11  A    between atoms: C_18  and  C_20
REMARK                            x       y       z     vdW  Elec       q    Type
REMARK                         _______ _______ _______ _____ _____    ______ ____
ROOT
ATOM      1  C   UNL     1       3.352   7.305  18.056  0.00  0.00    +0.000 C 
ATOM      2  C   UNL     1       2.152   7.861  17.809  0.00  0.00    +0.000 C 
ENDROOT
BRANCH   1   4
ATOM      3  C   UNL     1       3.313   4.862  17.589  0.00  0.00    +0.000 C 
ATOM      4  C   UNL     1       3.907   6.075  17.532  0.00  0.00    +0.000 C 
ATOM      5  C   UNL     1       5.291   5.968  16.885  0.00  0.00    +0.000 C 
ATOM      6  C   UNL     1       6.414   6.690  17.649  0.00  0.00    +0.000 C 
ATOM      7  C   UNL     1       5.266   6.407  15.412  0.00  0.00    +0.000 C 
ATOM      8  C   UNL     1       5.549   4.444  16.980  0.00  0.00    +0.000 C 
ATOM      9  C   UNL     1       4.181   3.782  17.029  0.00  0.00    +0.000 C 
BRANCH   3  11
ATOM     10  C   UNL     1       1.804   4.537  19.676  0.00  0.00    +0.000 C 
ATOM     11  C   UNL     1       1.982   4.497  18.171  0.00  0.00    +0.000 C 
ATOM     12  O   UNL     1       1.037   4.196  17.451  0.00  0.00    +0.000 OA
ENDBRANCH   3  11
ENDBRANCH   1   4
BRANCH   2  13
ATOM     13  C   UNL     1       1.654   9.096  18.411  0.00  0.00    +0.000 C 
ATOM     14  C   UNL     1       2.143  10.426  17.868  0.00  0.00    +0.000 C 
ATOM     15  C   UNL     1       0.819   9.027  19.474  0.00  0.00    +0.000 C 
BRANCH  15  16
ATOM     16  C   UNL     1       0.317  10.200  20.160  0.00  0.00    +0.000 C 
ATOM     17  C   UNL     1      -0.192  10.248  21.401  0.00  0.00    +0.000 C 
BRANCH  17  18
ATOM     18  C   UNL     1      -0.661  11.468  22.063  0.00  0.00    +0.000 C 
ATOM     19  C   UNL     1      -1.657  11.394  23.200  0.00  0.00    +0.000 C 
ATOM     20  C   UNL     1      -0.195  12.656  21.628  0.00  0.00    +0.000 C 
BRANCH  20  21
ATOM     21  C   UNL     1      -0.608  13.953  22.208  0.00  0.00    +0.000 C 
ATOM     22  O   UNL     1       0.114  14.544  23.009  0.00  0.00    +0.000 OA
ENDBRANCH  20  21
ENDBRANCH  17  18
ENDBRANCH  15  16
ENDBRANCH   2  13
TORSDOF 6
ENDMDL
MODEL 8
REMARK VINA RESULT:      -6.8      1.549      2.940
REMARK  Name = 
REMARK  11 active torsions:
REMARK  status: ('A' for Active; 'I' for Inactive)
REMARK    1  A    between atoms: C_1  and  C_2
REMARK    2  A    between atoms: C_2  and  C_4
REMARK    3  A    between atoms: C_5  and  C_6
REMARK    4  A    between atoms: C_7  and  C_8
REMARK    5  A    between atoms: C_8  and  C_9
REMARK    6  A    between atoms: C_10  and  C_11
REMARK    7  A    between atoms: C_12  and  C_13
REMARK    8  A    between atoms: C_13  and  C_14
REMARK    9  A    between atoms: C_15  and  C_16
REMARK   10  A    between atoms: C_18  and  C_19
REMARK   11  A    between atoms: C_18  and  C_20
REMARK                            x       y       z     vdW  Elec       q    Type
REMARK                         _______ _______ _______ _____ _____    ______ ____
ROOT
ATOM      1  C   UNL     1       3.135   6.701  18.375  0.00  0.00    +0.000 C 
ATOM      2  C   UNL     1       2.533   7.786  17.853  0.00  0.00    +0.000 C 
ENDROOT
BRANCH   1   4
ATOM      3  C   UNL     1       3.215   4.368  17.515  0.00  0.00    +0.000 C 
ATOM      4  C   UNL     1       3.762   5.593  17.687  0.00  0.00    +0.000 C 
ATOM      5  C   UNL     1       5.177   5.638  17.104  0.00  0.00    +0.000 C 
ATOM      6  C   UNL     1       6.234   6.259  18.033  0.00  0.00    +0.000 C 
ATOM      7  C   UNL     1       5.203   6.312  15.723  0.00  0.00    +0.000 C 
ATOM      8  C   UNL     1       5.491   4.128  16.963  0.00  0.00    +0.000 C 
ATOM      9  C   UNL     1       4.150   3.424  16.833  0.00  0.00    +0.000 C 
BRANCH   3  11
ATOM     10  C   UNL     1       1.754   3.198  19.313  0.00  0.00    +0.000 C 
ATOM     11  C   UNL     1       1.874   3.871  17.960  0.00  0.00    +0.000 C 
ATOM     12  O   UNL     1       0.879   4.023  17.262  0.00  0.00    +0.000 OA
ENDBRANCH   3  11
ENDBRANCH   1   4
BRANCH   2  13
ATOM     13  C   UNL     1       1.892   8.848  18.624  0.00  0.00    +0.000 C 
ATOM     14  C   UNL     1       1.768  10.229  18.009  0.00  0.00    +0.000 C 
ATOM     15  C   UNL     1       1.480   8.595  19.889  0.00  0.00    +0.000 C 
BRANCH  15  16
ATOM     16  C   UNL     1       0.879   9.602  20.739  0.00  0.00    +0.000 C 
ATOM     17  C   UNL     1      -0.378  10.066  20.669  0.00  0.00    +0.000 C 
BRANCH  17  18
ATOM     18  C   UNL     1      -0.949  11.067  21.574  0.00  0.00    +0.000 C 
ATOM     19  C   UNL     1      -0.997  10.819  23.066  0.00  0.00    +0.000 C 
ATOM     20  C   UNL     1      -1.440  12.206  21.046  0.00  0.00    +0.000 C 
BRANCH  20  21
ATOM     21  C   UNL     1      -2.054  13.280  21.858  0.00  0.00    +0.000 C 
ATOM     22  O   UNL     1      -3.206  13.652  21.644  0.00  0.00    +0.000 OA
ENDBRANCH  20  21
ENDBRANCH  17  18
ENDBRANCH  15  16
ENDBRANCH   2  13
TORSDOF 6
ENDMDL
MODEL 9
REMARK VINA RESULT:      -6.8      1.904      2.377
REMARK  Name = 
REMARK  11 active torsions:
REMARK  status: ('A' for Active; 'I' for Inactive)
REMARK    1  A    between atoms: C_1  and  C_2
REMARK    2  A    between atoms: C_2  and  C_4
REMARK    3  A    between atoms: C_5  and  C_6
REMARK    4  A    between atoms: C_7  and  C_8
REMARK    5  A    between atoms: C_8  and  C_9
REMARK    6  A    between atoms: C_10  and  C_11
REMARK    7  A    between atoms: C_12  and  C_13
REMARK    8  A    between atoms: C_13  and  C_14
REMARK    9  A    between atoms: C_15  and  C_16
REMARK   10  A    between atoms: C_18  and  C_19
REMARK   11  A    between atoms: C_18  and  C_20
REMARK                            x       y       z     vdW  Elec       q    Type
REMARK                         _______ _______ _______ _____ _____    ______ ____
ROOT
ATOM      1  C   UNL     1       3.091   6.572  18.546  0.00  0.00    +0.000 C 
ATOM      2  C   UNL     1       2.302   7.542  18.049  0.00  0.00    +0.000 C 
ENDROOT
BRANCH   1   4
ATOM      3  C   UNL     1       4.563   5.316  16.982  0.00  0.00    +0.000 C 
ATOM      4  C   UNL     1       3.569   5.369  17.897  0.00  0.00    +0.000 C 
ATOM      5  C   UNL     1       2.963   3.980  18.117  0.00  0.00    +0.000 C 
ATOM      6  C   UNL     1       1.426   3.938  18.088  0.00  0.00    +0.000 C 
ATOM      7  C   UNL     1       3.501   3.321  19.397  0.00  0.00    +0.000 C 
ATOM      8  C   UNL     1       3.487   3.224  16.871  0.00  0.00    +0.000 C 
ATOM      9  C   UNL     1       4.761   3.936  16.445  0.00  0.00    +0.000 C 
BRANCH   3  11
ATOM     10  C   UNL     1       6.566   6.944  17.258  0.00  0.00    +0.000 C 
ATOM     11  C   UNL     1       5.396   6.436  16.439  0.00  0.00    +0.000 C 
ATOM     12  O   UNL     1       5.162   6.923  15.339  0.00  0.00    +0.000 OA
ENDBRANCH   3  11
ENDBRANCH   1   4
BRANCH   2  13
ATOM     13  C   UNL     1       1.836   8.714  18.788  0.00  0.00    +0.000 C 
ATOM     14  C   UNL     1       1.427   8.550  20.240  0.00  0.00    +0.000 C 
ATOM     15  C   UNL     1       1.722   9.901  18.148  0.00  0.00    +0.000 C 
BRANCH  15  16
ATOM     16  C   UNL     1       1.224  11.099  18.791  0.00  0.00    +0.000 C 
ATOM     17  C   UNL     1       1.873  12.265  18.930  0.00  0.00    +0.000 C 
BRANCH  17  18
ATOM     18  C   UNL     1       1.313  13.460  19.565  0.00  0.00    +0.000 C 
ATOM     19  C   UNL     1       1.329  14.793  18.848  0.00  0.00    +0.000 C 
ATOM     20  C   UNL     1       0.796  13.348  20.805  0.00  0.00    +0.000 C 
BRANCH  20  21
ATOM     21  C   UNL     1       0.219  14.488  21.551  0.00  0.00    +0.000 C 
ATOM     22  O   UNL     1       0.770  14.926  22.559  0.00  0.00    +0.000 OA
ENDBRANCH  20  21
ENDBRANCH  17  18
ENDBRANCH  15  16
ENDBRANCH   2  13
TORSDOF 6
ENDMDL
