MODEL 1
REMARK VINA RESULT:      -7.3      0.000      0.000
REMARK  Name = 
REMARK  5 active torsions:
REMARK  status: ('A' for Active; 'I' for Inactive)
REMARK    1  A    between atoms: C_1  and  O_2
REMARK    2  A    between atoms: O_2  and  C_3
REMARK    3  A    between atoms: C_3  and  C_5
REMARK    4  A    between atoms: C_12  and  C_13
REMARK    5  A    between atoms: C_12  and  C_14
REMARK                            x       y       z     vdW  Elec       q    Type
REMARK                         _______ _______ _______ _____ _____    ______ ____
ROOT
ATOM      1  C   UNL     1       5.376   4.816  17.041  0.00  0.00    +0.000 A 
ATOM      2  C   UNL     1       4.872   6.119  16.915  0.00  0.00    +0.000 A 
ATOM      3  C   UNL     1       3.875   6.581  17.780  0.00  0.00    +0.000 A 
ATOM      4  C   UNL     1       3.366   5.738  18.771  0.00  0.00    +0.000 A 
ATOM      5  C   UNL     1       3.850   4.429  18.873  0.00  0.00    +0.000 A 
ATOM      6  C   UNL     1       4.859   3.969  18.026  0.00  0.00    +0.000 A 
ATOM      7  O   UNL     1       3.395   3.545  19.815  0.00  0.00    +0.000 OA
ATOM      8  C   UNL     1       2.078   3.809  20.351  0.00  0.00    +0.000 C 
ATOM      9  C   UNL     1       1.051   3.134  19.433  0.00  0.00    +0.000 C 
ATOM     10  C   UNL     1       2.044   3.139  21.730  0.00  0.00    +0.000 C 
ATOM     11  C   UNL     1       1.766   5.284  20.483  0.00  0.00    +0.000 C 
ATOM     12  C   UNL     1       2.368   6.206  19.724  0.00  0.00    +0.000 C 
ENDROOT
BRANCH   1  13
ATOM     13  C   UNL     1       6.461   4.391  16.116  0.00  0.00    +0.000 C 
ATOM     14  O   UNL     1       7.620   4.753  16.235  0.00  0.00    +0.000 OA
BRANCH  13  16
ATOM     15  C   UNL     1       6.282   3.994  13.823  0.00  0.00    +0.000 C 
ATOM     16  O   UNL     1       5.981   3.566  15.152  0.00  0.00    +0.000 OA
ENDBRANCH  13  16
ENDBRANCH   1  13
TORSDOF 2
ENDMDL
MODEL 2
REMARK VINA RESULT:      -7.2      1.008      1.063
REMARK  Name = 
REMARK  5 active torsions:
REMARK  status: ('A' for Active; 'I' for Inactive)
REMARK    1  A    between atoms: C_1  and  O_2
REMARK    2  A    between atoms: O_2  and  C_3
REMARK    3  A    between atoms: C_3  and  C_5
REMARK    4  A    between atoms: C_12  and  C_13
REMARK    5  A    between atoms: C_12  and  C_14
REMARK                            x       y       z     vdW  Elec       q    Type
REMARK                         _______ _______ _______ _____ _____    ______ ____
ROOT
ATOM      1  C   UNL     1       5.598   5.117  16.026  0.00  0.00    +0.000 A 
ATOM      2  C   UNL     1       5.204   6.459  16.131  0.00  0.00    +0.000 A 
ATOM      3  C   UNL     1       4.301   6.857  17.122  0.00  0.00    +0.000 A 
ATOM      4  C   UNL     1       3.776   5.914  18.007  0.00  0.00    +0.000 A 
ATOM      5  C   UNL     1       4.148   4.571  17.879  0.00  0.00    +0.000 A 
ATOM      6  C   UNL     1       5.064   4.170  16.906  0.00  0.00    +0.000 A 
ATOM      7  O   UNL     1       3.670   3.590  18.707  0.00  0.00    +0.000 OA
ATOM      8  C   UNL     1       2.413   3.869  19.364  0.00  0.00    +0.000 C 
ATOM      9  C   UNL     1       1.281   3.428  18.427  0.00  0.00    +0.000 C 
ATOM     10  C   UNL     1       2.397   2.998  20.627  0.00  0.00    +0.000 C 
ATOM     11  C   UNL     1       2.238   5.326  19.737  0.00  0.00    +0.000 C 
ATOM     12  C   UNL     1       2.876   6.305  19.085  0.00  0.00    +0.000 C 
ENDROOT
BRANCH   1  13
ATOM     13  C   UNL     1       6.589   4.757  14.976  0.00  0.00    +0.000 C 
ATOM     14  O   UNL     1       7.559   5.447  14.709  0.00  0.00    +0.000 OA
BRANCH  13  16
ATOM     15  C   UNL     1       6.149   3.667  12.959  0.00  0.00    +0.000 C 
ATOM     16  O   UNL     1       6.261   3.583  14.381  0.00  0.00    +0.000 OA
ENDBRANCH  13  16
ENDBRANCH   1  13
TORSDOF 2
ENDMDL
MODEL 3
REMARK VINA RESULT:      -7.1      1.480      5.548
REMARK  Name = 
REMARK  5 active torsions:
REMARK  status: ('A' for Active; 'I' for Inactive)
REMARK    1  A    between atoms: C_1  and  O_2
REMARK    2  A    between atoms: O_2  and  C_3
REMARK    3  A    between atoms: C_3  and  C_5
REMARK    4  A    between atoms: C_12  and  C_13
REMARK    5  A    between atoms: C_12  and  C_14
REMARK                            x       y       z     vdW  Elec       q    Type
REMARK                         _______ _______ _______ _____ _____    ______ ____
ROOT
ATOM      1  C   UNL     1       2.126   4.027  18.641  0.00  0.00    +0.000 A 
ATOM      2  C   UNL     1       2.034   5.397  18.932  0.00  0.00    +0.000 A 
ATOM      3  C   UNL     1       2.900   6.311  18.323  0.00  0.00    +0.000 A 
ATOM      4  C   UNL     1       3.872   5.860  17.427  0.00  0.00    +0.000 A 
ATOM      5  C   UNL     1       3.980   4.490  17.163  0.00  0.00    +0.000 A 
ATOM      6  C   UNL     1       3.106   3.575  17.752  0.00  0.00    +0.000 A 
ATOM      7  O   UNL     1       4.910   3.974  16.301  0.00  0.00    +0.000 OA
ATOM      8  C   UNL     1       6.084   4.787  16.073  0.00  0.00    +0.000 C 
ATOM      9  C   UNL     1       7.113   4.446  17.158  0.00  0.00    +0.000 C 
ATOM     10  C   UNL     1       6.630   4.362  14.704  0.00  0.00    +0.000 C 
ATOM     11  C   UNL     1       5.798   6.274  16.078  0.00  0.00    +0.000 C 
ATOM     12  C   UNL     1       4.752   6.791  16.732  0.00  0.00    +0.000 C 
ENDROOT
BRANCH   1  13
ATOM     13  C   UNL     1       1.155   3.106  19.291  0.00  0.00    +0.000 C 
ATOM     14  O   UNL     1       0.661   2.146  18.723  0.00  0.00    +0.000 OA
BRANCH  13  16
ATOM     15  C   UNL     1       1.637   2.728  21.544  0.00  0.00    +0.000 C 
ATOM     16  O   UNL     1       0.912   3.483  20.571  0.00  0.00    +0.000 OA
ENDBRANCH  13  16
ENDBRANCH   1  13
TORSDOF 2
ENDMDL
MODEL 4
REMARK VINA RESULT:      -7.0      1.965      2.867
REMARK  Name = 
REMARK  5 active torsions:
REMARK  status: ('A' for Active; 'I' for Inactive)
REMARK    1  A    between atoms: C_1  and  O_2
REMARK    2  A    between atoms: O_2  and  C_3
REMARK    3  A    between atoms: C_3  and  C_5
REMARK    4  A    between atoms: C_12  and  C_13
REMARK    5  A    between atoms: C_12  and  C_14
REMARK                            x       y       z     vdW  Elec       q    Type
REMARK                         _______ _______ _______ _____ _____    ______ ____
ROOT
ATOM      1  C   UNL     1       6.167   5.538  17.918  0.00  0.00    +0.000 A 
ATOM      2  C   UNL     1       5.982   4.863  16.702  0.00  0.00    +0.000 A 
ATOM      3  C   UNL     1       4.804   4.149  16.459  0.00  0.00    +0.000 A 
ATOM      4  C   UNL     1       3.806   4.097  17.436  0.00  0.00    +0.000 A 
ATOM      5  C   UNL     1       4.008   4.747  18.659  0.00  0.00    +0.000 A 
ATOM      6  C   UNL     1       5.172   5.477  18.899  0.00  0.00    +0.000 A 
ATOM      7  O   UNL     1       3.078   4.735  19.664  0.00  0.00    +0.000 OA
ATOM      8  C   UNL     1       2.134   3.639  19.643  0.00  0.00    +0.000 C 
ATOM      9  C   UNL     1       2.759   2.463  20.404  0.00  0.00    +0.000 C 
ATOM     10  C   UNL     1       0.897   4.136  20.402  0.00  0.00    +0.000 C 
ATOM     11  C   UNL     1       1.745   3.205  18.246  0.00  0.00    +0.000 C 
ATOM     12  C   UNL     1       2.544   3.410  17.193  0.00  0.00    +0.000 C 
ENDROOT
BRANCH   1  13
ATOM     13  C   UNL     1       7.424   6.310  18.107  0.00  0.00    +0.000 C 
ATOM     14  O   UNL     1       8.201   6.107  19.025  0.00  0.00    +0.000 OA
BRANCH  13  16
ATOM     15  C   UNL     1       7.827   8.560  17.630  0.00  0.00    +0.000 C 
ATOM     16  O   UNL     1       7.571   7.245  17.134  0.00  0.00    +0.000 OA
ENDBRANCH  13  16
ENDBRANCH   1  13
TORSDOF 2
ENDMDL
MODEL 5
REMARK VINA RESULT:      -7.0      1.547      1.842
REMARK  Name = 
REMARK  5 active torsions:
REMARK  status: ('A' for Active; 'I' for Inactive)
REMARK    1  A    between atoms: C_1  and  O_2
REMARK    2  A    between atoms: O_2  and  C_3
REMARK    3  A    between atoms: C_3  and  C_5
REMARK    4  A    between atoms: C_12  and  C_13
REMARK    5  A    between atoms: C_12  and  C_14
REMARK                            x       y       z     vdW  Elec       q    Type
REMARK                         _______ _______ _______ _____ _____    ______ ____
ROOT
ATOM      1  C   UNL     1       6.049   4.910  15.656  0.00  0.00    +0.000 A 
ATOM      2  C   UNL     1       6.290   6.064  16.417  0.00  0.00    +0.000 A 
ATOM      3  C   UNL     1       5.651   6.249  17.647  0.00  0.00    +0.000 A 
ATOM      4  C   UNL     1       4.758   5.285  18.121  0.00  0.00    +0.000 A 
ATOM      5  C   UNL     1       4.498   4.150  17.345  0.00  0.00    +0.000 A 
ATOM      6  C   UNL     1       5.147   3.950  16.126  0.00  0.00    +0.000 A 
ATOM      7  O   UNL     1       3.632   3.166  17.742  0.00  0.00    +0.000 OA
ATOM      8  C   UNL     1       2.625   3.556  18.703  0.00  0.00    +0.000 C 
ATOM      9  C   UNL     1       1.419   4.104  17.929  0.00  0.00    +0.000 C 
ATOM     10  C   UNL     1       2.219   2.269  19.431  0.00  0.00    +0.000 C 
ATOM     11  C   UNL     1       3.111   4.585  19.702  0.00  0.00    +0.000 C 
ATOM     12  C   UNL     1       4.119   5.419  19.424  0.00  0.00    +0.000 C 
ENDROOT
BRANCH   1  13
ATOM     13  C   UNL     1       6.784   4.750  14.373  0.00  0.00    +0.000 C 
ATOM     14  O   UNL     1       7.739   5.441  14.059  0.00  0.00    +0.000 OA
BRANCH  13  16
ATOM     15  C   UNL     1       6.715   3.723  12.277  0.00  0.00    +0.000 C 
ATOM     16  O   UNL     1       6.247   3.752  13.627  0.00  0.00    +0.000 OA
ENDBRANCH  13  16
ENDBRANCH   1  13
TORSDOF 2
ENDMDL
MODEL 6
REMARK VINA RESULT:      -7.0      1.390      1.863
REMARK  Name = 
REMARK  5 active torsions:
REMARK  status: ('A' for Active; 'I' for Inactive)
REMARK    1  A    between atoms: C_1  and  O_2
REMARK    2  A    between atoms: O_2  and  C_3
REMARK    3  A    between atoms: C_3  and  C_5
REMARK    4  A    between atoms: C_12  and  C_13
REMARK    5  A    between atoms: C_12  and  C_14
REMARK                            x       y       z     vdW  Elec       q    Type
REMARK                         _______ _______ _______ _____ _____    ______ ____
ROOT
ATOM      1  C   UNL     1       5.811   5.409  17.603  0.00  0.00    +0.000 A 
ATOM      2  C   UNL     1       4.879   6.368  17.180  0.00  0.00    +0.000 A 
ATOM      3  C   UNL     1       3.590   6.392  17.724  0.00  0.00    +0.000 A 
ATOM      4  C   UNL     1       3.221   5.449  18.685  0.00  0.00    +0.000 A 
ATOM      5  C   UNL     1       4.145   4.474  19.081  0.00  0.00    +0.000 A 
ATOM      6  C   UNL     1       5.438   4.458  18.558  0.00  0.00    +0.000 A 
ATOM      7  O   UNL     1       3.853   3.515  20.014  0.00  0.00    +0.000 OA
ATOM      8  C   UNL     1       2.451   3.212  20.196  0.00  0.00    +0.000 C 
ATOM      9  C   UNL     1       2.064   2.132  19.177  0.00  0.00    +0.000 C 
ATOM     10  C   UNL     1       2.326   2.640  21.614  0.00  0.00    +0.000 C 
ATOM     11  C   UNL     1       1.548   4.417  20.041  0.00  0.00    +0.000 C 
ATOM     12  C   UNL     1       1.906   5.480  19.312  0.00  0.00    +0.000 C 
ENDROOT
BRANCH   1  13
ATOM     13  C   UNL     1       7.177   5.454  17.016  0.00  0.00    +0.000 C 
ATOM     14  O   UNL     1       7.883   4.467  16.890  0.00  0.00    +0.000 OA
BRANCH  13  16
ATOM     15  C   UNL     1       7.864   7.559  17.754  0.00  0.00    +0.000 C 
ATOM     16  O   UNL     1       7.509   6.718  16.655  0.00  0.00    +0.000 OA
ENDBRANCH  13  16
ENDBRANCH   1  13
TORSDOF 2
ENDMDL
MODEL 7
REMARK VINA RESULT:      -6.9      1.044      1.150
REMARK  Name = 
REMARK  5 active torsions:
REMARK  status: ('A' for Active; 'I' for Inactive)
REMARK    1  A    between atoms: C_1  and  O_2
REMARK    2  A    between atoms: O_2  and  C_3
REMARK    3  A    between atoms: C_3  and  C_5
REMARK    4  A    between atoms: C_12  and  C_13
REMARK    5  A    between atoms: C_12  and  C_14
REMARK                            x       y       z     vdW  Elec       q    Type
REMARK                         _______ _______ _______ _____ _____    ______ ____
ROOT
ATOM      1  C   UNL     1       4.502   5.703  16.987  0.00  0.00    +0.000 A 
ATOM      2  C   UNL     1       3.865   6.922  17.265  0.00  0.00    +0.000 A 
ATOM      3  C   UNL     1       3.004   7.038  18.361  0.00  0.00    +0.000 A 
ATOM      4  C   UNL     1       2.765   5.933  19.180  0.00  0.00    +0.000 A 
ATOM      5  C   UNL     1       3.379   4.711  18.882  0.00  0.00    +0.000 A 
ATOM      6  C   UNL     1       4.255   4.594  17.802  0.00  0.00    +0.000 A 
ATOM      7  O   UNL     1       3.188   3.584  19.636  0.00  0.00    +0.000 OA
ATOM      8  C   UNL     1       1.972   3.541  20.417  0.00  0.00    +0.000 C 
ATOM      9  C   UNL     1       0.861   2.961  19.532  0.00  0.00    +0.000 C 
ATOM     10  C   UNL     1       2.252   2.578  21.578  0.00  0.00    +0.000 C 
ATOM     11  C   UNL     1       1.553   4.893  20.955  0.00  0.00    +0.000 C 
ATOM     12  C   UNL     1       1.918   6.035  20.362  0.00  0.00    +0.000 C 
ENDROOT
BRANCH   1  13
ATOM     13  C   UNL     1       5.435   5.648  15.830  0.00  0.00    +0.000 C 
ATOM     14  O   UNL     1       5.583   6.571  15.046  0.00  0.00    +0.000 OA
BRANCH  13  16
ATOM     15  C   UNL     1       6.305   3.975  14.453  0.00  0.00    +0.000 C 
ATOM     16  O   UNL     1       6.076   4.453  15.780  0.00  0.00    +0.000 OA
ENDBRANCH  13  16
ENDBRANCH   1  13
TORSDOF 2
ENDMDL
MODEL 8
REMARK VINA RESULT:      -6.9      1.315      1.737
REMARK  Name = 
REMARK  5 active torsions:
REMARK  status: ('A' for Active; 'I' for Inactive)
REMARK    1  A    between atoms: C_1  and  O_2
REMARK    2  A    between atoms: O_2  and  C_3
REMARK    3  A    between atoms: C_3  and  C_5
REMARK    4  A    between atoms: C_12  and  C_13
REMARK    5  A    between atoms: C_12  and  C_14
REMARK                            x       y       z     vdW  Elec       q    Type
REMARK                         _______ _______ _______ _____ _____    ______ ____
ROOT
ATOM      1  C   UNL     1       5.582   4.931  15.542  0.00  0.00    +0.000 A 
ATOM      2  C   UNL     1       5.325   6.294  15.750  0.00  0.00    +0.000 A 
ATOM      3  C   UNL     1       4.554   6.712  16.839  0.00  0.00    +0.000 A 
ATOM      4  C   UNL     1       4.025   5.768  17.722  0.00  0.00    +0.000 A 
ATOM      5  C   UNL     1       4.259   4.407  17.494  0.00  0.00    +0.000 A 
ATOM      6  C   UNL     1       5.044   3.985  16.420  0.00  0.00    +0.000 A 
ATOM      7  O   UNL     1       3.769   3.425  18.313  0.00  0.00    +0.000 OA
ATOM      8  C   UNL     1       2.606   3.775  19.099  0.00  0.00    +0.000 C 
ATOM      9  C   UNL     1       1.360   3.489  18.252  0.00  0.00    +0.000 C 
ATOM     10  C   UNL     1       2.622   2.838  20.312  0.00  0.00    +0.000 C 
ATOM     11  C   UNL     1       2.601   5.218  19.558  0.00  0.00    +0.000 C 
ATOM     12  C   UNL     1       3.266   6.173  18.898  0.00  0.00    +0.000 C 
ENDROOT
BRANCH   1  13
ATOM     13  C   UNL     1       6.438   4.547  14.387  0.00  0.00    +0.000 C 
ATOM     14  O   UNL     1       6.170   3.626  13.634  0.00  0.00    +0.000 OA
BRANCH  13  16
ATOM     15  C   UNL     1       8.085   5.430  12.988  0.00  0.00    +0.000 C 
ATOM     16  O   UNL     1       7.527   5.352  14.301  0.00  0.00    +0.000 OA
ENDBRANCH  13  16
ENDBRANCH   1  13
TORSDOF 2
ENDMDL
MODEL 9
REMARK VINA RESULT:      -6.9      1.873      2.538
REMARK  Name = 
REMARK  5 active torsions:
REMARK  status: ('A' for Active; 'I' for Inactive)
REMARK    1  A    between atoms: C_1  and  O_2
REMARK    2  A    between atoms: O_2  and  C_3
REMARK    3  A    between atoms: C_3  and  C_5
REMARK    4  A    between atoms: C_12  and  C_13
REMARK    5  A    between atoms: C_12  and  C_14
REMARK                            x       y       z     vdW  Elec       q    Type
REMARK                         _______ _______ _______ _____ _____    ______ ____
ROOT
ATOM      1  C   UNL     1       6.362   4.541  15.513  0.00  0.00    +0.000 A 
ATOM      2  C   UNL     1       7.145   4.843  16.637  0.00  0.00    +0.000 A 
ATOM      3  C   UNL     1       6.634   4.662  17.926  0.00  0.00    +0.000 A 
ATOM      4  C   UNL     1       5.332   4.187  18.100  0.00  0.00    +0.000 A 
ATOM      5  C   UNL     1       4.544   3.916  16.976  0.00  0.00    +0.000 A 
ATOM      6  C   UNL     1       5.055   4.075  15.687  0.00  0.00    +0.000 A 
ATOM      7  O   UNL     1       3.258   3.453  17.069  0.00  0.00    +0.000 OA
ATOM      8  C   UNL     1       2.569   3.736  18.308  0.00  0.00    +0.000 C 
ATOM      9  C   UNL     1       1.910   5.115  18.178  0.00  0.00    +0.000 C 
ATOM     10  C   UNL     1       1.482   2.663  18.438  0.00  0.00    +0.000 C 
ATOM     11  C   UNL     1       3.474   3.707  19.521  0.00  0.00    +0.000 C 
ATOM     12  C   UNL     1       4.790   3.934  19.429  0.00  0.00    +0.000 C 
ENDROOT
BRANCH   1  13
ATOM     13  C   UNL     1       6.969   4.720  14.167  0.00  0.00    +0.000 C 
ATOM     14  O   UNL     1       7.876   5.504  13.942  0.00  0.00    +0.000 OA
BRANCH  13  16
ATOM     15  C   UNL     1       7.054   3.864  11.996  0.00  0.00    +0.000 C 
ATOM     16  O   UNL     1       6.381   3.904  13.256  0.00  0.00    +0.000 OA
ENDBRANCH  13  16
ENDBRANCH   1  13
TORSDOF 2
ENDMDL
