MODEL 1
REMARK VINA RESULT:      -6.7      0.000      0.000
REMARK  Name = 
REMARK  6 active torsions:
REMARK  status: ('A' for Active; 'I' for Inactive)
REMARK    1  A    between atoms: C_1  and  C_2
REMARK    2  A    between atoms: C_2  and  C_3
REMARK    3  A    between atoms: C_3  and  N_4
REMARK    4  A    between atoms: C_9  and  C_10
REMARK    5  A    between atoms: C_9  and  C_12
REMARK    6  A    between atoms: C_10  and  C_11
REMARK                            x       y       z     vdW  Elec       q    Type
REMARK                         _______ _______ _______ _____ _____    ______ ____
ROOT
ATOM      1  N   UNL     1       5.714   4.179  16.805  0.00  0.00    +0.000 N 
ATOM      2  C   UNL     1       6.865   4.655  17.423  0.00  0.00    +0.000 C 
ATOM      3  O   UNL     1       8.004   4.475  16.992  0.00  0.00    +0.000 OA
ATOM      4  C   UNL     1       6.656   5.438  18.687  0.00  0.00    +0.000 C 
ATOM      5  C   UNL     1       5.611   4.772  19.552  0.00  0.00    +0.000 C 
ATOM      6  C   UNL     1       4.247   4.676  18.834  0.00  0.00    +0.000 C 
ATOM      7  C   UNL     1       4.477   4.032  17.430  0.00  0.00    +0.000 C 
ATOM      8  O   UNL     1       3.555   3.418  16.870  0.00  0.00    +0.000 OA
ENDROOT
BRANCH   6   9
ATOM      9  C   UNL     1       3.515   6.035  18.712  0.00  0.00    +0.000 A 
ATOM     10  C   UNL     1       2.644   6.498  19.714  0.00  0.00    +0.000 A 
ATOM     11  C   UNL     1       1.977   7.707  19.550  0.00  0.00    +0.000 A 
ATOM     12  N   UNL     1       2.127   8.508  18.478  0.00  0.00    +0.000 NA
ATOM     13  C   UNL     1       2.998   8.090  17.540  0.00  0.00    +0.000 A 
ATOM     14  C   UNL     1       3.703   6.893  17.615  0.00  0.00    +0.000 A 
ENDBRANCH   6   9
BRANCH   6  15
ATOM     15  C   UNL     1       3.358   3.646  19.612  0.00  0.00    +0.000 C 
ATOM     16  C   UNL     1       4.059   2.424  20.189  0.00  0.00    +0.000 C 
ENDBRANCH   6  15
BRANCH   1  17
ATOM     17  C   UNL     1       5.876   3.528  15.496  0.00  0.00    +0.000 C 
BRANCH  17  19
ATOM     18  C   UNL     1       5.914   3.802  12.962  0.00  0.00    +0.000 C 
ATOM     19  C   UNL     1       5.743   4.486  14.308  0.00  0.00    +0.000 C 
ENDBRANCH  17  19
ENDBRANCH   1  17
TORSDOF 4
ENDMDL
MODEL 2
REMARK VINA RESULT:      -6.7      0.118      1.078
REMARK  Name = 
REMARK  6 active torsions:
REMARK  status: ('A' for Active; 'I' for Inactive)
REMARK    1  A    between atoms: C_1  and  C_2
REMARK    2  A    between atoms: C_2  and  C_3
REMARK    3  A    between atoms: C_3  and  N_4
REMARK    4  A    between atoms: C_9  and  C_10
REMARK    5  A    between atoms: C_9  and  C_12
REMARK    6  A    between atoms: C_10  and  C_11
REMARK                            x       y       z     vdW  Elec       q    Type
REMARK                         _______ _______ _______ _____ _____    ______ ____
ROOT
ATOM      1  N   UNL     1       5.704   4.183  16.756  0.00  0.00    +0.000 N 
ATOM      2  C   UNL     1       6.869   4.688  17.325  0.00  0.00    +0.000 C 
ATOM      3  O   UNL     1       7.994   4.520  16.855  0.00  0.00    +0.000 OA
ATOM      4  C   UNL     1       6.692   5.485  18.584  0.00  0.00    +0.000 C 
ATOM      5  C   UNL     1       5.691   4.814  19.496  0.00  0.00    +0.000 C 
ATOM      6  C   UNL     1       4.303   4.684  18.830  0.00  0.00    +0.000 C 
ATOM      7  C   UNL     1       4.494   4.023  17.427  0.00  0.00    +0.000 C 
ATOM      8  O   UNL     1       3.563   3.386  16.910  0.00  0.00    +0.000 OA
ENDROOT
BRANCH   6   9
ATOM      9  C   UNL     1       3.543   6.028  18.715  0.00  0.00    +0.000 A 
ATOM     10  C   UNL     1       3.702   6.875  17.605  0.00  0.00    +0.000 A 
ATOM     11  C   UNL     1       3.029   8.092  17.556  0.00  0.00    +0.000 A 
ATOM     12  N   UNL     1       2.187   8.522  18.515  0.00  0.00    +0.000 NA
ATOM     13  C   UNL     1       1.995   7.691  19.556  0.00  0.00    +0.000 A 
ATOM     14  C   UNL     1       2.631   6.460  19.693  0.00  0.00    +0.000 A 
ENDBRANCH   6   9
BRANCH   6  15
ATOM     15  C   UNL     1       3.461   3.651  19.654  0.00  0.00    +0.000 C 
ATOM     16  C   UNL     1       4.189   2.415  20.165  0.00  0.00    +0.000 C 
ENDBRANCH   6  15
BRANCH   1  17
ATOM     17  C   UNL     1       5.831   3.515  15.452  0.00  0.00    +0.000 C 
BRANCH  17  19
ATOM     18  C   UNL     1       6.230   3.784  12.949  0.00  0.00    +0.000 C 
ATOM     19  C   UNL     1       5.976   4.483  14.273  0.00  0.00    +0.000 C 
ENDBRANCH  17  19
ENDBRANCH   1  17
TORSDOF 4
ENDMDL
MODEL 3
REMARK VINA RESULT:      -6.5      2.285      4.998
REMARK  Name = 
REMARK  6 active torsions:
REMARK  status: ('A' for Active; 'I' for Inactive)
REMARK    1  A    between atoms: C_1  and  C_2
REMARK    2  A    between atoms: C_2  and  C_3
REMARK    3  A    between atoms: C_3  and  N_4
REMARK    4  A    between atoms: C_9  and  C_10
REMARK    5  A    between atoms: C_9  and  C_12
REMARK    6  A    between atoms: C_10  and  C_11
REMARK                            x       y       z     vdW  Elec       q    Type
REMARK                         _______ _______ _______ _____ _____    ______ ____
ROOT
ATOM      1  N   UNL     1       3.029   4.548  19.966  0.00  0.00    +0.000 N 
ATOM      2  C   UNL     1       2.316   5.742  19.994  0.00  0.00    +0.000 C 
ATOM      3  O   UNL     1       1.351   5.952  20.729  0.00  0.00    +0.000 OA
ATOM      4  C   UNL     1       2.793   6.813  19.057  0.00  0.00    +0.000 C 
ATOM      5  C   UNL     1       3.131   6.221  17.708  0.00  0.00    +0.000 C 
ATOM      6  C   UNL     1       4.251   5.161  17.811  0.00  0.00    +0.000 C 
ATOM      7  C   UNL     1       3.855   4.137  18.922  0.00  0.00    +0.000 C 
ATOM      8  O   UNL     1       4.296   2.978  18.884  0.00  0.00    +0.000 OA
ENDROOT
BRANCH   6   9
ATOM      9  C   UNL     1       5.651   5.763  18.080  0.00  0.00    +0.000 A 
ATOM     10  C   UNL     1       6.479   5.280  19.108  0.00  0.00    +0.000 A 
ATOM     11  C   UNL     1       7.716   5.872  19.341  0.00  0.00    +0.000 A 
ATOM     12  N   UNL     1       8.208   6.893  18.613  0.00  0.00    +0.000 NA
ATOM     13  C   UNL     1       7.439   7.324  17.596  0.00  0.00    +0.000 A 
ATOM     14  C   UNL     1       6.187   6.799  17.294  0.00  0.00    +0.000 A 
ENDBRANCH   6   9
BRANCH   6  15
ATOM     15  C   UNL     1       4.261   4.332  16.481  0.00  0.00    +0.000 C 
ATOM     16  C   UNL     1       5.619   3.919  15.932  0.00  0.00    +0.000 C 
ENDBRANCH   6  15
BRANCH   1  17
ATOM     17  C   UNL     1       2.671   3.531  20.967  0.00  0.00    +0.000 C 
BRANCH  17  19
ATOM     18  C   UNL     1       0.915   2.545  19.404  0.00  0.00    +0.000 C 
ATOM     19  C   UNL     1       1.245   2.992  20.818  0.00  0.00    +0.000 C 
ENDBRANCH  17  19
ENDBRANCH   1  17
TORSDOF 4
ENDMDL
MODEL 4
REMARK VINA RESULT:      -6.5      2.274      5.073
REMARK  Name = 
REMARK  6 active torsions:
REMARK  status: ('A' for Active; 'I' for Inactive)
REMARK    1  A    between atoms: C_1  and  C_2
REMARK    2  A    between atoms: C_2  and  C_3
REMARK    3  A    between atoms: C_3  and  N_4
REMARK    4  A    between atoms: C_9  and  C_10
REMARK    5  A    between atoms: C_9  and  C_12
REMARK    6  A    between atoms: C_10  and  C_11
REMARK                            x       y       z     vdW  Elec       q    Type
REMARK                         _______ _______ _______ _____ _____    ______ ____
ROOT
ATOM      1  N   UNL     1       3.037   4.467  19.929  0.00  0.00    +0.000 N 
ATOM      2  C   UNL     1       2.310   5.652  19.980  0.00  0.00    +0.000 C 
ATOM      3  O   UNL     1       1.336   5.832  20.709  0.00  0.00    +0.000 OA
ATOM      4  C   UNL     1       2.786   6.752  19.076  0.00  0.00    +0.000 C 
ATOM      5  C   UNL     1       3.145   6.199  17.716  0.00  0.00    +0.000 C 
ATOM      6  C   UNL     1       4.275   5.149  17.803  0.00  0.00    +0.000 C 
ATOM      7  C   UNL     1       3.878   4.092  18.883  0.00  0.00    +0.000 C 
ATOM      8  O   UNL     1       4.333   2.939  18.820  0.00  0.00    +0.000 OA
ENDROOT
BRANCH   6   9
ATOM      9  C   UNL     1       5.666   5.759  18.103  0.00  0.00    +0.000 A 
ATOM     10  C   UNL     1       6.188   6.819  17.342  0.00  0.00    +0.000 A 
ATOM     11  C   UNL     1       7.457   7.316  17.620  0.00  0.00    +0.000 A 
ATOM     12  N   UNL     1       8.241   6.858  18.615  0.00  0.00    +0.000 NA
ATOM     13  C   UNL     1       7.723   5.876  19.377  0.00  0.00    +0.000 A 
ATOM     14  C   UNL     1       6.467   5.313  19.168  0.00  0.00    +0.000 A 
ENDBRANCH   6   9
BRANCH   6  15
ATOM     15  C   UNL     1       4.308   4.355  16.452  0.00  0.00    +0.000 C 
ATOM     16  C   UNL     1       5.676   3.944  15.924  0.00  0.00    +0.000 C 
ENDBRANCH   6  15
BRANCH   1  17
ATOM     17  C   UNL     1       2.680   3.420  20.898  0.00  0.00    +0.000 C 
BRANCH  17  19
ATOM     18  C   UNL     1       0.906   2.419  19.366  0.00  0.00    +0.000 C 
ATOM     19  C   UNL     1       1.239   2.916  20.762  0.00  0.00    +0.000 C 
ENDBRANCH  17  19
ENDBRANCH   1  17
TORSDOF 4
ENDMDL
MODEL 5
REMARK VINA RESULT:      -6.4      2.137      4.234
REMARK  Name = 
REMARK  6 active torsions:
REMARK  status: ('A' for Active; 'I' for Inactive)
REMARK    1  A    between atoms: C_1  and  C_2
REMARK    2  A    between atoms: C_2  and  C_3
REMARK    3  A    between atoms: C_3  and  N_4
REMARK    4  A    between atoms: C_9  and  C_10
REMARK    5  A    between atoms: C_9  and  C_12
REMARK    6  A    between atoms: C_10  and  C_11
REMARK                            x       y       z     vdW  Elec       q    Type
REMARK                         _______ _______ _______ _____ _____    ______ ____
ROOT
ATOM      1  N   UNL     1       6.489   5.001  17.807  0.00  0.00    +0.000 N 
ATOM      2  C   UNL     1       6.504   4.860  16.424  0.00  0.00    +0.000 C 
ATOM      3  O   UNL     1       7.526   4.886  15.739  0.00  0.00    +0.000 OA
ATOM      4  C   UNL     1       5.167   4.661  15.770  0.00  0.00    +0.000 C 
ATOM      5  C   UNL     1       4.140   5.589  16.377  0.00  0.00    +0.000 C 
ATOM      6  C   UNL     1       3.960   5.335  17.890  0.00  0.00    +0.000 C 
ATOM      7  C   UNL     1       5.371   5.351  18.561  0.00  0.00    +0.000 C 
ATOM      8  O   UNL     1       5.484   5.649  19.760  0.00  0.00    +0.000 OA
ENDROOT
BRANCH   6   9
ATOM      9  C   UNL     1       3.204   4.023  18.212  0.00  0.00    +0.000 A 
ATOM     10  C   UNL     1       3.886   2.826  18.493  0.00  0.00    +0.000 A 
ATOM     11  C   UNL     1       3.170   1.660  18.742  0.00  0.00    +0.000 A 
ATOM     12  N   UNL     1       1.825   1.594  18.760  0.00  0.00    +0.000 NA
ATOM     13  C   UNL     1       1.170   2.749  18.540  0.00  0.00    +0.000 A 
ATOM     14  C   UNL     1       1.801   3.961  18.275  0.00  0.00    +0.000 A 
ENDBRANCH   6   9
BRANCH   6  15
ATOM     15  C   UNL     1       3.204   6.563  18.504  0.00  0.00    +0.000 C 
ATOM     16  C   UNL     1       3.114   7.819  17.648  0.00  0.00    +0.000 C 
ENDBRANCH   6  15
BRANCH   1  17
ATOM     17  C   UNL     1       7.791   5.061  18.488  0.00  0.00    +0.000 C 
BRANCH  17  19
ATOM     18  C   UNL     1       7.913   7.549  17.945  0.00  0.00    +0.000 C 
ATOM     19  C   UNL     1       8.170   6.463  18.977  0.00  0.00    +0.000 C 
ENDBRANCH  17  19
ENDBRANCH   1  17
TORSDOF 4
ENDMDL
MODEL 6
REMARK VINA RESULT:      -6.3      2.317      4.217
REMARK  Name = 
REMARK  6 active torsions:
REMARK  status: ('A' for Active; 'I' for Inactive)
REMARK    1  A    between atoms: C_1  and  C_2
REMARK    2  A    between atoms: C_2  and  C_3
REMARK    3  A    between atoms: C_3  and  N_4
REMARK    4  A    between atoms: C_9  and  C_10
REMARK    5  A    between atoms: C_9  and  C_12
REMARK    6  A    between atoms: C_10  and  C_11
REMARK                            x       y       z     vdW  Elec       q    Type
REMARK                         _______ _______ _______ _____ _____    ______ ____
ROOT
ATOM      1  N   UNL     1       5.400   4.537  17.880  0.00  0.00    +0.000 N 
ATOM      2  C   UNL     1       4.853   3.881  16.782  0.00  0.00    +0.000 C 
ATOM      3  O   UNL     1       5.488   3.584  15.771  0.00  0.00    +0.000 OA
ATOM      4  C   UNL     1       3.398   3.529  16.885  0.00  0.00    +0.000 C 
ATOM      5  C   UNL     1       2.619   4.678  17.485  0.00  0.00    +0.000 C 
ATOM      6  C   UNL     1       3.114   5.027  18.906  0.00  0.00    +0.000 C 
ATOM      7  C   UNL     1       4.665   5.213  18.852  0.00  0.00    +0.000 C 
ATOM      8  O   UNL     1       5.232   5.935  19.685  0.00  0.00    +0.000 OA
ENDROOT
BRANCH   6   9
ATOM      9  C   UNL     1       2.713   3.983  19.976  0.00  0.00    +0.000 A 
ATOM     10  C   UNL     1       1.415   3.936  20.513  0.00  0.00    +0.000 A 
ATOM     11  C   UNL     1       1.104   3.005  21.499  0.00  0.00    +0.000 A 
ATOM     12  N   UNL     1       1.978   2.099  21.978  0.00  0.00    +0.000 NA
ATOM     13  C   UNL     1       3.207   2.110  21.430  0.00  0.00    +0.000 A 
ATOM     14  C   UNL     1       3.609   3.008  20.445  0.00  0.00    +0.000 A 
ENDBRANCH   6   9
BRANCH   6  15
ATOM     15  C   UNL     1       2.550   6.440  19.284  0.00  0.00    +0.000 C 
ATOM     16  C   UNL     1       2.490   7.481  18.175  0.00  0.00    +0.000 C 
ENDBRANCH   6  15
BRANCH   1  17
ATOM     17  C   UNL     1       6.851   4.773  17.865  0.00  0.00    +0.000 C 
BRANCH  17  19
ATOM     18  C   UNL     1       7.809   7.133  17.972  0.00  0.00    +0.000 C 
ATOM     19  C   UNL     1       7.266   6.025  17.086  0.00  0.00    +0.000 C 
ENDBRANCH  17  19
ENDBRANCH   1  17
TORSDOF 4
ENDMDL
MODEL 7
REMARK VINA RESULT:      -6.3      1.886      4.195
REMARK  Name = 
REMARK  6 active torsions:
REMARK  status: ('A' for Active; 'I' for Inactive)
REMARK    1  A    between atoms: C_1  and  C_2
REMARK    2  A    between atoms: C_2  and  C_3
REMARK    3  A    between atoms: C_3  and  N_4
REMARK    4  A    between atoms: C_9  and  C_10
REMARK    5  A    between atoms: C_9  and  C_12
REMARK    6  A    between atoms: C_10  and  C_11
REMARK                            x       y       z     vdW  Elec       q    Type
REMARK                         _______ _______ _______ _____ _____    ______ ____
ROOT
ATOM      1  N   UNL     1       4.050   3.201  19.218  0.00  0.00    +0.000 N 
ATOM      2  C   UNL     1       3.274   2.655  18.201  0.00  0.00    +0.000 C 
ATOM      3  O   UNL     1       2.908   1.481  18.169  0.00  0.00    +0.000 OA
ATOM      4  C   UNL     1       2.878   3.595  17.100  0.00  0.00    +0.000 C 
ATOM      5  C   UNL     1       4.047   4.470  16.708  0.00  0.00    +0.000 C 
ATOM      6  C   UNL     1       4.547   5.326  17.893  0.00  0.00    +0.000 C 
ATOM      7  C   UNL     1       4.786   4.380  19.113  0.00  0.00    +0.000 C 
ATOM      8  O   UNL     1       5.604   4.695  19.991  0.00  0.00    +0.000 OA
ENDROOT
BRANCH   6   9
ATOM      9  C   UNL     1       3.593   6.487  18.264  0.00  0.00    +0.000 A 
ATOM     10  C   UNL     1       2.877   6.498  19.473  0.00  0.00    +0.000 A 
ATOM     11  C   UNL     1       2.002   7.542  19.754  0.00  0.00    +0.000 A 
ATOM     12  N   UNL     1       1.801   8.594  18.936  0.00  0.00    +0.000 NA
ATOM     13  C   UNL     1       2.523   8.610  17.801  0.00  0.00    +0.000 A 
ATOM     14  C   UNL     1       3.415   7.607  17.434  0.00  0.00    +0.000 A 
ENDBRANCH   6   9
BRANCH   6  15
ATOM     15  C   UNL     1       5.966   5.882  17.527  0.00  0.00    +0.000 C 
ATOM     16  C   UNL     1       6.849   5.004  16.652  0.00  0.00    +0.000 C 
ENDBRANCH   6  15
BRANCH   1  17
ATOM     17  C   UNL     1       4.339   2.342  20.375  0.00  0.00    +0.000 C 
BRANCH  17  19
ATOM     18  C   UNL     1       2.359   3.468  21.519  0.00  0.00    +0.000 C 
ATOM     19  C   UNL     1       3.160   2.190  21.342  0.00  0.00    +0.000 C 
ENDBRANCH  17  19
ENDBRANCH   1  17
TORSDOF 4
ENDMDL
MODEL 8
REMARK VINA RESULT:      -6.3      2.332      3.937
REMARK  Name = 
REMARK  6 active torsions:
REMARK  status: ('A' for Active; 'I' for Inactive)
REMARK    1  A    between atoms: C_1  and  C_2
REMARK    2  A    between atoms: C_2  and  C_3
REMARK    3  A    between atoms: C_3  and  N_4
REMARK    4  A    between atoms: C_9  and  C_10
REMARK    5  A    between atoms: C_9  and  C_12
REMARK    6  A    between atoms: C_10  and  C_11
REMARK                            x       y       z     vdW  Elec       q    Type
REMARK                         _______ _______ _______ _____ _____    ______ ____
ROOT
ATOM      1  N   UNL     1       6.195   5.346  15.541  0.00  0.00    +0.000 N 
ATOM      2  C   UNL     1       5.247   6.361  15.464  0.00  0.00    +0.000 C 
ATOM      3  O   UNL     1       5.075   7.071  14.473  0.00  0.00    +0.000 OA
ATOM      4  C   UNL     1       4.399   6.562  16.686  0.00  0.00    +0.000 C 
ATOM      5  C   UNL     1       5.246   6.477  17.935  0.00  0.00    +0.000 C 
ATOM      6  C   UNL     1       5.936   5.101  18.069  0.00  0.00    +0.000 C 
ATOM      7  C   UNL     1       6.672   4.790  16.726  0.00  0.00    +0.000 C 
ATOM      8  O   UNL     1       7.655   4.033  16.718  0.00  0.00    +0.000 OA
ENDROOT
BRANCH   6   9
ATOM      9  C   UNL     1       4.967   3.956  18.452  0.00  0.00    +0.000 A 
ATOM     10  C   UNL     1       4.291   3.201  17.478  0.00  0.00    +0.000 A 
ATOM     11  C   UNL     1       3.401   2.205  17.864  0.00  0.00    +0.000 A 
ATOM     12  N   UNL     1       3.147   1.881  19.146  0.00  0.00    +0.000 NA
ATOM     13  C   UNL     1       3.830   2.569  20.080  0.00  0.00    +0.000 A 
ATOM     14  C   UNL     1       4.733   3.586  19.788  0.00  0.00    +0.000 A 
ENDBRANCH   6   9
BRANCH   6  15
ATOM     15  C   UNL     1       7.077   5.229  19.136  0.00  0.00    +0.000 C 
ATOM     16  C   UNL     1       8.042   6.396  18.980  0.00  0.00    +0.000 C 
ENDBRANCH   6  15
BRANCH   1  17
ATOM     17  C   UNL     1       6.946   5.037  14.315  0.00  0.00    +0.000 C 
BRANCH  17  19
ATOM     18  C   UNL     1       6.911   3.822  12.074  0.00  0.00    +0.000 C 
ATOM     19  C   UNL     1       6.316   3.926  13.468  0.00  0.00    +0.000 C 
ENDBRANCH  17  19
ENDBRANCH   1  17
TORSDOF 4
ENDMDL
MODEL 9
REMARK VINA RESULT:      -6.2      2.312      4.261
REMARK  Name = 
REMARK  6 active torsions:
REMARK  status: ('A' for Active; 'I' for Inactive)
REMARK    1  A    between atoms: C_1  and  C_2
REMARK    2  A    between atoms: C_2  and  C_3
REMARK    3  A    between atoms: C_3  and  N_4
REMARK    4  A    between atoms: C_9  and  C_10
REMARK    5  A    between atoms: C_9  and  C_12
REMARK    6  A    between atoms: C_10  and  C_11
REMARK                            x       y       z     vdW  Elec       q    Type
REMARK                         _______ _______ _______ _____ _____    ______ ____
ROOT
ATOM      1  N   UNL     1       5.384   4.547  17.875  0.00  0.00    +0.000 N 
ATOM      2  C   UNL     1       4.813   3.897  16.785  0.00  0.00    +0.000 C 
ATOM      3  O   UNL     1       5.429   3.594  15.764  0.00  0.00    +0.000 OA
ATOM      4  C   UNL     1       3.356   3.560  16.912  0.00  0.00    +0.000 C 
ATOM      5  C   UNL     1       2.599   4.715  17.524  0.00  0.00    +0.000 C 
ATOM      6  C   UNL     1       3.120   5.059  18.937  0.00  0.00    +0.000 C 
ATOM      7  C   UNL     1       4.671   5.229  18.859  0.00  0.00    +0.000 C 
ATOM      8  O   UNL     1       5.259   5.946  19.683  0.00  0.00    +0.000 OA
ENDROOT
BRANCH   6   9
ATOM      9  C   UNL     1       2.726   4.019  20.013  0.00  0.00    +0.000 A 
ATOM     10  C   UNL     1       3.629   3.038  20.459  0.00  0.00    +0.000 A 
ATOM     11  C   UNL     1       3.225   2.098  21.402  0.00  0.00    +0.000 A 
ATOM     12  N   UNL     1       1.999   2.072  21.957  0.00  0.00    +0.000 NA
ATOM     13  C   UNL     1       1.148   3.040  21.569  0.00  0.00    +0.000 A 
ATOM     14  C   UNL     1       1.462   4.016  20.628  0.00  0.00    +0.000 A 
ENDBRANCH   6   9
BRANCH   6  15
ATOM     15  C   UNL     1       2.576   6.477  19.325  0.00  0.00    +0.000 C 
ATOM     16  C   UNL     1       2.455   7.502  18.206  0.00  0.00    +0.000 C 
ENDBRANCH   6  15
BRANCH   1  17
ATOM     17  C   UNL     1       6.837   4.768  17.837  0.00  0.00    +0.000 C 
BRANCH  17  19
ATOM     18  C   UNL     1       7.746   7.150  17.849  0.00  0.00    +0.000 C 
ATOM     19  C   UNL     1       7.256   5.985  17.006  0.00  0.00    +0.000 C 
ENDBRANCH  17  19
ENDBRANCH   1  17
TORSDOF 4
ENDMDL
