MODEL 1
REMARK VINA RESULT:      -7.2      0.000      0.000
REMARK  Name = 
REMARK  8 active torsions:
REMARK  status: ('A' for Active; 'I' for Inactive)
REMARK    1  A    between atoms: C_1  and  C_2
REMARK    2  A    between atoms: C_5  and  C_6
REMARK    3  A    between atoms: C_6  and  N_7
REMARK    4  A    between atoms: C_10  and  N_11
REMARK    5  A    between atoms: N_11  and  S_12
REMARK    6  A    between atoms: S_12  and  C_13
REMARK    7  A    between atoms: C_16  and  C_17
REMARK    8  A    between atoms: C_17  and  C_18
REMARK                            x       y       z     vdW  Elec       q    Type
REMARK                         _______ _______ _______ _____ _____    ______ ____
ROOT
ATOM      1  N   UNL     1       4.691   6.075  17.915  0.00  0.00    +0.000 NA
ATOM      2  C   UNL     1       4.981   4.643  18.066  0.00  0.00    +0.000 C 
ATOM      3  C   UNL     1       3.659   3.940  17.841  0.00  0.00    +0.000 C 
ATOM      4  C   UNL     1       2.603   4.871  18.430  0.00  0.00    +0.000 C 
ATOM      5  C   UNL     1       3.357   6.240  18.595  0.00  0.00    +0.000 C 
ENDROOT
BRANCH   4   6
ATOM      6  N   UNL     1       2.104   4.339  19.729  0.00  0.00    +0.000 NA
ATOM      7  H   UNL     1       1.304   4.802  20.165  0.00  0.00    +0.000 HD
BRANCH   6   8
ATOM      8  S   UNL     1       2.239   2.712  20.173  0.00  0.00    +0.000 S 
ATOM      9  C   UNL     1       1.328   2.631  21.698  0.00  0.00    +0.000 C 
ATOM     10  O   UNL     1       1.564   1.885  19.201  0.00  0.00    +0.000 OA
ATOM     11  O   UNL     1       3.639   2.517  20.481  0.00  0.00    +0.000 OA
ENDBRANCH   6   8
ENDBRANCH   4   6
BRANCH   1  12
ATOM     12  C   UNL     1       4.733   6.474  16.489  0.00  0.00    +0.000 C 
BRANCH  12  17
ATOM     13  C   UNL     1       5.925   3.499  12.825  0.00  0.00    +0.000 C 
ATOM     14  C   UNL     1       6.234   4.365  13.978  0.00  0.00    +0.000 A 
ATOM     15  C   UNL     1       7.414   4.691  14.609  0.00  0.00    +0.000 A 
ATOM     16  C   UNL     1       7.063   5.492  15.721  0.00  0.00    +0.000 A 
ATOM     17  C   UNL     1       5.696   5.671  15.665  0.00  0.00    +0.000 A 
ATOM     18  O   UNL     1       5.182   4.974  14.603  0.00  0.00    +0.000 OA
ENDBRANCH  12  17
ENDBRANCH   1  12
BRANCH   5  19
ATOM     19  C   UNL     1       2.587   7.503  18.132  0.00  0.00    +0.000 C 
BRANCH  19  20
ATOM     20  C   UNL     1       1.801   8.302  19.148  0.00  0.00    +0.000 A 
ATOM     21  C   UNL     1       1.706   7.892  20.481  0.00  0.00    +0.000 A 
ATOM     22  C   UNL     1       1.079   8.733  21.396  0.00  0.00    +0.000 A 
ATOM     23  N   UNL     1       0.546   9.930  21.078  0.00  0.00    +0.000 NA
ATOM     24  C   UNL     1       0.658  10.313  19.789  0.00  0.00    +0.000 A 
ATOM     25  C   UNL     1       1.265   9.545  18.803  0.00  0.00    +0.000 A 
ENDBRANCH  19  20
ENDBRANCH   5  19
TORSDOF 6
ENDMDL
MODEL 2
REMARK VINA RESULT:      -7.2      3.360      4.323
REMARK  Name = 
REMARK  8 active torsions:
REMARK  status: ('A' for Active; 'I' for Inactive)
REMARK    1  A    between atoms: C_1  and  C_2
REMARK    2  A    between atoms: C_5  and  C_6
REMARK    3  A    between atoms: C_6  and  N_7
REMARK    4  A    between atoms: C_10  and  N_11
REMARK    5  A    between atoms: N_11  and  S_12
REMARK    6  A    between atoms: S_12  and  C_13
REMARK    7  A    between atoms: C_16  and  C_17
REMARK    8  A    between atoms: C_17  and  C_18
REMARK                            x       y       z     vdW  Elec       q    Type
REMARK                         _______ _______ _______ _____ _____    ______ ____
ROOT
ATOM      1  N   UNL     1       6.671   6.608  18.262  0.00  0.00    +0.000 NA
ATOM      2  C   UNL     1       7.654   5.521  18.366  0.00  0.00    +0.000 C 
ATOM      3  C   UNL     1       7.338   4.584  17.221  0.00  0.00    +0.000 C 
ATOM      4  C   UNL     1       5.820   4.622  17.076  0.00  0.00    +0.000 C 
ATOM      5  C   UNL     1       5.396   5.897  17.892  0.00  0.00    +0.000 C 
ENDROOT
BRANCH   4   6
ATOM      6  N   UNL     1       5.211   3.375  17.619  0.00  0.00    +0.000 NA
ATOM      7  H   UNL     1       5.830   2.679  18.041  0.00  0.00    +0.000 HD
BRANCH   6   8
ATOM      8  S   UNL     1       3.638   3.311  18.239  0.00  0.00    +0.000 S 
ATOM      9  C   UNL     1       3.299   1.566  18.304  0.00  0.00    +0.000 C 
ATOM     10  O   UNL     1       3.626   3.822  19.590  0.00  0.00    +0.000 OA
ATOM     11  O   UNL     1       2.801   3.889  17.211  0.00  0.00    +0.000 OA
ENDBRANCH   6   8
ENDBRANCH   4   6
BRANCH   1  12
ATOM     12  C   UNL     1       7.127   7.641  17.303  0.00  0.00    +0.000 C 
BRANCH  12  17
ATOM     13  C   UNL     1       8.771  12.202  17.739  0.00  0.00    +0.000 C 
ATOM     14  C   UNL     1       8.670  10.789  18.150  0.00  0.00    +0.000 A 
ATOM     15  C   UNL     1       9.264  10.067  19.160  0.00  0.00    +0.000 A 
ATOM     16  C   UNL     1       8.849   8.725  18.988  0.00  0.00    +0.000 A 
ATOM     17  C   UNL     1       7.968   8.716  17.926  0.00  0.00    +0.000 A 
ATOM     18  O   UNL     1       7.862   9.977  17.403  0.00  0.00    +0.000 OA
ENDBRANCH  12  17
ENDBRANCH   1  12
BRANCH   5  19
ATOM     19  C   UNL     1       4.354   6.824  17.215  0.00  0.00    +0.000 C 
BRANCH  19  20
ATOM     20  C   UNL     1       3.235   7.409  18.049  0.00  0.00    +0.000 A 
ATOM     21  C   UNL     1       2.926   6.898  19.313  0.00  0.00    +0.000 A 
ATOM     22  C   UNL     1       1.974   7.558  20.086  0.00  0.00    +0.000 A 
ATOM     23  N   UNL     1       1.321   8.669  19.691  0.00  0.00    +0.000 NA
ATOM     24  C   UNL     1       1.642   9.153  18.473  0.00  0.00    +0.000 A 
ATOM     25  C   UNL     1       2.576   8.567  17.629  0.00  0.00    +0.000 A 
ENDBRANCH  19  20
ENDBRANCH   5  19
TORSDOF 6
ENDMDL
MODEL 3
REMARK VINA RESULT:      -7.1      0.875      1.400
REMARK  Name = 
REMARK  8 active torsions:
REMARK  status: ('A' for Active; 'I' for Inactive)
REMARK    1  A    between atoms: C_1  and  C_2
REMARK    2  A    between atoms: C_5  and  C_6
REMARK    3  A    between atoms: C_6  and  N_7
REMARK    4  A    between atoms: C_10  and  N_11
REMARK    5  A    between atoms: N_11  and  S_12
REMARK    6  A    between atoms: S_12  and  C_13
REMARK    7  A    between atoms: C_16  and  C_17
REMARK    8  A    between atoms: C_17  and  C_18
REMARK                            x       y       z     vdW  Elec       q    Type
REMARK                         _______ _______ _______ _____ _____    ______ ____
ROOT
ATOM      1  N   UNL     1       4.702   6.071  18.086  0.00  0.00    +0.000 NA
ATOM      2  C   UNL     1       5.194   4.725  18.410  0.00  0.00    +0.000 C 
ATOM      3  C   UNL     1       3.958   3.856  18.499  0.00  0.00    +0.000 C 
ATOM      4  C   UNL     1       2.876   4.754  19.091  0.00  0.00    +0.000 C 
ATOM      5  C   UNL     1       3.459   6.205  18.927  0.00  0.00    +0.000 C 
ENDROOT
BRANCH   4   6
ATOM      6  N   UNL     1       2.628   4.403  20.518  0.00  0.00    +0.000 NA
ATOM      7  H   UNL     1       2.109   5.067  21.095  0.00  0.00    +0.000 HD
BRANCH   6   8
ATOM      8  S   UNL     1       2.478   2.808  21.062  0.00  0.00    +0.000 S 
ATOM      9  C   UNL     1       1.701   1.983  19.691  0.00  0.00    +0.000 C 
ATOM     10  O   UNL     1       3.789   2.233  21.249  0.00  0.00    +0.000 OA
ATOM     11  O   UNL     1       1.522   2.865  22.147  0.00  0.00    +0.000 OA
ENDBRANCH   6   8
ENDBRANCH   4   6
BRANCH   1  12
ATOM     12  C   UNL     1       4.502   6.221  16.625  0.00  0.00    +0.000 C 
BRANCH  12  17
ATOM     13  C   UNL     1       6.068   3.467  12.929  0.00  0.00    +0.000 C 
ATOM     14  C   UNL     1       6.263   4.346  14.098  0.00  0.00    +0.000 A 
ATOM     15  C   UNL     1       7.390   4.799  14.745  0.00  0.00    +0.000 A 
ATOM     16  C   UNL     1       6.938   5.534  15.866  0.00  0.00    +0.000 A 
ATOM     17  C   UNL     1       5.559   5.551  15.798  0.00  0.00    +0.000 A 
ATOM     18  O   UNL     1       5.141   4.815  14.722  0.00  0.00    +0.000 OA
ENDBRANCH  12  17
ENDBRANCH   1  12
BRANCH   5  19
ATOM     19  C   UNL     1       2.475   7.279  18.396  0.00  0.00    +0.000 C 
BRANCH  19  20
ATOM     20  C   UNL     1       1.833   8.239  19.374  0.00  0.00    +0.000 A 
ATOM     21  C   UNL     1       1.284   9.452  18.948  0.00  0.00    +0.000 A 
ATOM     22  C   UNL     1       0.594  10.233  19.871  0.00  0.00    +0.000 A 
ATOM     23  N   UNL     1       0.420   9.895  21.165  0.00  0.00    +0.000 NA
ATOM     24  C   UNL     1       0.947   8.716  21.553  0.00  0.00    +0.000 A 
ATOM     25  C   UNL     1       1.652   7.868  20.709  0.00  0.00    +0.000 A 
ENDBRANCH  19  20
ENDBRANCH   5  19
TORSDOF 6
ENDMDL
MODEL 4
REMARK VINA RESULT:      -7.1      0.873      1.306
REMARK  Name = 
REMARK  8 active torsions:
REMARK  status: ('A' for Active; 'I' for Inactive)
REMARK    1  A    between atoms: C_1  and  C_2
REMARK    2  A    between atoms: C_5  and  C_6
REMARK    3  A    between atoms: C_6  and  N_7
REMARK    4  A    between atoms: C_10  and  N_11
REMARK    5  A    between atoms: N_11  and  S_12
REMARK    6  A    between atoms: S_12  and  C_13
REMARK    7  A    between atoms: C_16  and  C_17
REMARK    8  A    between atoms: C_17  and  C_18
REMARK                            x       y       z     vdW  Elec       q    Type
REMARK                         _______ _______ _______ _____ _____    ______ ____
ROOT
ATOM      1  N   UNL     1       4.942   6.129  17.873  0.00  0.00    +0.000 NA
ATOM      2  C   UNL     1       5.828   4.982  18.115  0.00  0.00    +0.000 C 
ATOM      3  C   UNL     1       4.929   3.765  18.073  0.00  0.00    +0.000 C 
ATOM      4  C   UNL     1       3.605   4.221  18.679  0.00  0.00    +0.000 C 
ATOM      5  C   UNL     1       3.702   5.790  18.659  0.00  0.00    +0.000 C 
ENDROOT
BRANCH   4   6
ATOM      6  N   UNL     1       3.448   3.682  20.059  0.00  0.00    +0.000 NA
ATOM      7  H   UNL     1       3.934   4.158  20.821  0.00  0.00    +0.000 HD
BRANCH   6   8
ATOM      8  S   UNL     1       2.059   2.867  20.578  0.00  0.00    +0.000 S 
ATOM      9  C   UNL     1       0.792   4.110  20.461  0.00  0.00    +0.000 C 
ATOM     10  O   UNL     1       1.739   1.810  19.647  0.00  0.00    +0.000 OA
ATOM     11  O   UNL     1       2.283   2.590  21.980  0.00  0.00    +0.000 OA
ENDBRANCH   6   8
ENDBRANCH   4   6
BRANCH   1  12
ATOM     12  C   UNL     1       4.739   6.341  16.421  0.00  0.00    +0.000 C 
BRANCH  12  17
ATOM     13  C   UNL     1       5.968   3.384  12.754  0.00  0.00    +0.000 C 
ATOM     14  C   UNL     1       6.268   4.300  13.870  0.00  0.00    +0.000 A 
ATOM     15  C   UNL     1       7.449   4.737  14.426  0.00  0.00    +0.000 A 
ATOM     16  C   UNL     1       7.095   5.533  15.540  0.00  0.00    +0.000 A 
ATOM     17  C   UNL     1       5.717   5.599  15.559  0.00  0.00    +0.000 A 
ATOM     18  O   UNL     1       5.205   4.837  14.542  0.00  0.00    +0.000 OA
ENDBRANCH  12  17
ENDBRANCH   1  12
BRANCH   5  19
ATOM     19  C   UNL     1       2.441   6.545  18.165  0.00  0.00    +0.000 C 
BRANCH  19  20
ATOM     20  C   UNL     1       1.990   7.788  18.901  0.00  0.00    +0.000 A 
ATOM     21  C   UNL     1       1.676   8.966  18.215  0.00  0.00    +0.000 A 
ATOM     22  C   UNL     1       1.145  10.034  18.932  0.00  0.00    +0.000 A 
ATOM     23  N   UNL     1       0.913  10.011  20.259  0.00  0.00    +0.000 NA
ATOM     24  C   UNL     1       1.211   8.862  20.901  0.00  0.00    +0.000 A 
ATOM     25  C   UNL     1       1.744   7.742  20.275  0.00  0.00    +0.000 A 
ENDBRANCH  19  20
ENDBRANCH   5  19
TORSDOF 6
ENDMDL
MODEL 5
REMARK VINA RESULT:      -7.1      1.426      1.779
REMARK  Name = 
REMARK  8 active torsions:
REMARK  status: ('A' for Active; 'I' for Inactive)
REMARK    1  A    between atoms: C_1  and  C_2
REMARK    2  A    between atoms: C_5  and  C_6
REMARK    3  A    between atoms: C_6  and  N_7
REMARK    4  A    between atoms: C_10  and  N_11
REMARK    5  A    between atoms: N_11  and  S_12
REMARK    6  A    between atoms: S_12  and  C_13
REMARK    7  A    between atoms: C_16  and  C_17
REMARK    8  A    between atoms: C_17  and  C_18
REMARK                            x       y       z     vdW  Elec       q    Type
REMARK                         _______ _______ _______ _____ _____    ______ ____
ROOT
ATOM      1  N   UNL     1       4.127   4.224  17.773  0.00  0.00    +0.000 NA
ATOM      2  C   UNL     1       3.300   3.123  17.260  0.00  0.00    +0.000 C 
ATOM      3  C   UNL     1       1.868   3.580  17.439  0.00  0.00    +0.000 C 
ATOM      4  C   UNL     1       1.862   4.390  18.732  0.00  0.00    +0.000 C 
ATOM      5  C   UNL     1       3.383   4.683  19.000  0.00  0.00    +0.000 C 
ENDROOT
BRANCH   4   6
ATOM      6  N   UNL     1       1.234   3.609  19.835  0.00  0.00    +0.000 NA
ATOM      7  H   UNL     1       0.561   2.881  19.589  0.00  0.00    +0.000 HD
BRANCH   6   8
ATOM      8  S   UNL     1       2.007   3.312  21.311  0.00  0.00    +0.000 S 
ATOM      9  C   UNL     1       3.413   2.331  20.842  0.00  0.00    +0.000 C 
ATOM     10  O   UNL     1       2.491   4.555  21.865  0.00  0.00    +0.000 OA
ATOM     11  O   UNL     1       1.099   2.464  22.051  0.00  0.00    +0.000 OA
ENDBRANCH   6   8
ENDBRANCH   4   6
BRANCH   1  12
ATOM     12  C   UNL     1       4.336   5.256  16.731  0.00  0.00    +0.000 C 
BRANCH  12  17
ATOM     13  C   UNL     1       6.177   3.479  12.590  0.00  0.00    +0.000 C 
ATOM     14  C   UNL     1       6.272   4.177  13.885  0.00  0.00    +0.000 A 
ATOM     15  C   UNL     1       7.331   4.720  14.577  0.00  0.00    +0.000 A 
ATOM     16  C   UNL     1       6.813   5.167  15.815  0.00  0.00    +0.000 A 
ATOM     17  C   UNL     1       5.452   4.937  15.780  0.00  0.00    +0.000 A 
ATOM     18  O   UNL     1       5.117   4.321  14.604  0.00  0.00    +0.000 OA
ENDBRANCH  12  17
ENDBRANCH   1  12
BRANCH   5  19
ATOM     19  C   UNL     1       3.734   6.134  19.420  0.00  0.00    +0.000 C 
BRANCH  19  20
ATOM     20  C   UNL     1       2.693   7.220  19.262  0.00  0.00    +0.000 A 
ATOM     21  C   UNL     1       1.903   7.632  20.340  0.00  0.00    +0.000 A 
ATOM     22  C   UNL     1       1.054   8.722  20.167  0.00  0.00    +0.000 A 
ATOM     23  N   UNL     1       0.939   9.413  19.015  0.00  0.00    +0.000 NA
ATOM     24  C   UNL     1       1.718   9.008  17.991  0.00  0.00    +0.000 A 
ATOM     25  C   UNL     1       2.595   7.933  18.065  0.00  0.00    +0.000 A 
ENDBRANCH  19  20
ENDBRANCH   5  19
TORSDOF 6
ENDMDL
MODEL 6
REMARK VINA RESULT:      -7.1      0.919      1.459
REMARK  Name = 
REMARK  8 active torsions:
REMARK  status: ('A' for Active; 'I' for Inactive)
REMARK    1  A    between atoms: C_1  and  C_2
REMARK    2  A    between atoms: C_5  and  C_6
REMARK    3  A    between atoms: C_6  and  N_7
REMARK    4  A    between atoms: C_10  and  N_11
REMARK    5  A    between atoms: N_11  and  S_12
REMARK    6  A    between atoms: S_12  and  C_13
REMARK    7  A    between atoms: C_16  and  C_17
REMARK    8  A    between atoms: C_17  and  C_18
REMARK                            x       y       z     vdW  Elec       q    Type
REMARK                         _______ _______ _______ _____ _____    ______ ____
ROOT
ATOM      1  N   UNL     1       4.800   6.201  18.035  0.00  0.00    +0.000 NA
ATOM      2  C   UNL     1       5.577   4.972  18.248  0.00  0.00    +0.000 C 
ATOM      3  C   UNL     1       4.620   3.837  17.956  0.00  0.00    +0.000 C 
ATOM      4  C   UNL     1       3.259   4.322  18.444  0.00  0.00    +0.000 C 
ATOM      5  C   UNL     1       3.451   5.872  18.619  0.00  0.00    +0.000 C 
ENDROOT
BRANCH   4   6
ATOM      6  N   UNL     1       2.892   3.650  19.723  0.00  0.00    +0.000 NA
ATOM      7  H   UNL     1       3.549   3.706  20.504  0.00  0.00    +0.000 HD
BRANCH   6   8
ATOM      8  S   UNL     1       1.291   3.443  20.230  0.00  0.00    +0.000 S 
ATOM      9  C   UNL     1       1.459   2.512  21.735  0.00  0.00    +0.000 C 
ATOM     10  O   UNL     1       0.715   4.727  20.557  0.00  0.00    +0.000 OA
ATOM     11  O   UNL     1       0.687   2.581  19.238  0.00  0.00    +0.000 OA
ENDBRANCH   6   8
ENDBRANCH   4   6
BRANCH   1  12
ATOM     12  C   UNL     1       4.800   6.583  16.603  0.00  0.00    +0.000 C 
BRANCH  12  17
ATOM     13  C   UNL     1       5.836   3.525  12.961  0.00  0.00    +0.000 C 
ATOM     14  C   UNL     1       6.194   4.416  14.080  0.00  0.00    +0.000 A 
ATOM     15  C   UNL     1       7.398   4.754  14.654  0.00  0.00    +0.000 A 
ATOM     16  C   UNL     1       7.095   5.580  15.762  0.00  0.00    +0.000 A 
ATOM     17  C   UNL     1       5.727   5.760  15.758  0.00  0.00    +0.000 A 
ATOM     18  O   UNL     1       5.169   5.040  14.735  0.00  0.00    +0.000 OA
ENDBRANCH  12  17
ENDBRANCH   1  12
BRANCH   5  19
ATOM     19  C   UNL     1       2.312   6.767  18.067  0.00  0.00    +0.000 C 
BRANCH  19  20
ATOM     20  C   UNL     1       1.917   8.012  18.830  0.00  0.00    +0.000 A 
ATOM     21  C   UNL     1       1.657   9.218  18.171  0.00  0.00    +0.000 A 
ATOM     22  C   UNL     1       1.173  10.293  18.911  0.00  0.00    +0.000 A 
ATOM     23  N   UNL     1       0.938  10.250  20.238  0.00  0.00    +0.000 NA
ATOM     24  C   UNL     1       1.183   9.075  20.853  0.00  0.00    +0.000 A 
ATOM     25  C   UNL     1       1.667   7.947  20.203  0.00  0.00    +0.000 A 
ENDBRANCH  19  20
ENDBRANCH   5  19
TORSDOF 6
ENDMDL
MODEL 7
REMARK VINA RESULT:      -7.0      0.925      1.047
REMARK  Name = 
REMARK  8 active torsions:
REMARK  status: ('A' for Active; 'I' for Inactive)
REMARK    1  A    between atoms: C_1  and  C_2
REMARK    2  A    between atoms: C_5  and  C_6
REMARK    3  A    between atoms: C_6  and  N_7
REMARK    4  A    between atoms: C_10  and  N_11
REMARK    5  A    between atoms: N_11  and  S_12
REMARK    6  A    between atoms: S_12  and  C_13
REMARK    7  A    between atoms: C_16  and  C_17
REMARK    8  A    between atoms: C_17  and  C_18
REMARK                            x       y       z     vdW  Elec       q    Type
REMARK                         _______ _______ _______ _____ _____    ______ ____
ROOT
ATOM      1  N   UNL     1       4.620   4.895  17.352  0.00  0.00    +0.000 NA
ATOM      2  C   UNL     1       4.041   3.560  17.149  0.00  0.00    +0.000 C 
ATOM      3  C   UNL     1       2.541   3.768  17.154  0.00  0.00    +0.000 C 
ATOM      4  C   UNL     1       2.293   4.883  18.165  0.00  0.00    +0.000 C 
ATOM      5  C   UNL     1       3.713   5.522  18.379  0.00  0.00    +0.000 C 
ENDROOT
BRANCH   4   6
ATOM      6  N   UNL     1       1.726   4.329  19.426  0.00  0.00    +0.000 NA
ATOM      7  H   UNL     1       0.775   4.597  19.688  0.00  0.00    +0.000 HD
BRANCH   6   8
ATOM      8  S   UNL     1       2.177   2.825  20.057  0.00  0.00    +0.000 S 
ATOM      9  C   UNL     1       1.321   2.766  21.615  0.00  0.00    +0.000 C 
ATOM     10  O   UNL     1       1.657   1.770  19.219  0.00  0.00    +0.000 OA
ATOM     11  O   UNL     1       3.593   2.937  20.331  0.00  0.00    +0.000 OA
ENDBRANCH   6   8
ENDBRANCH   4   6
BRANCH   1  12
ATOM     12  C   UNL     1       4.726   5.624  16.066  0.00  0.00    +0.000 C 
BRANCH  12  17
ATOM     13  C   UNL     1       5.713   3.031  12.066  0.00  0.00    +0.000 C 
ATOM     14  C   UNL     1       6.085   3.841  13.241  0.00  0.00    +0.000 A 
ATOM     15  C   UNL     1       7.300   4.231  13.757  0.00  0.00    +0.000 A 
ATOM     16  C   UNL     1       7.020   4.917  14.962  0.00  0.00    +0.000 A 
ATOM     17  C   UNL     1       5.646   4.972  15.076  0.00  0.00    +0.000 A 
ATOM     18  O   UNL     1       5.069   4.305  14.029  0.00  0.00    +0.000 OA
ENDBRANCH  12  17
ENDBRANCH   1  12
BRANCH   5  19
ATOM     19  C   UNL     1       3.771   7.071  18.381  0.00  0.00    +0.000 C 
BRANCH  19  20
ATOM     20  C   UNL     1       2.527   7.856  18.732  0.00  0.00    +0.000 A 
ATOM     21  C   UNL     1       2.023   7.876  20.037  0.00  0.00    +0.000 A 
ATOM     22  C   UNL     1       0.952   8.718  20.326  0.00  0.00    +0.000 A 
ATOM     23  N   UNL     1       0.359   9.521  19.421  0.00  0.00    +0.000 NA
ATOM     24  C   UNL     1       0.866   9.496  18.172  0.00  0.00    +0.000 A 
ATOM     25  C   UNL     1       1.931   8.692  17.785  0.00  0.00    +0.000 A 
ENDBRANCH  19  20
ENDBRANCH   5  19
TORSDOF 6
ENDMDL
MODEL 8
REMARK VINA RESULT:      -7.0      2.430      4.632
REMARK  Name = 
REMARK  8 active torsions:
REMARK  status: ('A' for Active; 'I' for Inactive)
REMARK    1  A    between atoms: C_1  and  C_2
REMARK    2  A    between atoms: C_5  and  C_6
REMARK    3  A    between atoms: C_6  and  N_7
REMARK    4  A    between atoms: C_10  and  N_11
REMARK    5  A    between atoms: N_11  and  S_12
REMARK    6  A    between atoms: S_12  and  C_13
REMARK    7  A    between atoms: C_16  and  C_17
REMARK    8  A    between atoms: C_17  and  C_18
REMARK                            x       y       z     vdW  Elec       q    Type
REMARK                         _______ _______ _______ _____ _____    ______ ____
ROOT
ATOM      1  N   UNL     1       5.140   5.322  15.798  0.00  0.00    +0.000 NA
ATOM      2  C   UNL     1       5.641   6.677  16.067  0.00  0.00    +0.000 C 
ATOM      3  C   UNL     1       6.104   6.656  17.508  0.00  0.00    +0.000 C 
ATOM      4  C   UNL     1       5.130   5.729  18.229  0.00  0.00    +0.000 C 
ATOM      5  C   UNL     1       4.409   4.958  17.065  0.00  0.00    +0.000 C 
ENDROOT
BRANCH   4   6
ATOM      6  N   UNL     1       4.176   6.518  19.060  0.00  0.00    +0.000 NA
ATOM      7  H   UNL     1       4.555   7.097  19.812  0.00  0.00    +0.000 HD
BRANCH   6   8
ATOM      8  S   UNL     1       2.700   7.097  18.470  0.00  0.00    +0.000 S 
ATOM      9  C   UNL     1       1.921   7.772  19.920  0.00  0.00    +0.000 C 
ATOM     10  O   UNL     1       2.938   8.178  17.543  0.00  0.00    +0.000 OA
ATOM     11  O   UNL     1       1.960   5.919  18.075  0.00  0.00    +0.000 OA
ENDBRANCH   6   8
ENDBRANCH   4   6
BRANCH   1  12
ATOM     12  C   UNL     1       6.249   4.415  15.420  0.00  0.00    +0.000 C 
BRANCH  12  17
ATOM     13  C   UNL     1       4.103   3.114  11.249  0.00  0.00    +0.000 C 
ATOM     14  C   UNL     1       5.265   3.489  12.076  0.00  0.00    +0.000 A 
ATOM     15  C   UNL     1       6.610   3.599  11.800  0.00  0.00    +0.000 A 
ATOM     16  C   UNL     1       7.245   3.900  13.027  0.00  0.00    +0.000 A 
ATOM     17  C   UNL     1       6.246   4.028  13.970  0.00  0.00    +0.000 A 
ATOM     18  O   UNL     1       5.031   3.767  13.394  0.00  0.00    +0.000 OA
ENDBRANCH  12  17
ENDBRANCH   1  12
BRANCH   5  19
ATOM     19  C   UNL     1       4.246   3.429  17.258  0.00  0.00    +0.000 C 
BRANCH  19  20
ATOM     20  C   UNL     1       3.363   2.916  18.374  0.00  0.00    +0.000 A 
ATOM     21  C   UNL     1       3.773   2.971  19.710  0.00  0.00    +0.000 A 
ATOM     22  C   UNL     1       2.867   2.605  20.702  0.00  0.00    +0.000 A 
ATOM     23  N   UNL     1       1.608   2.192  20.458  0.00  0.00    +0.000 NA
ATOM     24  C   UNL     1       1.227   2.156  19.164  0.00  0.00    +0.000 A 
ATOM     25  C   UNL     1       2.056   2.502  18.104  0.00  0.00    +0.000 A 
ENDBRANCH  19  20
ENDBRANCH   5  19
TORSDOF 6
ENDMDL
MODEL 9
REMARK VINA RESULT:      -7.0      4.525      6.368
REMARK  Name = 
REMARK  8 active torsions:
REMARK  status: ('A' for Active; 'I' for Inactive)
REMARK    1  A    between atoms: C_1  and  C_2
REMARK    2  A    between atoms: C_5  and  C_6
REMARK    3  A    between atoms: C_6  and  N_7
REMARK    4  A    between atoms: C_10  and  N_11
REMARK    5  A    between atoms: N_11  and  S_12
REMARK    6  A    between atoms: S_12  and  C_13
REMARK    7  A    between atoms: C_16  and  C_17
REMARK    8  A    between atoms: C_17  and  C_18
REMARK                            x       y       z     vdW  Elec       q    Type
REMARK                         _______ _______ _______ _____ _____    ______ ____
ROOT
ATOM      1  N   UNL     1       6.130   4.505  16.978  0.00  0.00    +0.000 NA
ATOM      2  C   UNL     1       7.426   4.558  16.289  0.00  0.00    +0.000 C 
ATOM      3  C   UNL     1       7.105   4.937  14.859  0.00  0.00    +0.000 C 
ATOM      4  C   UNL     1       5.774   4.257  14.552  0.00  0.00    +0.000 C 
ATOM      5  C   UNL     1       5.218   3.861  15.967  0.00  0.00    +0.000 C 
ENDROOT
BRANCH   4   6
ATOM      6  N   UNL     1       5.983   3.072  13.673  0.00  0.00    +0.000 NA
ATOM      7  H   UNL     1       5.760   2.148  14.048  0.00  0.00    +0.000 HD
BRANCH   6   8
ATOM      8  S   UNL     1       5.858   3.140  11.987  0.00  0.00    +0.000 S 
ATOM      9  C   UNL     1       6.091   1.447  11.495  0.00  0.00    +0.000 C 
ATOM     10  O   UNL     1       4.521   3.536  11.614  0.00  0.00    +0.000 OA
ATOM     11  O   UNL     1       7.014   3.893  11.551  0.00  0.00    +0.000 OA
ENDBRANCH   6   8
ENDBRANCH   4   6
BRANCH   1  12
ATOM     12  C   UNL     1       5.721   5.854  17.437  0.00  0.00    +0.000 C 
BRANCH  12  17
ATOM     13  C   UNL     1       8.379   9.931  17.546  0.00  0.00    +0.000 C 
ATOM     14  C   UNL     1       8.032   8.567  17.988  0.00  0.00    +0.000 A 
ATOM     15  C   UNL     1       8.600   7.712  18.905  0.00  0.00    +0.000 A 
ATOM     16  C   UNL     1       7.879   6.498  18.819  0.00  0.00    +0.000 A 
ATOM     17  C   UNL     1       6.864   6.704  17.907  0.00  0.00    +0.000 A 
ATOM     18  O   UNL     1       6.960   7.968  17.387  0.00  0.00    +0.000 OA
ENDBRANCH  12  17
ENDBRANCH   1  12
BRANCH   5  19
ATOM     19  C   UNL     1       3.718   4.161  16.219  0.00  0.00    +0.000 C 
BRANCH  19  20
ATOM     20  C   UNL     1       2.983   3.395  17.297  0.00  0.00    +0.000 A 
ATOM     21  C   UNL     1       3.541   2.258  17.891  0.00  0.00    +0.000 A 
ATOM     22  C   UNL     1       2.877   1.672  18.965  0.00  0.00    +0.000 A 
ATOM     23  N   UNL     1       1.716   2.130  19.475  0.00  0.00    +0.000 NA
ATOM     24  C   UNL     1       1.200   3.234  18.896  0.00  0.00    +0.000 A 
ATOM     25  C   UNL     1       1.786   3.890  17.821  0.00  0.00    +0.000 A 
ENDBRANCH  19  20
ENDBRANCH   5  19
TORSDOF 6
ENDMDL
