MODEL 1
REMARK VINA RESULT:      -8.0      0.000      0.000
REMARK  Name = 
REMARK  14 active torsions:
REMARK  status: ('A' for Active; 'I' for Inactive)
REMARK    1  A    between atoms: C_1  and  C_2
REMARK    2  A    between atoms: C_2  and  C_3
REMARK    3  A    between atoms: C_3  and  C_4
REMARK    4  A    between atoms: C_5  and  O_6
REMARK    5  A    between atoms: O_6  and  C_7
REMARK    6  A    between atoms: C_7  and  C_8
REMARK    7  A    between atoms: C_8  and  O_9
REMARK    8  A    between atoms: O_9  and  C_10
REMARK    9  A    between atoms: C_13  and  C_14
REMARK   10  A    between atoms: N_27  and  C_28
REMARK   11  A    between atoms: C_28  and  C_29
REMARK   12  A    between atoms: C_29  and  C_30
REMARK   13  A    between atoms: C_29  and  C_31
REMARK   14  A    between atoms: C_29  and  C_32
REMARK                            x       y       z     vdW  Elec       q    Type
REMARK                         _______ _______ _______ _____ _____    ______ ____
ROOT
ATOM      1  C   UNL     1       5.811   5.178  16.852  0.00  0.00    +0.000 A 
ATOM      2  C   UNL     1       6.599   5.838  17.831  0.00  0.00    +0.000 A 
ATOM      3  C   UNL     1       6.440   5.545  19.187  0.00  0.00    +0.000 A 
ATOM      4  C   UNL     1       5.481   4.634  19.627  0.00  0.00    +0.000 A 
ATOM      5  C   UNL     1       4.662   4.026  18.673  0.00  0.00    +0.000 A 
ATOM      6  C   UNL     1       4.817   4.265  17.303  0.00  0.00    +0.000 A 
ATOM      7  C   UNL     1       3.847   3.455  16.641  0.00  0.00    +0.000 A 
ATOM      8  C   UNL     1       3.133   2.770  17.595  0.00  0.00    +0.000 A 
ATOM      9  N   UNL     1       3.607   3.145  18.825  0.00  0.00    +0.000 N 
ENDROOT
BRANCH   1  10
ATOM     10  C   UNL     1       6.011   5.476  15.374  0.00  0.00    +0.000 C 
BRANCH  10  12
ATOM     11  C   UNL     1       6.034   3.824  13.466  0.00  0.00    +0.000 C 
ATOM     12  C   UNL     1       6.825   4.413  14.625  0.00  0.00    +0.000 C 
ENDBRANCH  10  12
ENDBRANCH   1  10
BRANCH   2  13
ATOM     13  O   UNL     1       7.483   6.771  17.350  0.00  0.00    +0.000 OA
BRANCH  13  14
ATOM     14  C   UNL     1       7.233   8.166  17.546  0.00  0.00    +0.000 C 
BRANCH  14  15
ATOM     15  C   UNL     1       8.529   8.969  17.662  0.00  0.00    +0.000 C 
BRANCH  15  16
ATOM     16  O   UNL     1       8.707   9.411  19.018  0.00  0.00    +0.000 OA
BRANCH  16  17
ATOM     17  C   UNL     1       9.326  10.624  19.150  0.00  0.00    +0.000 A 
ATOM     18  C   UNL     1      10.139  10.993  20.221  0.00  0.00    +0.000 A 
ATOM     19  C   UNL     1      10.700  12.272  20.272  0.00  0.00    +0.000 A 
ATOM     20  C   UNL     1      10.468  13.197  19.249  0.00  0.00    +0.000 A 
ATOM     21  C   UNL     1       9.690  12.805  18.152  0.00  0.00    +0.000 A 
ATOM     22  C   UNL     1       9.129  11.524  18.100  0.00  0.00    +0.000 A 
BRANCH  20  23
ATOM     23  C   UNL     1      11.026  14.541  19.346  0.00  0.00    +0.000 A 
ATOM     24  N   UNL     1      11.341  15.293  18.235  0.00  0.00    +0.000 NA
ATOM     25  N   UNL     1      11.852  16.433  18.676  0.00  0.00    +0.000 NA
ATOM     26  N   UNL     1      11.820  16.319  20.007  0.00  0.00    +0.000 N 
ATOM     27  N   UNL     1      11.325  15.173  20.493  0.00  0.00    +0.000 NA
ATOM     28  H   UNL     1      12.161  17.063  20.614  0.00  0.00    +0.000 HD
ENDBRANCH  20  23
ENDBRANCH  16  17
ENDBRANCH  15  16
ENDBRANCH  14  15
ENDBRANCH  13  14
ENDBRANCH   2  13
BRANCH   9  29
ATOM     29  C   UNL     1       3.126   2.604  20.087  0.00  0.00    +0.000 C 
BRANCH  29  30
ATOM     30  C   UNL     1       1.855   3.263  20.689  0.00  0.00    +0.000 C 
ATOM     31  C   UNL     1       0.634   3.028  19.781  0.00  0.00    +0.000 C 
ATOM     32  C   UNL     1       1.605   2.618  22.068  0.00  0.00    +0.000 C 
ATOM     33  C   UNL     1       2.020   4.778  20.902  0.00  0.00    +0.000 C 
ENDBRANCH  29  30
ENDBRANCH   9  29
TORSDOF 10
ENDMDL
MODEL 2
REMARK VINA RESULT:      -8.0      1.185      1.860
REMARK  Name = 
REMARK  14 active torsions:
REMARK  status: ('A' for Active; 'I' for Inactive)
REMARK    1  A    between atoms: C_1  and  C_2
REMARK    2  A    between atoms: C_2  and  C_3
REMARK    3  A    between atoms: C_3  and  C_4
REMARK    4  A    between atoms: C_5  and  O_6
REMARK    5  A    between atoms: O_6  and  C_7
REMARK    6  A    between atoms: C_7  and  C_8
REMARK    7  A    between atoms: C_8  and  O_9
REMARK    8  A    between atoms: O_9  and  C_10
REMARK    9  A    between atoms: C_13  and  C_14
REMARK   10  A    between atoms: N_27  and  C_28
REMARK   11  A    between atoms: C_28  and  C_29
REMARK   12  A    between atoms: C_29  and  C_30
REMARK   13  A    between atoms: C_29  and  C_31
REMARK   14  A    between atoms: C_29  and  C_32
REMARK                            x       y       z     vdW  Elec       q    Type
REMARK                         _______ _______ _______ _____ _____    ______ ____
ROOT
ATOM      1  C   UNL     1       5.810   5.378  16.672  0.00  0.00    +0.000 A 
ATOM      2  C   UNL     1       6.651   6.027  17.613  0.00  0.00    +0.000 A 
ATOM      3  C   UNL     1       6.572   5.715  18.972  0.00  0.00    +0.000 A 
ATOM      4  C   UNL     1       5.641   4.797  19.454  0.00  0.00    +0.000 A 
ATOM      5  C   UNL     1       4.770   4.199  18.541  0.00  0.00    +0.000 A 
ATOM      6  C   UNL     1       4.845   4.456  17.168  0.00  0.00    +0.000 A 
ATOM      7  C   UNL     1       3.840   3.652  16.552  0.00  0.00    +0.000 A 
ATOM      8  C   UNL     1       3.184   2.953  17.536  0.00  0.00    +0.000 A 
ATOM      9  N   UNL     1       3.728   3.313  18.741  0.00  0.00    +0.000 N 
ENDROOT
BRANCH   1  10
ATOM     10  C   UNL     1       5.924   5.696  15.189  0.00  0.00    +0.000 C 
BRANCH  10  12
ATOM     11  C   UNL     1       6.019   3.842  13.479  0.00  0.00    +0.000 C 
ATOM     12  C   UNL     1       6.828   4.733  14.410  0.00  0.00    +0.000 C 
ENDBRANCH  10  12
ENDBRANCH   1  10
BRANCH   2  13
ATOM     13  O   UNL     1       7.505   6.969  17.094  0.00  0.00    +0.000 OA
BRANCH  13  14
ATOM     14  C   UNL     1       7.363   8.345  17.459  0.00  0.00    +0.000 C 
BRANCH  14  15
ATOM     15  C   UNL     1       8.518   8.825  18.338  0.00  0.00    +0.000 C 
BRANCH  15  16
ATOM     16  O   UNL     1       9.088  10.021  17.780  0.00  0.00    +0.000 OA
BRANCH  16  17
ATOM     17  C   UNL     1       9.179  11.074  18.648  0.00  0.00    +0.000 A 
ATOM     18  C   UNL     1       8.870  12.397  18.335  0.00  0.00    +0.000 A 
ATOM     19  C   UNL     1       9.026  13.403  19.291  0.00  0.00    +0.000 A 
ATOM     20  C   UNL     1       9.481  13.103  20.580  0.00  0.00    +0.000 A 
ATOM     21  C   UNL     1       9.745  11.766  20.904  0.00  0.00    +0.000 A 
ATOM     22  C   UNL     1       9.587  10.757  19.946  0.00  0.00    +0.000 A 
BRANCH  20  23
ATOM     23  C   UNL     1       9.681  14.176  21.547  0.00  0.00    +0.000 A 
ATOM     24  N   UNL     1      10.683  15.112  21.416  0.00  0.00    +0.000 NA
ATOM     25  N   UNL     1      10.604  15.910  22.471  0.00  0.00    +0.000 NA
ATOM     26  N   UNL     1       9.573  15.429  23.174  0.00  0.00    +0.000 N 
ATOM     27  N   UNL     1       8.957  14.354  22.664  0.00  0.00    +0.000 NA
ATOM     28  H   UNL     1       9.283  15.856  24.052  0.00  0.00    +0.000 HD
ENDBRANCH  20  23
ENDBRANCH  16  17
ENDBRANCH  15  16
ENDBRANCH  14  15
ENDBRANCH  13  14
ENDBRANCH   2  13
BRANCH   9  29
ATOM     29  C   UNL     1       3.322   2.754  20.022  0.00  0.00    +0.000 C 
BRANCH  29  30
ATOM     30  C   UNL     1       1.972   3.255  20.605  0.00  0.00    +0.000 C 
ATOM     31  C   UNL     1       1.649   2.542  21.930  0.00  0.00    +0.000 C 
ATOM     32  C   UNL     1       2.109   4.772  20.855  0.00  0.00    +0.000 C 
ATOM     33  C   UNL     1       0.795   3.043  19.637  0.00  0.00    +0.000 C 
ENDBRANCH  29  30
ENDBRANCH   9  29
TORSDOF 10
ENDMDL
MODEL 3
REMARK VINA RESULT:      -7.9      0.839      1.364
REMARK  Name = 
REMARK  14 active torsions:
REMARK  status: ('A' for Active; 'I' for Inactive)
REMARK    1  A    between atoms: C_1  and  C_2
REMARK    2  A    between atoms: C_2  and  C_3
REMARK    3  A    between atoms: C_3  and  C_4
REMARK    4  A    between atoms: C_5  and  O_6
REMARK    5  A    between atoms: O_6  and  C_7
REMARK    6  A    between atoms: C_7  and  C_8
REMARK    7  A    between atoms: C_8  and  O_9
REMARK    8  A    between atoms: O_9  and  C_10
REMARK    9  A    between atoms: C_13  and  C_14
REMARK   10  A    between atoms: N_27  and  C_28
REMARK   11  A    between atoms: C_28  and  C_29
REMARK   12  A    between atoms: C_29  and  C_30
REMARK   13  A    between atoms: C_29  and  C_31
REMARK   14  A    between atoms: C_29  and  C_32
REMARK                            x       y       z     vdW  Elec       q    Type
REMARK                         _______ _______ _______ _____ _____    ______ ____
ROOT
ATOM      1  C   UNL     1       5.811   5.376  16.695  0.00  0.00    +0.000 A 
ATOM      2  C   UNL     1       6.503   6.094  17.704  0.00  0.00    +0.000 A 
ATOM      3  C   UNL     1       6.295   5.802  19.054  0.00  0.00    +0.000 A 
ATOM      4  C   UNL     1       5.376   4.834  19.456  0.00  0.00    +0.000 A 
ATOM      5  C   UNL     1       4.648   4.165  18.469  0.00  0.00    +0.000 A 
ATOM      6  C   UNL     1       4.857   4.402  17.106  0.00  0.00    +0.000 A 
ATOM      7  C   UNL     1       3.977   3.524  16.406  0.00  0.00    +0.000 A 
ATOM      8  C   UNL     1       3.262   2.802  17.331  0.00  0.00    +0.000 A 
ATOM      9  N   UNL     1       3.648   3.217  18.578  0.00  0.00    +0.000 N 
ENDROOT
BRANCH   1  10
ATOM     10  C   UNL     1       6.066   5.674  15.225  0.00  0.00    +0.000 C 
BRANCH  10  12
ATOM     11  C   UNL     1       7.387   5.125  13.146  0.00  0.00    +0.000 C 
ATOM     12  C   UNL     1       6.951   4.639  14.520  0.00  0.00    +0.000 C 
ENDBRANCH  10  12
ENDBRANCH   1  10
BRANCH   2  13
ATOM     13  O   UNL     1       7.347   7.080  17.258  0.00  0.00    +0.000 OA
BRANCH  13  14
ATOM     14  C   UNL     1       8.262   7.706  18.162  0.00  0.00    +0.000 C 
BRANCH  14  15
ATOM     15  C   UNL     1       8.280   9.226  17.996  0.00  0.00    +0.000 C 
BRANCH  15  16
ATOM     16  O   UNL     1       9.064   9.820  19.044  0.00  0.00    +0.000 OA
BRANCH  16  17
ATOM     17  C   UNL     1       9.547  11.068  18.762  0.00  0.00    +0.000 A 
ATOM     18  C   UNL     1      10.384  11.378  17.691  0.00  0.00    +0.000 A 
ATOM     19  C   UNL     1      10.845  12.685  17.511  0.00  0.00    +0.000 A 
ATOM     20  C   UNL     1      10.469  13.705  18.392  0.00  0.00    +0.000 A 
ATOM     21  C   UNL     1       9.591  13.397  19.439  0.00  0.00    +0.000 A 
ATOM     22  C   UNL     1       9.128  12.089  19.619  0.00  0.00    +0.000 A 
BRANCH  20  23
ATOM     23  C   UNL     1      11.000  15.051  18.212  0.00  0.00    +0.000 A 
ATOM     24  N   UNL     1      11.047  15.668  16.981  0.00  0.00    +0.000 NA
ATOM     25  N   UNL     1      11.612  16.852  17.167  0.00  0.00    +0.000 NA
ATOM     26  N   UNL     1      11.871  16.894  18.478  0.00  0.00    +0.000 N 
ATOM     27  N   UNL     1      11.523  15.812  19.187  0.00  0.00    +0.000 NA
ATOM     28  H   UNL     1      12.316  17.704  18.907  0.00  0.00    +0.000 HD
ENDBRANCH  20  23
ENDBRANCH  16  17
ENDBRANCH  15  16
ENDBRANCH  14  15
ENDBRANCH  13  14
ENDBRANCH   2  13
BRANCH   9  29
ATOM     29  C   UNL     1       3.140   2.656  19.821  0.00  0.00    +0.000 C 
BRANCH  29  30
ATOM     30  C   UNL     1       1.736   3.136  20.280  0.00  0.00    +0.000 C 
ATOM     31  C   UNL     1       1.452   2.694  21.727  0.00  0.00    +0.000 C 
ATOM     32  C   UNL     1       1.722   4.677  20.199  0.00  0.00    +0.000 C 
ATOM     33  C   UNL     1       0.607   2.608  19.379  0.00  0.00    +0.000 C 
ENDBRANCH  29  30
ENDBRANCH   9  29
TORSDOF 10
ENDMDL
MODEL 4
REMARK VINA RESULT:      -7.9      7.574     10.138
REMARK  Name = 
REMARK  14 active torsions:
REMARK  status: ('A' for Active; 'I' for Inactive)
REMARK    1  A    between atoms: C_1  and  C_2
REMARK    2  A    between atoms: C_2  and  C_3
REMARK    3  A    between atoms: C_3  and  C_4
REMARK    4  A    between atoms: C_5  and  O_6
REMARK    5  A    between atoms: O_6  and  C_7
REMARK    6  A    between atoms: C_7  and  C_8
REMARK    7  A    between atoms: C_8  and  O_9
REMARK    8  A    between atoms: O_9  and  C_10
REMARK    9  A    between atoms: C_13  and  C_14
REMARK   10  A    between atoms: N_27  and  C_28
REMARK   11  A    between atoms: C_28  and  C_29
REMARK   12  A    between atoms: C_29  and  C_30
REMARK   13  A    between atoms: C_29  and  C_31
REMARK   14  A    between atoms: C_29  and  C_32
REMARK                            x       y       z     vdW  Elec       q    Type
REMARK                         _______ _______ _______ _____ _____    ______ ____
ROOT
ATOM      1  C   UNL     1       0.954   8.881  19.808  0.00  0.00    +0.000 A 
ATOM      2  C   UNL     1       1.392   9.686  18.725  0.00  0.00    +0.000 A 
ATOM      3  C   UNL     1       2.337   9.204  17.816  0.00  0.00    +0.000 A 
ATOM      4  C   UNL     1       2.912   7.943  17.966  0.00  0.00    +0.000 A 
ATOM      5  C   UNL     1       2.530   7.169  19.064  0.00  0.00    +0.000 A 
ATOM      6  C   UNL     1       1.557   7.602  19.972  0.00  0.00    +0.000 A 
ATOM      7  C   UNL     1       1.401   6.551  20.925  0.00  0.00    +0.000 A 
ATOM      8  C   UNL     1       2.267   5.536  20.594  0.00  0.00    +0.000 A 
ATOM      9  N   UNL     1       2.971   5.929  19.486  0.00  0.00    +0.000 N 
ENDROOT
BRANCH   1  10
ATOM     10  C   UNL     1      -0.101   9.397  20.775  0.00  0.00    +0.000 C 
BRANCH  10  12
ATOM     11  C   UNL     1      -0.270   9.560  23.288  0.00  0.00    +0.000 C 
ATOM     12  C   UNL     1       0.474  10.033  22.047  0.00  0.00    +0.000 C 
ENDBRANCH  10  12
ENDBRANCH   1  10
BRANCH   2  13
ATOM     13  O   UNL     1       0.842  10.942  18.660  0.00  0.00    +0.000 OA
BRANCH  13  14
ATOM     14  C   UNL     1       1.688  12.096  18.630  0.00  0.00    +0.000 C 
BRANCH  14  15
ATOM     15  C   UNL     1       1.710  12.824  19.974  0.00  0.00    +0.000 C 
BRANCH  15  16
ATOM     16  O   UNL     1       0.719  13.865  19.979  0.00  0.00    +0.000 OA
BRANCH  16  17
ATOM     17  C   UNL     1      -0.370  13.618  20.768  0.00  0.00    +0.000 A 
ATOM     18  C   UNL     1      -0.384  13.700  22.160  0.00  0.00    +0.000 A 
ATOM     19  C   UNL     1      -1.547  13.397  22.873  0.00  0.00    +0.000 A 
ATOM     20  C   UNL     1      -2.718  13.018  22.206  0.00  0.00    +0.000 A 
ATOM     21  C   UNL     1      -2.712  12.984  20.806  0.00  0.00    +0.000 A 
ATOM     22  C   UNL     1      -1.547  13.288  20.092  0.00  0.00    +0.000 A 
BRANCH  20  23
ATOM     23  C   UNL     1      -3.905  12.662  22.973  0.00  0.00    +0.000 A 
ATOM     24  N   UNL     1      -3.842  12.259  24.290  0.00  0.00    +0.000 NA
ATOM     25  N   UNL     1      -5.081  11.981  24.666  0.00  0.00    +0.000 NA
ATOM     26  N   UNL     1      -5.822  12.228  23.581  0.00  0.00    +0.000 N 
ATOM     27  N   UNL     1      -5.160  12.649  22.495  0.00  0.00    +0.000 NA
ATOM     28  H   UNL     1      -6.831  12.095  23.584  0.00  0.00    +0.000 HD
ENDBRANCH  20  23
ENDBRANCH  16  17
ENDBRANCH  15  16
ENDBRANCH  14  15
ENDBRANCH  13  14
ENDBRANCH   2  13
BRANCH   9  29
ATOM     29  C   UNL     1       3.961   5.104  18.810  0.00  0.00    +0.000 C 
BRANCH  29  30
ATOM     30  C   UNL     1       3.427   3.860  18.047  0.00  0.00    +0.000 C 
ATOM     31  C   UNL     1       3.436   2.616  18.953  0.00  0.00    +0.000 C 
ATOM     32  C   UNL     1       1.981   4.169  17.608  0.00  0.00    +0.000 C 
ATOM     33  C   UNL     1       4.246   3.548  16.782  0.00  0.00    +0.000 C 
ENDBRANCH  29  30
ENDBRANCH   9  29
TORSDOF 10
ENDMDL
MODEL 5
REMARK VINA RESULT:      -7.8      4.028      6.215
REMARK  Name = 
REMARK  14 active torsions:
REMARK  status: ('A' for Active; 'I' for Inactive)
REMARK    1  A    between atoms: C_1  and  C_2
REMARK    2  A    between atoms: C_2  and  C_3
REMARK    3  A    between atoms: C_3  and  C_4
REMARK    4  A    between atoms: C_5  and  O_6
REMARK    5  A    between atoms: O_6  and  C_7
REMARK    6  A    between atoms: C_7  and  C_8
REMARK    7  A    between atoms: C_8  and  O_9
REMARK    8  A    between atoms: O_9  and  C_10
REMARK    9  A    between atoms: C_13  and  C_14
REMARK   10  A    between atoms: N_27  and  C_28
REMARK   11  A    between atoms: C_28  and  C_29
REMARK   12  A    between atoms: C_29  and  C_30
REMARK   13  A    between atoms: C_29  and  C_31
REMARK   14  A    between atoms: C_29  and  C_32
REMARK                            x       y       z     vdW  Elec       q    Type
REMARK                         _______ _______ _______ _____ _____    ______ ____
ROOT
ATOM      1  C   UNL     1       2.755   5.895  19.570  0.00  0.00    +0.000 A 
ATOM      2  C   UNL     1       3.466   5.835  18.343  0.00  0.00    +0.000 A 
ATOM      3  C   UNL     1       3.543   6.953  17.509  0.00  0.00    +0.000 A 
ATOM      4  C   UNL     1       2.893   8.144  17.829  0.00  0.00    +0.000 A 
ATOM      5  C   UNL     1       2.142   8.191  19.006  0.00  0.00    +0.000 A 
ATOM      6  C   UNL     1       2.074   7.105  19.885  0.00  0.00    +0.000 A 
ATOM      7  C   UNL     1       1.261   7.524  20.980  0.00  0.00    +0.000 A 
ATOM      8  C   UNL     1       0.852   8.815  20.745  0.00  0.00    +0.000 A 
ATOM      9  N   UNL     1       1.360   9.202  19.533  0.00  0.00    +0.000 N 
ENDROOT
BRANCH   1  10
ATOM     10  C   UNL     1       2.703   4.685  20.490  0.00  0.00    +0.000 C 
BRANCH  10  12
ATOM     11  C   UNL     1       1.178   2.745  19.959  0.00  0.00    +0.000 C 
ATOM     12  C   UNL     1       1.300   4.089  20.663  0.00  0.00    +0.000 C 
ENDBRANCH  10  12
ENDBRANCH   1  10
BRANCH   2  13
ATOM     13  O   UNL     1       4.033   4.621  18.045  0.00  0.00    +0.000 OA
BRANCH  13  14
ATOM     14  C   UNL     1       4.318   4.274  16.687  0.00  0.00    +0.000 C 
BRANCH  14  15
ATOM     15  C   UNL     1       5.820   4.273  16.400  0.00  0.00    +0.000 C 
BRANCH  15  16
ATOM     16  O   UNL     1       6.550   4.385  17.633  0.00  0.00    +0.000 OA
BRANCH  16  17
ATOM     17  C   UNL     1       7.109   5.613  17.860  0.00  0.00    +0.000 A 
ATOM     18  C   UNL     1       7.892   5.941  18.966  0.00  0.00    +0.000 A 
ATOM     19  C   UNL     1       8.392   7.238  19.116  0.00  0.00    +0.000 A 
ATOM     20  C   UNL     1       8.127   8.223  18.158  0.00  0.00    +0.000 A 
ATOM     21  C   UNL     1       7.380   7.874  17.026  0.00  0.00    +0.000 A 
ATOM     22  C   UNL     1       6.881   6.576  16.874  0.00  0.00    +0.000 A 
BRANCH  20  23
ATOM     23  C   UNL     1       8.620   9.580  18.359  0.00  0.00    +0.000 A 
ATOM     24  N   UNL     1       9.466   9.914  19.394  0.00  0.00    +0.000 NA
ATOM     25  N   UNL     1       9.687  11.217  19.305  0.00  0.00    +0.000 NA
ATOM     26  N   UNL     1       8.980  11.601  18.238  0.00  0.00    +0.000 N 
ATOM     27  N   UNL     1       8.291  10.642  17.605  0.00  0.00    +0.000 NA
ATOM     28  H   UNL     1       8.963  12.573  17.932  0.00  0.00    +0.000 HD
ENDBRANCH  20  23
ENDBRANCH  16  17
ENDBRANCH  15  16
ENDBRANCH  14  15
ENDBRANCH  13  14
ENDBRANCH   2  13
BRANCH   9  29
ATOM     29  C   UNL     1       1.176  10.524  18.953  0.00  0.00    +0.000 C 
BRANCH  29  30
ATOM     30  C   UNL     1      -0.288  11.013  18.782  0.00  0.00    +0.000 C 
ATOM     31  C   UNL     1      -0.325  12.447  18.223  0.00  0.00    +0.000 C 
ATOM     32  C   UNL     1      -0.985  10.055  17.793  0.00  0.00    +0.000 C 
ATOM     33  C   UNL     1      -1.079  10.983  20.101  0.00  0.00    +0.000 C 
ENDBRANCH  29  30
ENDBRANCH   9  29
TORSDOF 10
ENDMDL
MODEL 6
REMARK VINA RESULT:      -7.7      7.674     10.429
REMARK  Name = 
REMARK  14 active torsions:
REMARK  status: ('A' for Active; 'I' for Inactive)
REMARK    1  A    between atoms: C_1  and  C_2
REMARK    2  A    between atoms: C_2  and  C_3
REMARK    3  A    between atoms: C_3  and  C_4
REMARK    4  A    between atoms: C_5  and  O_6
REMARK    5  A    between atoms: O_6  and  C_7
REMARK    6  A    between atoms: C_7  and  C_8
REMARK    7  A    between atoms: C_8  and  O_9
REMARK    8  A    between atoms: O_9  and  C_10
REMARK    9  A    between atoms: C_13  and  C_14
REMARK   10  A    between atoms: N_27  and  C_28
REMARK   11  A    between atoms: C_28  and  C_29
REMARK   12  A    between atoms: C_29  and  C_30
REMARK   13  A    between atoms: C_29  and  C_31
REMARK   14  A    between atoms: C_29  and  C_32
REMARK                            x       y       z     vdW  Elec       q    Type
REMARK                         _______ _______ _______ _____ _____    ______ ____
ROOT
ATOM      1  C   UNL     1       1.467   8.514  20.429  0.00  0.00    +0.000 A 
ATOM      2  C   UNL     1       1.306   9.485  19.406  0.00  0.00    +0.000 A 
ATOM      3  C   UNL     1       1.643   9.188  18.084  0.00  0.00    +0.000 A 
ATOM      4  C   UNL     1       2.186   7.954  17.731  0.00  0.00    +0.000 A 
ATOM      5  C   UNL     1       2.402   7.015  18.742  0.00  0.00    +0.000 A 
ATOM      6  C   UNL     1       2.041   7.261  20.071  0.00  0.00    +0.000 A 
ATOM      7  C   UNL     1       2.371   6.081  20.803  0.00  0.00    +0.000 A 
ATOM      8  C   UNL     1       2.923   5.173  19.931  0.00  0.00    +0.000 A 
ATOM      9  N   UNL     1       2.970   5.756  18.692  0.00  0.00    +0.000 N 
ENDROOT
BRANCH   1  10
ATOM     10  C   UNL     1       1.067   8.830  21.862  0.00  0.00    +0.000 C 
BRANCH  10  12
ATOM     11  C   UNL     1      -0.787  10.105  23.005  0.00  0.00    +0.000 C 
ATOM     12  C   UNL     1      -0.447   8.947  22.078  0.00  0.00    +0.000 C 
ENDBRANCH  10  12
ENDBRANCH   1  10
BRANCH   2  13
ATOM     13  O   UNL     1       0.829  10.705  19.818  0.00  0.00    +0.000 OA
BRANCH  13  14
ATOM     14  C   UNL     1       1.413  11.911  19.317  0.00  0.00    +0.000 C 
BRANCH  14  15
ATOM     15  C   UNL     1       0.386  12.792  18.605  0.00  0.00    +0.000 C 
BRANCH  15  16
ATOM     16  O   UNL     1       0.039  13.907  19.442  0.00  0.00    +0.000 OA
BRANCH  16  17
ATOM     17  C   UNL     1      -0.937  13.651  20.366  0.00  0.00    +0.000 A 
ATOM     18  C   UNL     1      -0.922  14.094  21.688  0.00  0.00    +0.000 A 
ATOM     19  C   UNL     1      -1.959  13.749  22.559  0.00  0.00    +0.000 A 
ATOM     20  C   UNL     1      -3.033  12.967  22.120  0.00  0.00    +0.000 A 
ATOM     21  C   UNL     1      -3.066  12.564  20.779  0.00  0.00    +0.000 A 
ATOM     22  C   UNL     1      -2.028  12.910  19.906  0.00  0.00    +0.000 A 
BRANCH  20  23
ATOM     23  C   UNL     1      -4.080  12.581  23.058  0.00  0.00    +0.000 A 
ATOM     24  N   UNL     1      -5.408  12.880  22.848  0.00  0.00    +0.000 NA
ATOM     25  N   UNL     1      -6.076  12.421  23.896  0.00  0.00    +0.000 NA
ATOM     26  N   UNL     1      -5.137  11.874  24.675  0.00  0.00    +0.000 N 
ATOM     27  N   UNL     1      -3.878  11.940  24.221  0.00  0.00    +0.000 NA
ATOM     28  H   UNL     1      -5.371  11.440  25.566  0.00  0.00    +0.000 HD
ENDBRANCH  20  23
ENDBRANCH  16  17
ENDBRANCH  15  16
ENDBRANCH  14  15
ENDBRANCH  13  14
ENDBRANCH   2  13
BRANCH   9  29
ATOM     29  C   UNL     1       3.456   5.090  17.493  0.00  0.00    +0.000 C 
BRANCH  29  30
ATOM     30  C   UNL     1       4.918   5.398  17.068  0.00  0.00    +0.000 C 
ATOM     31  C   UNL     1       4.980   6.664  16.195  0.00  0.00    +0.000 C 
ATOM     32  C   UNL     1       5.740   5.618  18.355  0.00  0.00    +0.000 C 
ATOM     33  C   UNL     1       5.565   4.238  16.291  0.00  0.00    +0.000 C 
ENDBRANCH  29  30
ENDBRANCH   9  29
TORSDOF 10
ENDMDL
MODEL 7
REMARK VINA RESULT:      -7.7      7.591     10.367
REMARK  Name = 
REMARK  14 active torsions:
REMARK  status: ('A' for Active; 'I' for Inactive)
REMARK    1  A    between atoms: C_1  and  C_2
REMARK    2  A    between atoms: C_2  and  C_3
REMARK    3  A    between atoms: C_3  and  C_4
REMARK    4  A    between atoms: C_5  and  O_6
REMARK    5  A    between atoms: O_6  and  C_7
REMARK    6  A    between atoms: C_7  and  C_8
REMARK    7  A    between atoms: C_8  and  O_9
REMARK    8  A    between atoms: O_9  and  C_10
REMARK    9  A    between atoms: C_13  and  C_14
REMARK   10  A    between atoms: N_27  and  C_28
REMARK   11  A    between atoms: C_28  and  C_29
REMARK   12  A    between atoms: C_29  and  C_30
REMARK   13  A    between atoms: C_29  and  C_31
REMARK   14  A    between atoms: C_29  and  C_32
REMARK                            x       y       z     vdW  Elec       q    Type
REMARK                         _______ _______ _______ _____ _____    ______ ____
ROOT
ATOM      1  C   UNL     1       1.130   8.654  19.885  0.00  0.00    +0.000 A 
ATOM      2  C   UNL     1       1.309   9.677  18.918  0.00  0.00    +0.000 A 
ATOM      3  C   UNL     1       2.067   9.444  17.768  0.00  0.00    +0.000 A 
ATOM      4  C   UNL     1       2.706   8.224  17.553  0.00  0.00    +0.000 A 
ATOM      5  C   UNL     1       2.583   7.233  18.530  0.00  0.00    +0.000 A 
ATOM      6  C   UNL     1       1.800   7.415  19.675  0.00  0.00    +0.000 A 
ATOM      7  C   UNL     1       1.878   6.197  20.414  0.00  0.00    +0.000 A 
ATOM      8  C   UNL     1       2.695   5.330  19.729  0.00  0.00    +0.000 A 
ATOM      9  N   UNL     1       3.146   5.973  18.607  0.00  0.00    +0.000 N 
ENDROOT
BRANCH   1  10
ATOM     10  C   UNL     1       0.275   8.901  21.118  0.00  0.00    +0.000 C 
BRANCH  10  12
ATOM     11  C   UNL     1       0.161   9.521  23.562  0.00  0.00    +0.000 C 
ATOM     12  C   UNL     1       1.073   9.315  22.361  0.00  0.00    +0.000 C 
ENDBRANCH  10  12
ENDBRANCH   1  10
BRANCH   2  13
ATOM     13  O   UNL     1       0.712  10.878  19.208  0.00  0.00    +0.000 OA
BRANCH  13  14
ATOM     14  C   UNL     1       1.419  12.103  18.988  0.00  0.00    +0.000 C 
BRANCH  14  15
ATOM     15  C   UNL     1       1.624  12.886  20.285  0.00  0.00    +0.000 C 
BRANCH  15  16
ATOM     16  O   UNL     1       0.642  13.930  20.383  0.00  0.00    +0.000 OA
BRANCH  16  17
ATOM     17  C   UNL     1      -0.529  13.563  20.988  0.00  0.00    +0.000 A 
ATOM     18  C   UNL     1      -1.778  13.548  20.369  0.00  0.00    +0.000 A 
ATOM     19  C   UNL     1      -2.918  13.182  21.090  0.00  0.00    +0.000 A 
ATOM     20  C   UNL     1      -2.827  12.815  22.437  0.00  0.00    +0.000 A 
ATOM     21  C   UNL     1      -1.563  12.787  23.041  0.00  0.00    +0.000 A 
ATOM     22  C   UNL     1      -0.421  13.151  22.319  0.00  0.00    +0.000 A 
BRANCH  20  23
ATOM     23  C   UNL     1      -4.035  12.483  23.182  0.00  0.00    +0.000 A 
ATOM     24  N   UNL     1      -5.298  12.657  22.657  0.00  0.00    +0.000 NA
ATOM     25  N   UNL     1      -6.158  12.294  23.598  0.00  0.00    +0.000 NA
ATOM     26  N   UNL     1      -5.388  11.922  24.626  0.00  0.00    +0.000 N 
ATOM     27  N   UNL     1      -4.064  12.016  24.440  0.00  0.00    +0.000 NA
ATOM     28  H   UNL     1      -5.792  11.593  25.501  0.00  0.00    +0.000 HD
ENDBRANCH  20  23
ENDBRANCH  16  17
ENDBRANCH  15  16
ENDBRANCH  14  15
ENDBRANCH  13  14
ENDBRANCH   2  13
BRANCH   9  29
ATOM     29  C   UNL     1       4.007   5.364  17.605  0.00  0.00    +0.000 C 
BRANCH  29  30
ATOM     30  C   UNL     1       5.536   5.586  17.771  0.00  0.00    +0.000 C 
ATOM     31  C   UNL     1       5.942   6.988  17.282  0.00  0.00    +0.000 C 
ATOM     32  C   UNL     1       5.866   5.447  19.272  0.00  0.00    +0.000 C 
ATOM     33  C   UNL     1       6.371   4.543  17.008  0.00  0.00    +0.000 C 
ENDBRANCH  29  30
ENDBRANCH   9  29
TORSDOF 10
ENDMDL
MODEL 8
REMARK VINA RESULT:      -7.7      7.043     10.683
REMARK  Name = 
REMARK  14 active torsions:
REMARK  status: ('A' for Active; 'I' for Inactive)
REMARK    1  A    between atoms: C_1  and  C_2
REMARK    2  A    between atoms: C_2  and  C_3
REMARK    3  A    between atoms: C_3  and  C_4
REMARK    4  A    between atoms: C_5  and  O_6
REMARK    5  A    between atoms: O_6  and  C_7
REMARK    6  A    between atoms: C_7  and  C_8
REMARK    7  A    between atoms: C_8  and  O_9
REMARK    8  A    between atoms: O_9  and  C_10
REMARK    9  A    between atoms: C_13  and  C_14
REMARK   10  A    between atoms: N_27  and  C_28
REMARK   11  A    between atoms: C_28  and  C_29
REMARK   12  A    between atoms: C_29  and  C_30
REMARK   13  A    between atoms: C_29  and  C_31
REMARK   14  A    between atoms: C_29  and  C_32
REMARK                            x       y       z     vdW  Elec       q    Type
REMARK                         _______ _______ _______ _____ _____    ______ ____
ROOT
ATOM      1  C   UNL     1       1.424   8.451  20.589  0.00  0.00    +0.000 A 
ATOM      2  C   UNL     1       1.291   9.511  19.655  0.00  0.00    +0.000 A 
ATOM      3  C   UNL     1       1.639   9.325  18.315  0.00  0.00    +0.000 A 
ATOM      4  C   UNL     1       2.165   8.117  17.861  0.00  0.00    +0.000 A 
ATOM      5  C   UNL     1       2.353   7.089  18.787  0.00  0.00    +0.000 A 
ATOM      6  C   UNL     1       1.980   7.224  20.129  0.00  0.00    +0.000 A 
ATOM      7  C   UNL     1       2.282   5.980  20.758  0.00  0.00    +0.000 A 
ATOM      8  C   UNL     1       2.828   5.142  19.816  0.00  0.00    +0.000 A 
ATOM      9  N   UNL     1       2.900   5.829  18.633  0.00  0.00    +0.000 N 
ENDROOT
BRANCH   1  10
ATOM     10  C   UNL     1       1.012   8.648  22.040  0.00  0.00    +0.000 C 
BRANCH  10  12
ATOM     11  C   UNL     1      -0.783  10.018  23.167  0.00  0.00    +0.000 C 
ATOM     12  C   UNL     1      -0.496   8.845  22.242  0.00  0.00    +0.000 C 
ENDBRANCH  10  12
ENDBRANCH   1  10
BRANCH   2  13
ATOM     13  O   UNL     1       0.830  10.698  20.166  0.00  0.00    +0.000 OA
BRANCH  13  14
ATOM     14  C   UNL     1       0.696  11.842  19.317  0.00  0.00    +0.000 C 
BRANCH  14  15
ATOM     15  C   UNL     1      -0.747  12.344  19.257  0.00  0.00    +0.000 C 
BRANCH  15  16
ATOM     16  O   UNL     1      -1.648  11.225  19.202  0.00  0.00    +0.000 OA
BRANCH  16  17
ATOM     17  C   UNL     1      -2.028  10.854  17.941  0.00  0.00    +0.000 A 
ATOM     18  C   UNL     1      -1.606   9.698  17.287  0.00  0.00    +0.000 A 
ATOM     19  C   UNL     1      -2.033   9.429  15.984  0.00  0.00    +0.000 A 
ATOM     20  C   UNL     1      -2.899  10.304  15.319  0.00  0.00    +0.000 A 
ATOM     21  C   UNL     1      -3.358  11.440  15.998  0.00  0.00    +0.000 A 
ATOM     22  C   UNL     1      -2.931  11.709  17.304  0.00  0.00    +0.000 A 
BRANCH  20  23
ATOM     23  C   UNL     1      -3.294  10.026  13.944  0.00  0.00    +0.000 A 
ATOM     24  N   UNL     1      -4.608  10.069  13.529  0.00  0.00    +0.000 NA
ATOM     25  N   UNL     1      -4.617   9.735  12.247  0.00  0.00    +0.000 NA
ATOM     26  N   UNL     1      -3.332   9.514  11.952  0.00  0.00    +0.000 N 
ATOM     27  N   UNL     1      -2.458   9.671  12.955  0.00  0.00    +0.000 NA
ATOM     28  H   UNL     1      -3.041   9.234  11.017  0.00  0.00    +0.000 HD
ENDBRANCH  20  23
ENDBRANCH  16  17
ENDBRANCH  15  16
ENDBRANCH  14  15
ENDBRANCH  13  14
ENDBRANCH   2  13
BRANCH   9  29
ATOM     29  C   UNL     1       3.389   5.262  17.385  0.00  0.00    +0.000 C 
BRANCH  29  30
ATOM     30  C   UNL     1       4.898   5.458  17.074  0.00  0.00    +0.000 C 
ATOM     31  C   UNL     1       5.676   5.837  18.348  0.00  0.00    +0.000 C 
ATOM     32  C   UNL     1       5.437   4.123  16.519  0.00  0.00    +0.000 C 
ATOM     33  C   UNL     1       5.146   6.543  16.011  0.00  0.00    +0.000 C 
ENDBRANCH  29  30
ENDBRANCH   9  29
TORSDOF 10
ENDMDL
MODEL 9
REMARK VINA RESULT:      -7.6      4.368      6.458
REMARK  Name = 
REMARK  14 active torsions:
REMARK  status: ('A' for Active; 'I' for Inactive)
REMARK    1  A    between atoms: C_1  and  C_2
REMARK    2  A    between atoms: C_2  and  C_3
REMARK    3  A    between atoms: C_3  and  C_4
REMARK    4  A    between atoms: C_5  and  O_6
REMARK    5  A    between atoms: O_6  and  C_7
REMARK    6  A    between atoms: C_7  and  C_8
REMARK    7  A    between atoms: C_8  and  O_9
REMARK    8  A    between atoms: O_9  and  C_10
REMARK    9  A    between atoms: C_13  and  C_14
REMARK   10  A    between atoms: N_27  and  C_28
REMARK   11  A    between atoms: C_28  and  C_29
REMARK   12  A    between atoms: C_29  and  C_30
REMARK   13  A    between atoms: C_29  and  C_31
REMARK   14  A    between atoms: C_29  and  C_32
REMARK                            x       y       z     vdW  Elec       q    Type
REMARK                         _______ _______ _______ _____ _____    ______ ____
ROOT
ATOM      1  C   UNL     1       2.126   6.676  19.746  0.00  0.00    +0.000 A 
ATOM      2  C   UNL     1       2.433   6.658  18.361  0.00  0.00    +0.000 A 
ATOM      3  C   UNL     1       2.296   7.813  17.587  0.00  0.00    +0.000 A 
ATOM      4  C   UNL     1       1.815   9.001  18.133  0.00  0.00    +0.000 A 
ATOM      5  C   UNL     1       1.455   9.010  19.482  0.00  0.00    +0.000 A 
ATOM      6  C   UNL     1       1.615   7.885  20.299  0.00  0.00    +0.000 A 
ATOM      7  C   UNL     1       1.184   8.269  21.604  0.00  0.00    +0.000 A 
ATOM      8  C   UNL     1       0.770   9.579  21.552  0.00  0.00    +0.000 A 
ATOM      9  N   UNL     1       0.904  10.012  20.259  0.00  0.00    +0.000 N 
ENDROOT
BRANCH   1  10
ATOM     10  C   UNL     1       2.310   5.425  20.592  0.00  0.00    +0.000 C 
BRANCH  10  12
ATOM     11  C   UNL     1       1.446   3.152  21.265  0.00  0.00    +0.000 C 
ATOM     12  C   UNL     1       1.137   4.440  20.516  0.00  0.00    +0.000 C 
ENDBRANCH  10  12
ENDBRANCH   1  10
BRANCH   2  13
ATOM     13  O   UNL     1       2.841   5.447  17.860  0.00  0.00    +0.000 OA
BRANCH  13  14
ATOM     14  C   UNL     1       4.086   5.340  17.163  0.00  0.00    +0.000 C 
BRANCH  14  15
ATOM     15  C   UNL     1       5.206   4.826  18.069  0.00  0.00    +0.000 C 
BRANCH  15  16
ATOM     16  O   UNL     1       6.477   5.019  17.428  0.00  0.00    +0.000 OA
BRANCH  16  17
ATOM     17  C   UNL     1       7.149   6.146  17.812  0.00  0.00    +0.000 A 
ATOM     18  C   UNL     1       7.975   6.242  18.931  0.00  0.00    +0.000 A 
ATOM     19  C   UNL     1       8.593   7.454  19.250  0.00  0.00    +0.000 A 
ATOM     20  C   UNL     1       8.406   8.586  18.450  0.00  0.00    +0.000 A 
ATOM     21  C   UNL     1       7.613   8.472  17.300  0.00  0.00    +0.000 A 
ATOM     22  C   UNL     1       6.995   7.258  16.980  0.00  0.00    +0.000 A 
BRANCH  20  23
ATOM     23  C   UNL     1       9.023   9.852  18.828  0.00  0.00    +0.000 A 
ATOM     24  N   UNL     1       9.592  10.702  17.905  0.00  0.00    +0.000 NA
ATOM     25  N   UNL     1      10.085  11.729  18.582  0.00  0.00    +0.000 NA
ATOM     26  N   UNL     1       9.793  11.457  19.857  0.00  0.00    +0.000 N 
ATOM     27  N   UNL     1       9.140  10.310  20.085  0.00  0.00    +0.000 NA
ATOM     28  H   UNL     1      10.062  12.088  20.611  0.00  0.00    +0.000 HD
ENDBRANCH  20  23
ENDBRANCH  16  17
ENDBRANCH  15  16
ENDBRANCH  14  15
ENDBRANCH  13  14
ENDBRANCH   2  13
BRANCH   9  29
ATOM     29  C   UNL     1       0.602  11.364  19.814  0.00  0.00    +0.000 C 
BRANCH  29  30
ATOM     30  C   UNL     1      -0.864  11.646  19.385  0.00  0.00    +0.000 C 
ATOM     31  C   UNL     1      -0.913  12.686  18.252  0.00  0.00    +0.000 C 
ATOM     32  C   UNL     1      -1.468  10.315  18.891  0.00  0.00    +0.000 C 
ATOM     33  C   UNL     1      -1.733  12.152  20.550  0.00  0.00    +0.000 C 
ENDBRANCH  29  30
ENDBRANCH   9  29
TORSDOF 10
ENDMDL
