MODEL 1
REMARK VINA RESULT:      -9.6      0.000      0.000
REMARK  Name = 
REMARK  7 active torsions:
REMARK  status: ('A' for Active; 'I' for Inactive)
REMARK    1  A    between atoms: C_1  and  N_2
REMARK    2  A    between atoms: N_2  and  C_3
REMARK    3  A    between atoms: N_2  and  S_4
REMARK    4  A    between atoms: S_4  and  N_7
REMARK    5  A    between atoms: C_10  and  C_11
REMARK    6  A    between atoms: N_16  and  C_17
REMARK    7  A    between atoms: C_17  and  C_18
REMARK                            x       y       z     vdW  Elec       q    Type
REMARK                         _______ _______ _______ _____ _____    ______ ____
ROOT
ATOM      1  C   UNL     1       3.464   5.406  17.672  0.00  0.00    +0.000 C 
ATOM      2  C   UNL     1       5.087   5.525  17.837  0.00  0.00    +0.000 A 
ATOM      3  C   UNL     1       5.564   4.996  19.065  0.00  0.00    +0.000 A 
ATOM      4  N   UNL     1       6.894   4.706  19.063  0.00  0.00    +0.000 NA
ATOM      5  C   UNL     1       7.160   4.633  17.814  0.00  0.00    +0.000 A 
ATOM      6  N   UNL     1       6.204   5.298  17.009  0.00  0.00    +0.000 N 
ATOM      7  C   UNL     1       4.705   4.030  19.781  0.00  0.00    +0.000 C 
ATOM      8  C   UNL     1       4.192   3.128  18.618  0.00  0.00    +0.000 C 
ATOM      9  C   UNL     1       3.628   1.862  19.139  0.00  0.00    +0.000 C 
ATOM     10  O   UNL     1       2.225   2.045  19.113  0.00  0.00    +0.000 OA
ATOM     11  C   UNL     1       1.871   3.129  18.331  0.00  0.00    +0.000 C 
ATOM     12  O   UNL     1       0.705   3.314  18.014  0.00  0.00    +0.000 OA
ATOM     13  C   UNL     1       3.120   3.830  17.759  0.00  0.00    +0.000 C 
ENDROOT
BRANCH   1  17
ATOM     14  N   UNL     1       1.631   7.416  20.268  0.00  0.00    +0.000 N 
ATOM     15  C   UNL     1       1.646   6.159  20.747  0.00  0.00    +0.000 A 
ATOM     16  N   UNL     1       2.261   5.372  19.900  0.00  0.00    +0.000 NA
ATOM     17  C   UNL     1       2.675   6.134  18.815  0.00  0.00    +0.000 A 
ATOM     18  C   UNL     1       2.298   7.454  19.058  0.00  0.00    +0.000 A 
BRANCH  14  19
ATOM     19  S   UNL     1       0.926   8.710  21.123  0.00  0.00    +0.000 S 
ATOM     20  O   UNL     1       1.886   8.998  22.198  0.00  0.00    +0.000 OA
ATOM     21  O   UNL     1      -0.402   8.279  21.428  0.00  0.00    +0.000 OA
BRANCH  19  23
ATOM     22  C   UNL     1      -0.331  10.145  19.229  0.00  0.00    +0.000 C 
ATOM     23  N   UNL     1       0.821  10.121  20.162  0.00  0.00    +0.000 NA
ATOM     24  C   UNL     1       0.854  11.375  20.970  0.00  0.00    +0.000 C 
ENDBRANCH  19  23
ENDBRANCH  14  19
ENDBRANCH   1  17
BRANCH   6  25
ATOM     25  C   UNL     1       6.849   5.650  15.734  0.00  0.00    +0.000 C 
BRANCH  25  26
ATOM     26  C   UNL     1       6.915   4.873  14.463  0.00  0.00    +0.000 A 
ATOM     27  C   UNL     1       5.961   3.914  14.142  0.00  0.00    +0.000 A 
ATOM     28  C   UNL     1       5.888   3.411  12.841  0.00  0.00    +0.000 A 
ATOM     29  C   UNL     1       6.748   3.876  11.842  0.00  0.00    +0.000 A 
ATOM     30  C   UNL     1       7.673   4.871  12.130  0.00  0.00    +0.000 A 
ATOM     31  C   UNL     1       7.748   5.373  13.427  0.00  0.00    +0.000 A 
ENDBRANCH  25  26
ENDBRANCH   6  25
TORSDOF 5
ENDMDL
MODEL 2
REMARK VINA RESULT:      -9.5      0.863      1.388
REMARK  Name = 
REMARK  7 active torsions:
REMARK  status: ('A' for Active; 'I' for Inactive)
REMARK    1  A    between atoms: C_1  and  N_2
REMARK    2  A    between atoms: N_2  and  C_3
REMARK    3  A    between atoms: N_2  and  S_4
REMARK    4  A    between atoms: S_4  and  N_7
REMARK    5  A    between atoms: C_10  and  C_11
REMARK    6  A    between atoms: N_16  and  C_17
REMARK    7  A    between atoms: C_17  and  C_18
REMARK                            x       y       z     vdW  Elec       q    Type
REMARK                         _______ _______ _______ _____ _____    ______ ____
ROOT
ATOM      1  C   UNL     1       3.841   5.749  17.273  0.00  0.00    +0.000 C 
ATOM      2  C   UNL     1       5.451   5.758  17.563  0.00  0.00    +0.000 A 
ATOM      3  C   UNL     1       5.777   5.473  18.915  0.00  0.00    +0.000 A 
ATOM      4  N   UNL     1       7.064   5.074  19.102  0.00  0.00    +0.000 NA
ATOM      5  C   UNL     1       7.413   4.704  17.927  0.00  0.00    +0.000 A 
ATOM      6  N   UNL     1       6.595   5.257  16.912  0.00  0.00    +0.000 N 
ATOM      7  C   UNL     1       4.769   4.768  19.734  0.00  0.00    +0.000 C 
ATOM      8  C   UNL     1       4.250   3.681  18.747  0.00  0.00    +0.000 C 
ATOM      9  C   UNL     1       3.517   2.616  19.468  0.00  0.00    +0.000 C 
ATOM     10  O   UNL     1       2.148   2.911  19.270  0.00  0.00    +0.000 OA
ATOM     11  C   UNL     1       1.969   3.823  18.246  0.00  0.00    +0.000 C 
ATOM     12  O   UNL     1       0.857   4.036  17.788  0.00  0.00    +0.000 OA
ATOM     13  C   UNL     1       3.325   4.268  17.660  0.00  0.00    +0.000 C 
ENDROOT
BRANCH   1  17
ATOM     14  N   UNL     1       1.903   7.991  19.588  0.00  0.00    +0.000 N 
ATOM     15  C   UNL     1       2.138   8.738  18.494  0.00  0.00    +0.000 A 
ATOM     16  N   UNL     1       2.824   8.041  17.623  0.00  0.00    +0.000 NA
ATOM     17  C   UNL     1       3.052   6.778  18.155  0.00  0.00    +0.000 A 
ATOM     18  C   UNL     1       2.439   6.730  19.406  0.00  0.00    +0.000 A 
BRANCH  14  19
ATOM     19  S   UNL     1       1.017   8.577  20.919  0.00  0.00    +0.000 S 
ATOM     20  O   UNL     1       2.021   8.734  21.981  0.00  0.00    +0.000 OA
ATOM     21  O   UNL     1      -0.072   7.663  21.076  0.00  0.00    +0.000 OA
BRANCH  19  23
ATOM     22  C   UNL     1      -0.747  10.150  19.639  0.00  0.00    +0.000 C 
ATOM     23  N   UNL     1       0.368  10.130  20.615  0.00  0.00    +0.000 NA
ATOM     24  C   UNL     1      -0.027  10.846  21.863  0.00  0.00    +0.000 C 
ENDBRANCH  19  23
ENDBRANCH  14  19
ENDBRANCH   1  17
BRANCH   6  25
ATOM     25  C   UNL     1       7.366   5.261  15.658  0.00  0.00    +0.000 C 
BRANCH  25  26
ATOM     26  C   UNL     1       6.933   4.882  14.283  0.00  0.00    +0.000 A 
ATOM     27  C   UNL     1       7.755   5.074  13.178  0.00  0.00    +0.000 A 
ATOM     28  C   UNL     1       7.445   4.459  11.963  0.00  0.00    +0.000 A 
ATOM     29  C   UNL     1       6.327   3.629  11.842  0.00  0.00    +0.000 A 
ATOM     30  C   UNL     1       5.522   3.384  12.947  0.00  0.00    +0.000 A 
ATOM     31  C   UNL     1       5.830   3.995  14.160  0.00  0.00    +0.000 A 
ENDBRANCH  25  26
ENDBRANCH   6  25
TORSDOF 5
ENDMDL
MODEL 3
REMARK VINA RESULT:      -9.1      1.394      1.848
REMARK  Name = 
REMARK  7 active torsions:
REMARK  status: ('A' for Active; 'I' for Inactive)
REMARK    1  A    between atoms: C_1  and  N_2
REMARK    2  A    between atoms: N_2  and  C_3
REMARK    3  A    between atoms: N_2  and  S_4
REMARK    4  A    between atoms: S_4  and  N_7
REMARK    5  A    between atoms: C_10  and  C_11
REMARK    6  A    between atoms: N_16  and  C_17
REMARK    7  A    between atoms: C_17  and  C_18
REMARK                            x       y       z     vdW  Elec       q    Type
REMARK                         _______ _______ _______ _____ _____    ______ ____
ROOT
ATOM      1  C   UNL     1       3.898   5.644  17.110  0.00  0.00    +0.000 C 
ATOM      2  C   UNL     1       5.500   5.715  17.435  0.00  0.00    +0.000 A 
ATOM      3  C   UNL     1       5.796   5.589  18.817  0.00  0.00    +0.000 A 
ATOM      4  N   UNL     1       7.084   5.237  19.077  0.00  0.00    +0.000 NA
ATOM      5  C   UNL     1       7.468   4.745  17.960  0.00  0.00    +0.000 A 
ATOM      6  N   UNL     1       6.668   5.166  16.871  0.00  0.00    +0.000 N 
ATOM      7  C   UNL     1       4.779   4.961  19.686  0.00  0.00    +0.000 C 
ATOM      8  C   UNL     1       4.302   3.762  18.815  0.00  0.00    +0.000 C 
ATOM      9  C   UNL     1       3.568   2.771  19.633  0.00  0.00    +0.000 C 
ATOM     10  O   UNL     1       2.199   3.017  19.372  0.00  0.00    +0.000 OA
ATOM     11  C   UNL     1       2.033   3.805  18.248  0.00  0.00    +0.000 C 
ATOM     12  O   UNL     1       0.929   3.945  17.743  0.00  0.00    +0.000 OA
ATOM     13  C   UNL     1       3.396   4.207  17.648  0.00  0.00    +0.000 C 
ENDROOT
BRANCH   1  17
ATOM     14  N   UNL     1       1.951   8.474  18.641  0.00  0.00    +0.000 N 
ATOM     15  C   UNL     1       2.075   7.563  19.624  0.00  0.00    +0.000 A 
ATOM     16  N   UNL     1       2.737   6.523  19.182  0.00  0.00    +0.000 NA
ATOM     17  C   UNL     1       3.072   6.751  17.852  0.00  0.00    +0.000 A 
ATOM     18  C   UNL     1       2.594   8.015  17.507  0.00  0.00    +0.000 A 
BRANCH  14  19
ATOM     19  S   UNL     1       1.158   9.964  18.872  0.00  0.00    +0.000 S 
ATOM     20  O   UNL     1      -0.178   9.755  18.298  0.00  0.00    +0.000 OA
ATOM     21  O   UNL     1       2.041  10.946  18.326  0.00  0.00    +0.000 OA
BRANCH  19  23
ATOM     22  C   UNL     1       1.095  11.742  20.887  0.00  0.00    +0.000 C 
ATOM     23  N   UNL     1       0.936  10.312  20.532  0.00  0.00    +0.000 NA
ATOM     24  C   UNL     1      -0.357   9.790  21.064  0.00  0.00    +0.000 C 
ENDBRANCH  19  23
ENDBRANCH  14  19
ENDBRANCH   1  17
BRANCH   6  25
ATOM     25  C   UNL     1       7.470   5.044  15.643  0.00  0.00    +0.000 C 
BRANCH  25  26
ATOM     26  C   UNL     1       7.023   4.775  14.246  0.00  0.00    +0.000 A 
ATOM     27  C   UNL     1       7.828   5.068  13.151  0.00  0.00    +0.000 A 
ATOM     28  C   UNL     1       7.509   4.552  11.893  0.00  0.00    +0.000 A 
ATOM     29  C   UNL     1       6.400   3.720  11.718  0.00  0.00    +0.000 A 
ATOM     30  C   UNL     1       5.612   3.374  12.808  0.00  0.00    +0.000 A 
ATOM     31  C   UNL     1       5.929   3.887  14.063  0.00  0.00    +0.000 A 
ENDBRANCH  25  26
ENDBRANCH   6  25
TORSDOF 5
ENDMDL
MODEL 4
REMARK VINA RESULT:      -9.0      1.242      1.696
REMARK  Name = 
REMARK  7 active torsions:
REMARK  status: ('A' for Active; 'I' for Inactive)
REMARK    1  A    between atoms: C_1  and  N_2
REMARK    2  A    between atoms: N_2  and  C_3
REMARK    3  A    between atoms: N_2  and  S_4
REMARK    4  A    between atoms: S_4  and  N_7
REMARK    5  A    between atoms: C_10  and  C_11
REMARK    6  A    between atoms: N_16  and  C_17
REMARK    7  A    between atoms: C_17  and  C_18
REMARK                            x       y       z     vdW  Elec       q    Type
REMARK                         _______ _______ _______ _____ _____    ______ ____
ROOT
ATOM      1  C   UNL     1       3.833   5.692  17.240  0.00  0.00    +0.000 C 
ATOM      2  C   UNL     1       5.437   5.738  17.557  0.00  0.00    +0.000 A 
ATOM      3  C   UNL     1       5.743   5.515  18.924  0.00  0.00    +0.000 A 
ATOM      4  N   UNL     1       7.032   5.144  19.150  0.00  0.00    +0.000 NA
ATOM      5  C   UNL     1       7.407   4.731  17.998  0.00  0.00    +0.000 A 
ATOM      6  N   UNL     1       6.600   5.229  16.947  0.00  0.00    +0.000 N 
ATOM      7  C   UNL     1       4.731   4.828  19.755  0.00  0.00    +0.000 C 
ATOM      8  C   UNL     1       4.246   3.694  18.804  0.00  0.00    +0.000 C 
ATOM      9  C   UNL     1       3.516   2.647  19.556  0.00  0.00    +0.000 C 
ATOM     10  O   UNL     1       2.146   2.913  19.323  0.00  0.00    +0.000 OA
ATOM     11  C   UNL     1       1.973   3.779  18.259  0.00  0.00    +0.000 C 
ATOM     12  O   UNL     1       0.865   3.955  17.773  0.00  0.00    +0.000 OA
ATOM     13  C   UNL     1       3.332   4.220  17.678  0.00  0.00    +0.000 C 
ENDROOT
BRANCH   1  17
ATOM     14  N   UNL     1       1.927   8.418  18.995  0.00  0.00    +0.000 N 
ATOM     15  C   UNL     1       1.939   7.387  19.860  0.00  0.00    +0.000 A 
ATOM     16  N   UNL     1       2.578   6.374  19.331  0.00  0.00    +0.000 NA
ATOM     17  C   UNL     1       3.013   6.744  18.064  0.00  0.00    +0.000 A 
ATOM     18  C   UNL     1       2.623   8.066  17.854  0.00  0.00    +0.000 A 
BRANCH  14  19
ATOM     19  S   UNL     1       1.196   9.911  19.364  0.00  0.00    +0.000 S 
ATOM     20  O   UNL     1       1.766  10.845  18.383  0.00  0.00    +0.000 OA
ATOM     21  O   UNL     1       1.416  10.100  20.764  0.00  0.00    +0.000 OA
BRANCH  19  23
ATOM     22  C   UNL     1      -1.260  10.893  19.845  0.00  0.00    +0.000 C 
ATOM     23  N   UNL     1      -0.492   9.873  19.091  0.00  0.00    +0.000 NA
ATOM     24  C   UNL     1      -0.844   9.932  17.642  0.00  0.00    +0.000 C 
ENDBRANCH  19  23
ENDBRANCH  14  19
ENDBRANCH   1  17
BRANCH   6  25
ATOM     25  C   UNL     1       7.393   5.193  15.708  0.00  0.00    +0.000 C 
BRANCH  25  26
ATOM     26  C   UNL     1       6.960   4.866  14.319  0.00  0.00    +0.000 A 
ATOM     27  C   UNL     1       7.771   5.123  13.220  0.00  0.00    +0.000 A 
ATOM     28  C   UNL     1       7.467   4.557  11.980  0.00  0.00    +0.000 A 
ATOM     29  C   UNL     1       6.366   3.710  11.828  0.00  0.00    +0.000 A 
ATOM     30  C   UNL     1       5.572   3.400  12.925  0.00  0.00    +0.000 A 
ATOM     31  C   UNL     1       5.874   3.964  14.162  0.00  0.00    +0.000 A 
ENDBRANCH  25  26
ENDBRANCH   6  25
TORSDOF 5
ENDMDL
MODEL 5
REMARK VINA RESULT:      -8.9      1.247      1.561
REMARK  Name = 
REMARK  7 active torsions:
REMARK  status: ('A' for Active; 'I' for Inactive)
REMARK    1  A    between atoms: C_1  and  N_2
REMARK    2  A    between atoms: N_2  and  C_3
REMARK    3  A    between atoms: N_2  and  S_4
REMARK    4  A    between atoms: S_4  and  N_7
REMARK    5  A    between atoms: C_10  and  C_11
REMARK    6  A    between atoms: N_16  and  C_17
REMARK    7  A    between atoms: C_17  and  C_18
REMARK                            x       y       z     vdW  Elec       q    Type
REMARK                         _______ _______ _______ _____ _____    ______ ____
ROOT
ATOM      1  C   UNL     1       3.767   5.714  17.230  0.00  0.00    +0.000 C 
ATOM      2  C   UNL     1       5.370   5.781  17.549  0.00  0.00    +0.000 A 
ATOM      3  C   UNL     1       5.679   5.543  18.913  0.00  0.00    +0.000 A 
ATOM      4  N   UNL     1       6.974   5.190  19.135  0.00  0.00    +0.000 NA
ATOM      5  C   UNL     1       7.357   4.801  17.977  0.00  0.00    +0.000 A 
ATOM      6  N   UNL     1       6.542   5.301  16.933  0.00  0.00    +0.000 N 
ATOM      7  C   UNL     1       4.679   4.827  19.733  0.00  0.00    +0.000 C 
ATOM      8  C   UNL     1       4.212   3.699  18.765  0.00  0.00    +0.000 C 
ATOM      9  C   UNL     1       3.500   2.630  19.501  0.00  0.00    +0.000 C 
ATOM     10  O   UNL     1       2.126   2.876  19.270  0.00  0.00    +0.000 OA
ATOM     11  C   UNL     1       1.939   3.755  18.220  0.00  0.00    +0.000 C 
ATOM     12  O   UNL     1       0.829   3.920  17.735  0.00  0.00    +0.000 OA
ATOM     13  C   UNL     1       3.291   4.228  17.647  0.00  0.00    +0.000 C 
ENDROOT
BRANCH   1  17
ATOM     14  N   UNL     1       1.745   8.350  18.993  0.00  0.00    +0.000 N 
ATOM     15  C   UNL     1       2.079   7.467  19.951  0.00  0.00    +0.000 A 
ATOM     16  N   UNL     1       2.785   6.494  19.430  0.00  0.00    +0.000 NA
ATOM     17  C   UNL     1       2.930   6.740  18.070  0.00  0.00    +0.000 A 
ATOM     18  C   UNL     1       2.288   7.945  17.788  0.00  0.00    +0.000 A 
BRANCH  14  19
ATOM     19  S   UNL     1       0.841   9.755  19.321  0.00  0.00    +0.000 S 
ATOM     20  O   UNL     1       0.280   9.519  20.659  0.00  0.00    +0.000 OA
ATOM     21  O   UNL     1      -0.017   9.922  18.190  0.00  0.00    +0.000 OA
BRANCH  19  23
ATOM     22  C   UNL     1       2.240  11.722  18.137  0.00  0.00    +0.000 C 
ATOM     23  N   UNL     1       1.841  11.138  19.440  0.00  0.00    +0.000 NA
ATOM     24  C   UNL     1       1.264  12.194  20.321  0.00  0.00    +0.000 C 
ENDBRANCH  19  23
ENDBRANCH  14  19
ENDBRANCH   1  17
BRANCH   6  25
ATOM     25  C   UNL     1       7.336   5.296  15.694  0.00  0.00    +0.000 C 
BRANCH  25  26
ATOM     26  C   UNL     1       6.929   4.908  14.313  0.00  0.00    +0.000 A 
ATOM     27  C   UNL     1       7.779   5.074  13.225  0.00  0.00    +0.000 A 
ATOM     28  C   UNL     1       7.488   4.450  12.011  0.00  0.00    +0.000 A 
ATOM     29  C   UNL     1       6.361   3.635  11.874  0.00  0.00    +0.000 A 
ATOM     30  C   UNL     1       5.527   3.414  12.962  0.00  0.00    +0.000 A 
ATOM     31  C   UNL     1       5.816   4.036  14.174  0.00  0.00    +0.000 A 
ENDBRANCH  25  26
ENDBRANCH   6  25
TORSDOF 5
ENDMDL
MODEL 6
REMARK VINA RESULT:      -8.8      0.851      1.242
REMARK  Name = 
REMARK  7 active torsions:
REMARK  status: ('A' for Active; 'I' for Inactive)
REMARK    1  A    between atoms: C_1  and  N_2
REMARK    2  A    between atoms: N_2  and  C_3
REMARK    3  A    between atoms: N_2  and  S_4
REMARK    4  A    between atoms: S_4  and  N_7
REMARK    5  A    between atoms: C_10  and  C_11
REMARK    6  A    between atoms: N_16  and  C_17
REMARK    7  A    between atoms: C_17  and  C_18
REMARK                            x       y       z     vdW  Elec       q    Type
REMARK                         _______ _______ _______ _____ _____    ______ ____
ROOT
ATOM      1  C   UNL     1       3.779   5.871  17.385  0.00  0.00    +0.000 C 
ATOM      2  C   UNL     1       5.388   5.910  17.677  0.00  0.00    +0.000 A 
ATOM      3  C   UNL     1       5.717   5.640  19.031  0.00  0.00    +0.000 A 
ATOM      4  N   UNL     1       7.010   5.265  19.222  0.00  0.00    +0.000 NA
ATOM      5  C   UNL     1       7.367   4.893  18.051  0.00  0.00    +0.000 A 
ATOM      6  N   UNL     1       6.542   5.425  17.031  0.00  0.00    +0.000 N 
ATOM      7  C   UNL     1       4.720   4.923  19.854  0.00  0.00    +0.000 C 
ATOM      8  C   UNL     1       4.220   3.821  18.873  0.00  0.00    +0.000 C 
ATOM      9  C   UNL     1       3.505   2.748  19.600  0.00  0.00    +0.000 C 
ATOM     10  O   UNL     1       2.131   3.018  19.398  0.00  0.00    +0.000 OA
ATOM     11  C   UNL     1       1.939   3.920  18.368  0.00  0.00    +0.000 C 
ATOM     12  O   UNL     1       0.823   4.111  17.906  0.00  0.00    +0.000 OA
ATOM     13  C   UNL     1       3.288   4.385  17.781  0.00  0.00    +0.000 C 
ENDROOT
BRANCH   1  17
ATOM     14  N   UNL     1       1.775   8.089  19.667  0.00  0.00    +0.000 N 
ATOM     15  C   UNL     1       2.106   8.870  18.623  0.00  0.00    +0.000 A 
ATOM     16  N   UNL     1       2.821   8.184  17.767  0.00  0.00    +0.000 NA
ATOM     17  C   UNL     1       2.971   6.893  18.258  0.00  0.00    +0.000 A 
ATOM     18  C   UNL     1       2.278   6.818  19.465  0.00  0.00    +0.000 A 
BRANCH  14  19
ATOM     19  S   UNL     1       0.825   8.653  20.964  0.00  0.00    +0.000 S 
ATOM     20  O   UNL     1       1.798   8.927  22.031  0.00  0.00    +0.000 OA
ATOM     21  O   UNL     1      -0.192   7.664  21.141  0.00  0.00    +0.000 OA
BRANCH  19  23
ATOM     22  C   UNL     1       0.991  11.289  20.463  0.00  0.00    +0.000 C 
ATOM     23  N   UNL     1       0.065  10.139  20.592  0.00  0.00    +0.000 NA
ATOM     24  C   UNL     1      -0.818  10.053  19.392  0.00  0.00    +0.000 C 
ENDBRANCH  19  23
ENDBRANCH  14  19
ENDBRANCH   1  17
BRANCH   6  25
ATOM     25  C   UNL     1       7.314   5.433  15.778  0.00  0.00    +0.000 C 
BRANCH  25  26
ATOM     26  C   UNL     1       7.062   4.694  14.509  0.00  0.00    +0.000 A 
ATOM     27  C   UNL     1       5.936   3.896  14.338  0.00  0.00    +0.000 A 
ATOM     28  C   UNL     1       5.584   3.451  13.062  0.00  0.00    +0.000 A 
ATOM     29  C   UNL     1       6.335   3.814  11.941  0.00  0.00    +0.000 A 
ATOM     30  C   UNL     1       7.434   4.651  12.084  0.00  0.00    +0.000 A 
ATOM     31  C   UNL     1       7.787   5.097  13.355  0.00  0.00    +0.000 A 
ENDBRANCH  25  26
ENDBRANCH   6  25
TORSDOF 5
ENDMDL
MODEL 7
REMARK VINA RESULT:      -8.3      1.091      1.598
REMARK  Name = 
REMARK  7 active torsions:
REMARK  status: ('A' for Active; 'I' for Inactive)
REMARK    1  A    between atoms: C_1  and  N_2
REMARK    2  A    between atoms: N_2  and  C_3
REMARK    3  A    between atoms: N_2  and  S_4
REMARK    4  A    between atoms: S_4  and  N_7
REMARK    5  A    between atoms: C_10  and  C_11
REMARK    6  A    between atoms: N_16  and  C_17
REMARK    7  A    between atoms: C_17  and  C_18
REMARK                            x       y       z     vdW  Elec       q    Type
REMARK                         _______ _______ _______ _____ _____    ______ ____
ROOT
ATOM      1  C   UNL     1       3.586   5.540  17.469  0.00  0.00    +0.000 C 
ATOM      2  C   UNL     1       5.201   5.653  17.707  0.00  0.00    +0.000 A 
ATOM      3  C   UNL     1       5.604   5.247  19.005  0.00  0.00    +0.000 A 
ATOM      4  N   UNL     1       6.926   4.941  19.104  0.00  0.00    +0.000 NA
ATOM      5  C   UNL     1       7.255   4.736  17.885  0.00  0.00    +0.000 A 
ATOM      6  N   UNL     1       6.354   5.328  16.967  0.00  0.00    +0.000 N 
ATOM      7  C   UNL     1       4.691   4.371  19.770  0.00  0.00    +0.000 C 
ATOM      8  C   UNL     1       4.221   3.362  18.680  0.00  0.00    +0.000 C 
ATOM      9  C   UNL     1       3.607   2.164  19.296  0.00  0.00    +0.000 C 
ATOM     10  O   UNL     1       2.211   2.362  19.177  0.00  0.00    +0.000 OA
ATOM     11  C   UNL     1       1.918   3.365  18.272  0.00  0.00    +0.000 C 
ATOM     12  O   UNL     1       0.774   3.533  17.876  0.00  0.00    +0.000 OA
ATOM     13  C   UNL     1       3.208   3.987  17.698  0.00  0.00    +0.000 C 
ENDROOT
BRANCH   1  17
ATOM     14  N   UNL     1       1.639   7.827  19.732  0.00  0.00    +0.000 N 
ATOM     15  C   UNL     1       1.700   6.655  20.389  0.00  0.00    +0.000 A 
ATOM     16  N   UNL     1       2.357   5.779  19.670  0.00  0.00    +0.000 NA
ATOM     17  C   UNL     1       2.754   6.393  18.488  0.00  0.00    +0.000 A 
ATOM     18  C   UNL     1       2.319   7.717  18.534  0.00  0.00    +0.000 A 
BRANCH  14  19
ATOM     19  S   UNL     1       0.872   9.200  20.385  0.00  0.00    +0.000 S 
ATOM     20  O   UNL     1      -0.477   9.172  19.801  0.00  0.00    +0.000 OA
ATOM     21  O   UNL     1       1.759  10.289  20.117  0.00  0.00    +0.000 OA
BRANCH  19  23
ATOM     22  C   UNL     1       1.897   9.403  22.862  0.00  0.00    +0.000 C 
ATOM     23  N   UNL     1       0.681   9.073  22.080  0.00  0.00    +0.000 NA
ATOM     24  C   UNL     1      -0.485   9.851  22.591  0.00  0.00    +0.000 C 
ENDBRANCH  19  23
ENDBRANCH  14  19
ENDBRANCH   1  17
BRANCH   6  25
ATOM     25  C   UNL     1       7.070   5.538  15.698  0.00  0.00    +0.000 C 
BRANCH  25  26
ATOM     26  C   UNL     1       6.746   5.027  14.336  0.00  0.00    +0.000 A 
ATOM     27  C   UNL     1       7.657   5.106  13.289  0.00  0.00    +0.000 A 
ATOM     28  C   UNL     1       7.440   4.375  12.118  0.00  0.00    +0.000 A 
ATOM     29  C   UNL     1       6.327   3.540  11.988  0.00  0.00    +0.000 A 
ATOM     30  C   UNL     1       5.432   3.408  13.041  0.00  0.00    +0.000 A 
ATOM     31  C   UNL     1       5.647   4.136  14.209  0.00  0.00    +0.000 A 
ENDBRANCH  25  26
ENDBRANCH   6  25
TORSDOF 5
ENDMDL
MODEL 8
REMARK VINA RESULT:      -8.2      5.380      8.121
REMARK  Name = 
REMARK  7 active torsions:
REMARK  status: ('A' for Active; 'I' for Inactive)
REMARK    1  A    between atoms: C_1  and  N_2
REMARK    2  A    between atoms: N_2  and  C_3
REMARK    3  A    between atoms: N_2  and  S_4
REMARK    4  A    between atoms: S_4  and  N_7
REMARK    5  A    between atoms: C_10  and  C_11
REMARK    6  A    between atoms: N_16  and  C_17
REMARK    7  A    between atoms: C_17  and  C_18
REMARK                            x       y       z     vdW  Elec       q    Type
REMARK                         _______ _______ _______ _____ _____    ______ ____
ROOT
ATOM      1  C   UNL     1       0.928  10.813  21.125  0.00  0.00    +0.000 C 
ATOM      2  C   UNL     1       0.733   9.764  19.885  0.00  0.00    +0.000 A 
ATOM      3  C   UNL     1      -0.088  10.273  18.846  0.00  0.00    +0.000 A 
ATOM      4  N   UNL     1       0.059   9.627  17.657  0.00  0.00    +0.000 NA
ATOM      5  C   UNL     1       1.191   9.047  17.795  0.00  0.00    +0.000 A 
ATOM      6  N   UNL     1       1.573   8.904  19.151  0.00  0.00    +0.000 N 
ATOM      7  C   UNL     1      -0.255  11.739  18.754  0.00  0.00    +0.000 C 
ATOM      8  C   UNL     1       1.194  12.249  19.009  0.00  0.00    +0.000 C 
ATOM      9  C   UNL     1       1.343  13.659  18.583  0.00  0.00    +0.000 C 
ATOM     10  O   UNL     1       1.272  14.414  19.777  0.00  0.00    +0.000 OA
ATOM     11  C   UNL     1       1.435  13.614  20.893  0.00  0.00    +0.000 C 
ATOM     12  O   UNL     1       1.618  14.110  21.995  0.00  0.00    +0.000 OA
ATOM     13  C   UNL     1       1.606  12.134  20.491  0.00  0.00    +0.000 C 
ENDROOT
BRANCH   1  17
ATOM     14  N   UNL     1      -2.369  12.020  22.475  0.00  0.00    +0.000 N 
ATOM     15  C   UNL     1      -1.858  11.240  23.445  0.00  0.00    +0.000 A 
ATOM     16  N   UNL     1      -0.702  10.759  23.063  0.00  0.00    +0.000 NA
ATOM     17  C   UNL     1      -0.429  11.239  21.788  0.00  0.00    +0.000 A 
ATOM     18  C   UNL     1      -1.482  12.072  21.415  0.00  0.00    +0.000 A 
BRANCH  14  19
ATOM     19  S   UNL     1      -3.858  12.828  22.642  0.00  0.00    +0.000 S 
ATOM     20  O   UNL     1      -4.441  12.263  23.867  0.00  0.00    +0.000 OA
ATOM     21  O   UNL     1      -4.515  12.669  21.382  0.00  0.00    +0.000 OA
BRANCH  19  23
ATOM     22  C   UNL     1      -2.599  14.829  23.923  0.00  0.00    +0.000 C 
ATOM     23  N   UNL     1      -3.642  14.502  22.922  0.00  0.00    +0.000 NA
ATOM     24  C   UNL     1      -3.409  15.273  21.665  0.00  0.00    +0.000 C 
ENDBRANCH  19  23
ENDBRANCH  14  19
ENDBRANCH   1  17
BRANCH   6  25
ATOM     25  C   UNL     1       2.526   7.786  19.239  0.00  0.00    +0.000 C 
BRANCH  25  26
ATOM     26  C   UNL     1       2.258   6.326  19.381  0.00  0.00    +0.000 A 
ATOM     27  C   UNL     1       1.710   5.792  20.541  0.00  0.00    +0.000 A 
ATOM     28  C   UNL     1       1.213   4.487  20.541  0.00  0.00    +0.000 A 
ATOM     29  C   UNL     1       1.235   3.710  19.380  0.00  0.00    +0.000 A 
ATOM     30  C   UNL     1       1.731   4.242  18.198  0.00  0.00    +0.000 A 
ATOM     31  C   UNL     1       2.228   5.544  18.196  0.00  0.00    +0.000 A 
ENDBRANCH  25  26
ENDBRANCH   6  25
TORSDOF 5
ENDMDL
MODEL 9
REMARK VINA RESULT:      -8.2      5.401      8.173
REMARK  Name = 
REMARK  7 active torsions:
REMARK  status: ('A' for Active; 'I' for Inactive)
REMARK    1  A    between atoms: C_1  and  N_2
REMARK    2  A    between atoms: N_2  and  C_3
REMARK    3  A    between atoms: N_2  and  S_4
REMARK    4  A    between atoms: S_4  and  N_7
REMARK    5  A    between atoms: C_10  and  C_11
REMARK    6  A    between atoms: N_16  and  C_17
REMARK    7  A    between atoms: C_17  and  C_18
REMARK                            x       y       z     vdW  Elec       q    Type
REMARK                         _______ _______ _______ _____ _____    ______ ____
ROOT
ATOM      1  C   UNL     1       0.737  10.872  21.239  0.00  0.00    +0.000 C 
ATOM      2  C   UNL     1       0.624   9.791  20.017  0.00  0.00    +0.000 A 
ATOM      3  C   UNL     1      -0.128  10.271  18.914  0.00  0.00    +0.000 A 
ATOM      4  N   UNL     1       0.095   9.595  17.754  0.00  0.00    +0.000 NA
ATOM      5  C   UNL     1       1.216   9.021  17.980  0.00  0.00    +0.000 A 
ATOM      6  N   UNL     1       1.510   8.914  19.361  0.00  0.00    +0.000 N 
ATOM      7  C   UNL     1      -0.291  11.734  18.773  0.00  0.00    +0.000 C 
ATOM      8  C   UNL     1       1.139  12.253  19.108  0.00  0.00    +0.000 C 
ATOM      9  C   UNL     1       1.315  13.652  18.656  0.00  0.00    +0.000 C 
ATOM     10  O   UNL     1       1.166  14.438  19.823  0.00  0.00    +0.000 OA
ATOM     11  C   UNL     1       1.257  13.667  20.967  0.00  0.00    +0.000 C 
ATOM     12  O   UNL     1       1.369  14.192  22.065  0.00  0.00    +0.000 OA
ATOM     13  C   UNL     1       1.454  12.178  20.616  0.00  0.00    +0.000 C 
ENDROOT
BRANCH   1  17
ATOM     14  N   UNL     1      -2.659  12.071  22.322  0.00  0.00    +0.000 N 
ATOM     15  C   UNL     1      -2.132  11.485  23.412  0.00  0.00    +0.000 A 
ATOM     16  N   UNL     1      -0.939  11.021  23.131  0.00  0.00    +0.000 NA
ATOM     17  C   UNL     1      -0.659  11.312  21.801  0.00  0.00    +0.000 A 
ATOM     18  C   UNL     1      -1.749  12.011  21.283  0.00  0.00    +0.000 A 
BRANCH  14  19
ATOM     19  S   UNL     1      -4.197  12.802  22.332  0.00  0.00    +0.000 S 
ATOM     20  O   UNL     1      -3.926  14.218  22.048  0.00  0.00    +0.000 OA
ATOM     21  O   UNL     1      -4.791  12.408  23.571  0.00  0.00    +0.000 OA
BRANCH  19  23
ATOM     22  C   UNL     1      -6.632  12.190  21.371  0.00  0.00    +0.000 C 
ATOM     23  N   UNL     1      -5.183  12.221  21.061  0.00  0.00    +0.000 NA
ATOM     24  C   UNL     1      -4.948  12.938  19.773  0.00  0.00    +0.000 C 
ENDBRANCH  19  23
ENDBRANCH  14  19
ENDBRANCH   1  17
BRANCH   6  25
ATOM     25  C   UNL     1       2.456   7.801  19.540  0.00  0.00    +0.000 C 
BRANCH  25  26
ATOM     26  C   UNL     1       2.218   6.333  19.431  0.00  0.00    +0.000 A 
ATOM     27  C   UNL     1       1.674   5.600  20.479  0.00  0.00    +0.000 A 
ATOM     28  C   UNL     1       1.204   4.304  20.254  0.00  0.00    +0.000 A 
ATOM     29  C   UNL     1       1.250   3.735  18.979  0.00  0.00    +0.000 A 
ATOM     30  C   UNL     1       1.742   4.469  17.908  0.00  0.00    +0.000 A 
ATOM     31  C   UNL     1       2.211   5.761  18.130  0.00  0.00    +0.000 A 
ENDBRANCH  25  26
ENDBRANCH   6  25
TORSDOF 5
ENDMDL
