MODEL 1
REMARK VINA RESULT:      -8.7      0.000      0.000
REMARK  Name = 
REMARK  5 active torsions:
REMARK  status: ('A' for Active; 'I' for Inactive)
REMARK    1  A    between atoms: C_2  and  C_3
REMARK    2  A    between atoms: C_2  and  C_16
REMARK    3  A    between atoms: C_7  and  O_8
REMARK    4  A    between atoms: O_8  and  C_9
REMARK    5  A    between atoms: C_20  and  O_21
REMARK                            x       y       z     vdW  Elec       q    Type
REMARK                         _______ _______ _______ _____ _____    ______ ____
ROOT
ATOM      1  O   UNL     1       6.026   5.887  15.038  0.00  0.00    +0.000 OA
ATOM      2  C   UNL     1       5.829   5.891  16.250  0.00  0.00    +0.000 C 
ENDROOT
BRANCH   2   3
ATOM      3  C   UNL     1       4.720   5.190  16.872  0.00  0.00    +0.000 A 
ATOM      4  C   UNL     1       3.719   5.703  17.675  0.00  0.00    +0.000 A 
ATOM      5  C   UNL     1       2.953   4.628  18.176  0.00  0.00    +0.000 A 
ATOM      6  C   UNL     1       1.880   4.558  19.080  0.00  0.00    +0.000 A 
ATOM      7  C   UNL     1       1.374   3.303  19.411  0.00  0.00    +0.000 A 
ATOM      8  C   UNL     1       1.906   2.142  18.868  0.00  0.00    +0.000 A 
ATOM      9  C   UNL     1       2.964   2.193  17.949  0.00  0.00    +0.000 A 
ATOM     10  C   UNL     1       3.469   3.459  17.619  0.00  0.00    +0.000 A 
ATOM     11  N   UNL     1       4.489   3.835  16.769  0.00  0.00    +0.000 N 
ATOM     12  H   UNL     1       5.049   3.198  16.215  0.00  0.00    +0.000 HD
BRANCH   7  13
ATOM     13  O   UNL     1       0.337   3.188  20.296  0.00  0.00    +0.000 OA
ATOM     14  H   UNL     1      -0.378   3.781  20.011  0.00  0.00    +0.000 HD
ENDBRANCH   7  13
ENDBRANCH   2   3
BRANCH   2  15
ATOM     15  C   UNL     1       6.803   6.587  17.148  0.00  0.00    +0.000 A 
ATOM     16  C   UNL     1       7.444   5.888  18.171  0.00  0.00    +0.000 A 
ATOM     17  C   UNL     1       8.310   6.568  19.033  0.00  0.00    +0.000 A 
ATOM     18  C   UNL     1       8.501   7.947  18.902  0.00  0.00    +0.000 A 
ATOM     19  C   UNL     1       7.836   8.652  17.898  0.00  0.00    +0.000 A 
ATOM     20  C   UNL     1       7.032   7.961  16.992  0.00  0.00    +0.000 A 
BRANCH  19  21
ATOM     21  O   UNL     1       8.049  10.014  17.846  0.00  0.00    +0.000 OA
BRANCH  21  22
ATOM     22  C   UNL     1       9.117  10.561  18.530  0.00  0.00    +0.000 A 
ATOM     23  C   UNL     1       9.161  10.721  19.920  0.00  0.00    +0.000 A 
ATOM     24  C   UNL     1      10.254  11.342  20.523  0.00  0.00    +0.000 A 
ATOM     25  C   UNL     1      11.343  11.737  19.749  0.00  0.00    +0.000 A 
ATOM     26  C   UNL     1      11.338  11.511  18.373  0.00  0.00    +0.000 A 
ATOM     27  C   UNL     1      10.224  10.927  17.763  0.00  0.00    +0.000 A 
ENDBRANCH  21  22
ENDBRANCH  19  21
ENDBRANCH   2  15
TORSDOF 5
ENDMDL
MODEL 2
REMARK VINA RESULT:      -8.6      5.930      9.134
REMARK  Name = 
REMARK  5 active torsions:
REMARK  status: ('A' for Active; 'I' for Inactive)
REMARK    1  A    between atoms: C_2  and  C_3
REMARK    2  A    between atoms: C_2  and  C_16
REMARK    3  A    between atoms: C_7  and  O_8
REMARK    4  A    between atoms: O_8  and  C_9
REMARK    5  A    between atoms: C_20  and  O_21
REMARK                            x       y       z     vdW  Elec       q    Type
REMARK                         _______ _______ _______ _____ _____    ______ ____
ROOT
ATOM      1  O   UNL     1       1.026  10.776  20.763  0.00  0.00    +0.000 OA
ATOM      2  C   UNL     1       0.690  10.120  19.782  0.00  0.00    +0.000 C 
ENDROOT
BRANCH   2   3
ATOM      3  C   UNL     1      -0.465  10.452  18.967  0.00  0.00    +0.000 A 
ATOM      4  C   UNL     1      -1.586  11.181  19.318  0.00  0.00    +0.000 A 
ATOM      5  C   UNL     1      -2.513  11.113  18.256  0.00  0.00    +0.000 A 
ATOM      6  C   UNL     1      -3.823  11.596  18.099  0.00  0.00    +0.000 A 
ATOM      7  C   UNL     1      -4.499  11.303  16.917  0.00  0.00    +0.000 A 
ATOM      8  C   UNL     1      -3.906  10.555  15.909  0.00  0.00    +0.000 A 
ATOM      9  C   UNL     1      -2.593  10.081  16.041  0.00  0.00    +0.000 A 
ATOM     10  C   UNL     1      -1.916  10.380  17.232  0.00  0.00    +0.000 A 
ATOM     11  N   UNL     1      -0.644  10.059  17.657  0.00  0.00    +0.000 N 
ATOM     12  H   UNL     1       0.034   9.531  17.120  0.00  0.00    +0.000 HD
BRANCH   7  13
ATOM     13  O   UNL     1      -5.780  11.743  16.727  0.00  0.00    +0.000 OA
ATOM     14  H   UNL     1      -6.376  10.976  16.751  0.00  0.00    +0.000 HD
ENDBRANCH   7  13
ENDBRANCH   2   3
BRANCH   2  15
ATOM     15  C   UNL     1       1.536   8.963  19.349  0.00  0.00    +0.000 A 
ATOM     16  C   UNL     1       2.108   8.943  18.078  0.00  0.00    +0.000 A 
ATOM     17  C   UNL     1       2.851   7.828  17.673  0.00  0.00    +0.000 A 
ATOM     18  C   UNL     1       2.983   6.722  18.519  0.00  0.00    +0.000 A 
ATOM     19  C   UNL     1       2.385   6.729  19.779  0.00  0.00    +0.000 A 
ATOM     20  C   UNL     1       1.709   7.870  20.210  0.00  0.00    +0.000 A 
BRANCH  19  21
ATOM     21  O   UNL     1       2.532   5.592  20.546  0.00  0.00    +0.000 OA
BRANCH  21  22
ATOM     22  C   UNL     1       2.378   4.352  19.959  0.00  0.00    +0.000 A 
ATOM     23  C   UNL     1       3.436   3.484  19.666  0.00  0.00    +0.000 A 
ATOM     24  C   UNL     1       3.195   2.276  19.012  0.00  0.00    +0.000 A 
ATOM     25  C   UNL     1       1.888   1.894  18.716  0.00  0.00    +0.000 A 
ATOM     26  C   UNL     1       0.823   2.720  19.075  0.00  0.00    +0.000 A 
ATOM     27  C   UNL     1       1.068   3.951  19.692  0.00  0.00    +0.000 A 
ENDBRANCH  21  22
ENDBRANCH  19  21
ENDBRANCH   2  15
TORSDOF 5
ENDMDL
MODEL 3
REMARK VINA RESULT:      -8.4      3.942      6.491
REMARK  Name = 
REMARK  5 active torsions:
REMARK  status: ('A' for Active; 'I' for Inactive)
REMARK    1  A    between atoms: C_2  and  C_3
REMARK    2  A    between atoms: C_2  and  C_16
REMARK    3  A    between atoms: C_7  and  O_8
REMARK    4  A    between atoms: O_8  and  C_9
REMARK    5  A    between atoms: C_20  and  O_21
REMARK                            x       y       z     vdW  Elec       q    Type
REMARK                         _______ _______ _______ _____ _____    ______ ____
ROOT
ATOM      1  O   UNL     1       2.561   4.464  17.547  0.00  0.00    +0.000 OA
ATOM      2  C   UNL     1       3.173   5.442  17.965  0.00  0.00    +0.000 C 
ENDROOT
BRANCH   2   3
ATOM      3  C   UNL     1       2.513   6.595  18.550  0.00  0.00    +0.000 A 
ATOM      4  C   UNL     1       2.203   7.804  17.955  0.00  0.00    +0.000 A 
ATOM      5  C   UNL     1       1.708   8.676  18.948  0.00  0.00    +0.000 A 
ATOM      6  C   UNL     1       1.316  10.025  18.927  0.00  0.00    +0.000 A 
ATOM      7  C   UNL     1       0.918  10.618  20.123  0.00  0.00    +0.000 A 
ATOM      8  C   UNL     1       0.901   9.906  21.314  0.00  0.00    +0.000 A 
ATOM      9  C   UNL     1       1.270   8.553  21.351  0.00  0.00    +0.000 A 
ATOM     10  C   UNL     1       1.669   7.961  20.145  0.00  0.00    +0.000 A 
ATOM     11  N   UNL     1       2.088   6.678  19.859  0.00  0.00    +0.000 N 
ATOM     12  H   UNL     1       2.158   5.925  20.533  0.00  0.00    +0.000 HD
BRANCH   7  13
ATOM     13  O   UNL     1       0.540  11.932  20.150  0.00  0.00    +0.000 OA
ATOM     14  H   UNL     1      -0.196  12.028  20.777  0.00  0.00    +0.000 HD
ENDBRANCH   7  13
ENDBRANCH   2   3
BRANCH   2  15
ATOM     15  C   UNL     1       4.670   5.435  17.942  0.00  0.00    +0.000 A 
ATOM     16  C   UNL     1       5.395   5.424  19.133  0.00  0.00    +0.000 A 
ATOM     17  C   UNL     1       6.792   5.472  19.091  0.00  0.00    +0.000 A 
ATOM     18  C   UNL     1       7.459   5.576  17.866  0.00  0.00    +0.000 A 
ATOM     19  C   UNL     1       6.734   5.619  16.676  0.00  0.00    +0.000 A 
ATOM     20  C   UNL     1       5.345   5.495  16.714  0.00  0.00    +0.000 A 
BRANCH  19  21
ATOM     21  O   UNL     1       7.456   5.752  15.508  0.00  0.00    +0.000 OA
BRANCH  21  22
ATOM     22  C   UNL     1       7.085   5.025  14.394  0.00  0.00    +0.000 A 
ATOM     23  C   UNL     1       6.070   4.061  14.387  0.00  0.00    +0.000 A 
ATOM     24  C   UNL     1       5.804   3.327  13.231  0.00  0.00    +0.000 A 
ATOM     25  C   UNL     1       6.497   3.606  12.055  0.00  0.00    +0.000 A 
ATOM     26  C   UNL     1       7.456   4.618  12.037  0.00  0.00    +0.000 A 
ATOM     27  C   UNL     1       7.753   5.325  13.205  0.00  0.00    +0.000 A 
ENDBRANCH  21  22
ENDBRANCH  19  21
ENDBRANCH   2  15
TORSDOF 5
ENDMDL
MODEL 4
REMARK VINA RESULT:      -8.3      2.235      8.604
REMARK  Name = 
REMARK  5 active torsions:
REMARK  status: ('A' for Active; 'I' for Inactive)
REMARK    1  A    between atoms: C_2  and  C_3
REMARK    2  A    between atoms: C_2  and  C_16
REMARK    3  A    between atoms: C_7  and  O_8
REMARK    4  A    between atoms: O_8  and  C_9
REMARK    5  A    between atoms: C_20  and  O_21
REMARK                            x       y       z     vdW  Elec       q    Type
REMARK                         _______ _______ _______ _____ _____    ______ ____
ROOT
ATOM      1  O   UNL     1       8.463   5.313  19.266  0.00  0.00    +0.000 OA
ATOM      2  C   UNL     1       7.777   6.090  18.608  0.00  0.00    +0.000 C 
ENDROOT
BRANCH   2   3
ATOM      3  C   UNL     1       8.027   7.520  18.565  0.00  0.00    +0.000 A 
ATOM      4  C   UNL     1       7.530   8.455  17.677  0.00  0.00    +0.000 A 
ATOM      5  C   UNL     1       8.166   9.690  17.925  0.00  0.00    +0.000 A 
ATOM      6  C   UNL     1       8.105  10.942  17.290  0.00  0.00    +0.000 A 
ATOM      7  C   UNL     1       8.924  11.964  17.763  0.00  0.00    +0.000 A 
ATOM      8  C   UNL     1       9.783  11.768  18.835  0.00  0.00    +0.000 A 
ATOM      9  C   UNL     1       9.843  10.531  19.494  0.00  0.00    +0.000 A 
ATOM     10  C   UNL     1       9.016   9.505  19.014  0.00  0.00    +0.000 A 
ATOM     11  N   UNL     1       8.853   8.201  19.434  0.00  0.00    +0.000 N 
ATOM     12  H   UNL     1       9.338   7.776  20.216  0.00  0.00    +0.000 HD
BRANCH   7  13
ATOM     13  O   UNL     1       8.905  13.195  17.167  0.00  0.00    +0.000 OA
ATOM     14  H   UNL     1       8.045  13.312  16.728  0.00  0.00    +0.000 HD
ENDBRANCH   7  13
ENDBRANCH   2   3
BRANCH   2  15
ATOM     15  C   UNL     1       6.674   5.551  17.753  0.00  0.00    +0.000 A 
ATOM     16  C   UNL     1       6.964   4.896  16.556  0.00  0.00    +0.000 A 
ATOM     17  C   UNL     1       5.917   4.447  15.745  0.00  0.00    +0.000 A 
ATOM     18  C   UNL     1       4.588   4.691  16.105  0.00  0.00    +0.000 A 
ATOM     19  C   UNL     1       4.298   5.374  17.286  0.00  0.00    +0.000 A 
ATOM     20  C   UNL     1       5.340   5.754  18.132  0.00  0.00    +0.000 A 
BRANCH  19  21
ATOM     21  O   UNL     1       2.966   5.605  17.564  0.00  0.00    +0.000 OA
BRANCH  21  22
ATOM     22  C   UNL     1       2.283   4.731  18.386  0.00  0.00    +0.000 A 
ATOM     23  C   UNL     1       1.796   3.484  17.977  0.00  0.00    +0.000 A 
ATOM     24  C   UNL     1       1.060   2.692  18.857  0.00  0.00    +0.000 A 
ATOM     25  C   UNL     1       0.872   3.106  20.174  0.00  0.00    +0.000 A 
ATOM     26  C   UNL     1       1.421   4.312  20.609  0.00  0.00    +0.000 A 
ATOM     27  C   UNL     1       2.123   5.126  19.716  0.00  0.00    +0.000 A 
ENDBRANCH  21  22
ENDBRANCH  19  21
ENDBRANCH   2  15
TORSDOF 5
ENDMDL
MODEL 5
REMARK VINA RESULT:      -8.3      4.152      6.640
REMARK  Name = 
REMARK  5 active torsions:
REMARK  status: ('A' for Active; 'I' for Inactive)
REMARK    1  A    between atoms: C_2  and  C_3
REMARK    2  A    between atoms: C_2  and  C_16
REMARK    3  A    between atoms: C_7  and  O_8
REMARK    4  A    between atoms: O_8  and  C_9
REMARK    5  A    between atoms: C_20  and  O_21
REMARK                            x       y       z     vdW  Elec       q    Type
REMARK                         _______ _______ _______ _____ _____    ______ ____
ROOT
ATOM      1  O   UNL     1       2.061   4.892  17.730  0.00  0.00    +0.000 OA
ATOM      2  C   UNL     1       2.832   5.721  18.205  0.00  0.00    +0.000 C 
ENDROOT
BRANCH   2   3
ATOM      3  C   UNL     1       2.383   6.860  18.987  0.00  0.00    +0.000 A 
ATOM      4  C   UNL     1       2.124   6.926  20.343  0.00  0.00    +0.000 A 
ATOM      5  C   UNL     1       1.563   8.189  20.630  0.00  0.00    +0.000 A 
ATOM      6  C   UNL     1       1.050   8.763  21.805  0.00  0.00    +0.000 A 
ATOM      7  C   UNL     1       0.506  10.042  21.734  0.00  0.00    +0.000 A 
ATOM      8  C   UNL     1       0.466  10.748  20.540  0.00  0.00    +0.000 A 
ATOM      9  C   UNL     1       0.990  10.199  19.360  0.00  0.00    +0.000 A 
ATOM     10  C   UNL     1       1.538   8.910  19.437  0.00  0.00    +0.000 A 
ATOM     11  N   UNL     1       2.115   8.111  18.472  0.00  0.00    +0.000 N 
ATOM     12  H   UNL     1       2.243   8.371  17.502  0.00  0.00    +0.000 HD
BRANCH   7  13
ATOM     13  O   UNL     1      -0.015  10.634  22.852  0.00  0.00    +0.000 OA
ATOM     14  H   UNL     1       0.550  10.410  23.611  0.00  0.00    +0.000 HD
ENDBRANCH   7  13
ENDBRANCH   2   3
BRANCH   2  15
ATOM     15  C   UNL     1       4.307   5.530  18.040  0.00  0.00    +0.000 A 
ATOM     16  C   UNL     1       5.103   5.201  19.136  0.00  0.00    +0.000 A 
ATOM     17  C   UNL     1       6.487   5.079  18.972  0.00  0.00    +0.000 A 
ATOM     18  C   UNL     1       7.076   5.328  17.728  0.00  0.00    +0.000 A 
ATOM     19  C   UNL     1       6.283   5.686  16.638  0.00  0.00    +0.000 A 
ATOM     20  C   UNL     1       4.897   5.734  16.785  0.00  0.00    +0.000 A 
BRANCH  19  21
ATOM     21  O   UNL     1       6.934   5.945  15.450  0.00  0.00    +0.000 OA
BRANCH  21  22
ATOM     22  C   UNL     1       6.717   5.121  14.363  0.00  0.00    +0.000 A 
ATOM     23  C   UNL     1       5.639   4.235  14.252  0.00  0.00    +0.000 A 
ATOM     24  C   UNL     1       5.532   3.391  13.147  0.00  0.00    +0.000 A 
ATOM     25  C   UNL     1       6.458   3.482  12.110  0.00  0.00    +0.000 A 
ATOM     26  C   UNL     1       7.491   4.417  12.180  0.00  0.00    +0.000 A 
ATOM     27  C   UNL     1       7.623   5.233  13.307  0.00  0.00    +0.000 A 
ENDBRANCH  21  22
ENDBRANCH  19  21
ENDBRANCH   2  15
TORSDOF 5
ENDMDL
MODEL 6
REMARK VINA RESULT:      -8.3      6.141      9.226
REMARK  Name = 
REMARK  5 active torsions:
REMARK  status: ('A' for Active; 'I' for Inactive)
REMARK    1  A    between atoms: C_2  and  C_3
REMARK    2  A    between atoms: C_2  and  C_16
REMARK    3  A    between atoms: C_7  and  O_8
REMARK    4  A    between atoms: O_8  and  C_9
REMARK    5  A    between atoms: C_20  and  O_21
REMARK                            x       y       z     vdW  Elec       q    Type
REMARK                         _______ _______ _______ _____ _____    ______ ____
ROOT
ATOM      1  O   UNL     1       1.171  11.394  20.425  0.00  0.00    +0.000 OA
ATOM      2  C   UNL     1       0.702  10.611  19.604  0.00  0.00    +0.000 C 
ENDROOT
BRANCH   2   3
ATOM      3  C   UNL     1      -0.522  10.877  18.869  0.00  0.00    +0.000 A 
ATOM      4  C   UNL     1      -1.713  11.398  19.339  0.00  0.00    +0.000 A 
ATOM      5  C   UNL     1      -2.669  11.332  18.303  0.00  0.00    +0.000 A 
ATOM      6  C   UNL     1      -4.037  11.647  18.242  0.00  0.00    +0.000 A 
ATOM      7  C   UNL     1      -4.719  11.407  17.053  0.00  0.00    +0.000 A 
ATOM      8  C   UNL     1      -4.077  10.874  15.943  0.00  0.00    +0.000 A 
ATOM      9  C   UNL     1      -2.708  10.572  15.979  0.00  0.00    +0.000 A 
ATOM     10  C   UNL     1      -2.026  10.816  17.179  0.00  0.00    +0.000 A 
ATOM     11  N   UNL     1      -0.704  10.623  17.526  0.00  0.00    +0.000 N 
ATOM     12  H   UNL     1       0.013  10.262  16.909  0.00  0.00    +0.000 HD
BRANCH   7  13
ATOM     13  O   UNL     1      -6.055  11.688  16.954  0.00  0.00    +0.000 OA
ATOM     14  H   UNL     1      -6.276  12.370  17.610  0.00  0.00    +0.000 HD
ENDBRANCH   7  13
ENDBRANCH   2   3
BRANCH   2  15
ATOM     15  C   UNL     1       1.446   9.353  19.283  0.00  0.00    +0.000 A 
ATOM     16  C   UNL     1       2.025   9.176  18.027  0.00  0.00    +0.000 A 
ATOM     17  C   UNL     1       2.670   7.972  17.727  0.00  0.00    +0.000 A 
ATOM     18  C   UNL     1       2.697   6.933  18.663  0.00  0.00    +0.000 A 
ATOM     19  C   UNL     1       2.091   7.097  19.909  0.00  0.00    +0.000 A 
ATOM     20  C   UNL     1       1.515   8.325  20.234  0.00  0.00    +0.000 A 
BRANCH  19  21
ATOM     21  O   UNL     1       2.131   6.021  20.770  0.00  0.00    +0.000 OA
BRANCH  21  22
ATOM     22  C   UNL     1       2.038   4.740  20.260  0.00  0.00    +0.000 A 
ATOM     23  C   UNL     1       0.832   4.056  20.067  0.00  0.00    +0.000 A 
ATOM     24  C   UNL     1       0.835   2.741  19.606  0.00  0.00    +0.000 A 
ATOM     25  C   UNL     1       2.038   2.126  19.263  0.00  0.00    +0.000 A 
ATOM     26  C   UNL     1       3.237   2.829  19.381  0.00  0.00    +0.000 A 
ATOM     27  C   UNL     1       3.238   4.134  19.883  0.00  0.00    +0.000 A 
ENDBRANCH  21  22
ENDBRANCH  19  21
ENDBRANCH   2  15
TORSDOF 5
ENDMDL
MODEL 7
REMARK VINA RESULT:      -8.2      4.964      8.308
REMARK  Name = 
REMARK  5 active torsions:
REMARK  status: ('A' for Active; 'I' for Inactive)
REMARK    1  A    between atoms: C_2  and  C_3
REMARK    2  A    between atoms: C_2  and  C_16
REMARK    3  A    between atoms: C_7  and  O_8
REMARK    4  A    between atoms: O_8  and  C_9
REMARK    5  A    between atoms: C_20  and  O_21
REMARK                            x       y       z     vdW  Elec       q    Type
REMARK                         _______ _______ _______ _____ _____    ______ ____
ROOT
ATOM      1  O   UNL     1       1.369   5.500  20.333  0.00  0.00    +0.000 OA
ATOM      2  C   UNL     1       2.066   6.445  19.977  0.00  0.00    +0.000 C 
ENDROOT
BRANCH   2   3
ATOM      3  C   UNL     1       3.275   6.282  19.189  0.00  0.00    +0.000 A 
ATOM      4  C   UNL     1       3.516   6.686  17.889  0.00  0.00    +0.000 A 
ATOM      5  C   UNL     1       4.771   6.178  17.489  0.00  0.00    +0.000 A 
ATOM      6  C   UNL     1       5.473   6.213  16.273  0.00  0.00    +0.000 A 
ATOM      7  C   UNL     1       6.694   5.548  16.194  0.00  0.00    +0.000 A 
ATOM      8  C   UNL     1       7.219   4.865  17.283  0.00  0.00    +0.000 A 
ATOM      9  C   UNL     1       6.541   4.835  18.510  0.00  0.00    +0.000 A 
ATOM     10  C   UNL     1       5.313   5.506  18.584  0.00  0.00    +0.000 A 
ATOM     11  N   UNL     1       4.421   5.653  19.627  0.00  0.00    +0.000 N 
ATOM     12  H   UNL     1       4.548   5.277  20.558  0.00  0.00    +0.000 HD
BRANCH   7  13
ATOM     13  O   UNL     1       7.406   5.547  15.026  0.00  0.00    +0.000 OA
ATOM     14  H   UNL     1       6.803   5.773  14.298  0.00  0.00    +0.000 HD
ENDBRANCH   7  13
ENDBRANCH   2   3
BRANCH   2  15
ATOM     15  C   UNL     1       1.631   7.840  20.302  0.00  0.00    +0.000 A 
ATOM     16  C   UNL     1       1.562   8.268  21.628  0.00  0.00    +0.000 A 
ATOM     17  C   UNL     1       1.102   9.557  21.913  0.00  0.00    +0.000 A 
ATOM     18  C   UNL     1       0.671  10.399  20.883  0.00  0.00    +0.000 A 
ATOM     19  C   UNL     1       0.711   9.961  19.559  0.00  0.00    +0.000 A 
ATOM     20  C   UNL     1       1.241   8.703  19.269  0.00  0.00    +0.000 A 
BRANCH  19  21
ATOM     21  O   UNL     1       0.243  10.832  18.598  0.00  0.00    +0.000 OA
BRANCH  21  22
ATOM     22  C   UNL     1      -1.078  10.759  18.201  0.00  0.00    +0.000 A 
ATOM     23  C   UNL     1      -1.569   9.836  17.271  0.00  0.00    +0.000 A 
ATOM     24  C   UNL     1      -2.907   9.875  16.880  0.00  0.00    +0.000 A 
ATOM     25  C   UNL     1      -3.779  10.785  17.474  0.00  0.00    +0.000 A 
ATOM     26  C   UNL     1      -3.312  11.656  18.458  0.00  0.00    +0.000 A 
ATOM     27  C   UNL     1      -1.962  11.647  18.819  0.00  0.00    +0.000 A 
ENDBRANCH  21  22
ENDBRANCH  19  21
ENDBRANCH   2  15
TORSDOF 5
ENDMDL
MODEL 8
REMARK VINA RESULT:      -8.2      3.841      6.523
REMARK  Name = 
REMARK  5 active torsions:
REMARK  status: ('A' for Active; 'I' for Inactive)
REMARK    1  A    between atoms: C_2  and  C_3
REMARK    2  A    between atoms: C_2  and  C_16
REMARK    3  A    between atoms: C_7  and  O_8
REMARK    4  A    between atoms: O_8  and  C_9
REMARK    5  A    between atoms: C_20  and  O_21
REMARK                            x       y       z     vdW  Elec       q    Type
REMARK                         _______ _______ _______ _____ _____    ______ ____
ROOT
ATOM      1  O   UNL     1       2.787   4.151  18.194  0.00  0.00    +0.000 OA
ATOM      2  C   UNL     1       3.345   5.230  18.367  0.00  0.00    +0.000 C 
ENDROOT
BRANCH   2   3
ATOM      3  C   UNL     1       2.640   6.423  18.802  0.00  0.00    +0.000 A 
ATOM      4  C   UNL     1       2.316   7.548  18.068  0.00  0.00    +0.000 A 
ATOM      5  C   UNL     1       1.772   8.512  18.944  0.00  0.00    +0.000 A 
ATOM      6  C   UNL     1       1.347   9.839  18.762  0.00  0.00    +0.000 A 
ATOM      7  C   UNL     1       0.901  10.549  19.873  0.00  0.00    +0.000 A 
ATOM      8  C   UNL     1       0.868   9.975  21.136  0.00  0.00    +0.000 A 
ATOM      9  C   UNL     1       1.269   8.645  21.334  0.00  0.00    +0.000 A 
ATOM     10  C   UNL     1       1.717   7.934  20.212  0.00  0.00    +0.000 A 
ATOM     11  N   UNL     1       2.175   6.639  20.083  0.00  0.00    +0.000 N 
ATOM     12  H   UNL     1       2.245   5.968  20.838  0.00  0.00    +0.000 HD
BRANCH   7  13
ATOM     13  O   UNL     1       0.489  11.847  19.742  0.00  0.00    +0.000 OA
ATOM     14  H   UNL     1      -0.458  11.893  19.957  0.00  0.00    +0.000 HD
ENDBRANCH   7  13
ENDBRANCH   2   3
BRANCH   2  15
ATOM     15  C   UNL     1       4.829   5.325  18.195  0.00  0.00    +0.000 A 
ATOM     16  C   UNL     1       5.673   5.295  19.304  0.00  0.00    +0.000 A 
ATOM     17  C   UNL     1       7.053   5.438  19.126  0.00  0.00    +0.000 A 
ATOM     18  C   UNL     1       7.582   5.655  17.850  0.00  0.00    +0.000 A 
ATOM     19  C   UNL     1       6.736   5.716  16.743  0.00  0.00    +0.000 A 
ATOM     20  C   UNL     1       5.369   5.498  16.912  0.00  0.00    +0.000 A 
BRANCH  19  21
ATOM     21  O   UNL     1       7.324   5.963  15.520  0.00  0.00    +0.000 OA
BRANCH  21  22
ATOM     22  C   UNL     1       7.007   5.161  14.441  0.00  0.00    +0.000 A 
ATOM     23  C   UNL     1       7.691   5.178  13.220  0.00  0.00    +0.000 A 
ATOM     24  C   UNL     1       7.263   4.379  12.161  0.00  0.00    +0.000 A 
ATOM     25  C   UNL     1       6.195   3.501  12.340  0.00  0.00    +0.000 A 
ATOM     26  C   UNL     1       5.557   3.424  13.578  0.00  0.00    +0.000 A 
ATOM     27  C   UNL     1       5.960   4.256  14.627  0.00  0.00    +0.000 A 
ENDBRANCH  21  22
ENDBRANCH  19  21
ENDBRANCH   2  15
TORSDOF 5
ENDMDL
MODEL 9
REMARK VINA RESULT:      -8.1      4.644      7.004
REMARK  Name = 
REMARK  5 active torsions:
REMARK  status: ('A' for Active; 'I' for Inactive)
REMARK    1  A    between atoms: C_2  and  C_3
REMARK    2  A    between atoms: C_2  and  C_16
REMARK    3  A    between atoms: C_7  and  O_8
REMARK    4  A    between atoms: O_8  and  C_9
REMARK    5  A    between atoms: C_20  and  O_21
REMARK                            x       y       z     vdW  Elec       q    Type
REMARK                         _______ _______ _______ _____ _____    ______ ____
ROOT
ATOM      1  O   UNL     1       5.178   2.435  20.085  0.00  0.00    +0.000 OA
ATOM      2  C   UNL     1       4.562   3.214  19.364  0.00  0.00    +0.000 C 
ENDROOT
BRANCH   2   3
ATOM      3  C   UNL     1       5.039   3.626  18.056  0.00  0.00    +0.000 A 
ATOM      4  C   UNL     1       4.502   3.343  16.814  0.00  0.00    +0.000 A 
ATOM      5  C   UNL     1       5.388   3.820  15.825  0.00  0.00    +0.000 A 
ATOM      6  C   UNL     1       5.387   3.743  14.422  0.00  0.00    +0.000 A 
ATOM      7  C   UNL     1       6.466   4.283  13.728  0.00  0.00    +0.000 A 
ATOM      8  C   UNL     1       7.524   4.889  14.391  0.00  0.00    +0.000 A 
ATOM      9  C   UNL     1       7.534   4.993  15.790  0.00  0.00    +0.000 A 
ATOM     10  C   UNL     1       6.444   4.448  16.484  0.00  0.00    +0.000 A 
ATOM     11  N   UNL     1       6.168   4.386  17.834  0.00  0.00    +0.000 N 
ATOM     12  H   UNL     1       6.755   4.767  18.566  0.00  0.00    +0.000 HD
BRANCH   7  13
ATOM     13  O   UNL     1       6.511   4.219  12.362  0.00  0.00    +0.000 OA
ATOM     14  H   UNL     1       5.600   4.165  12.026  0.00  0.00    +0.000 HD
ENDBRANCH   7  13
ENDBRANCH   2   3
BRANCH   2  15
ATOM     15  C   UNL     1       3.224   3.718  19.806  0.00  0.00    +0.000 A 
ATOM     16  C   UNL     1       2.098   2.899  19.725  0.00  0.00    +0.000 A 
ATOM     17  C   UNL     1       0.848   3.407  20.093  0.00  0.00    +0.000 A 
ATOM     18  C   UNL     1       0.716   4.739  20.496  0.00  0.00    +0.000 A 
ATOM     19  C   UNL     1       1.837   5.568  20.548  0.00  0.00    +0.000 A 
ATOM     20  C   UNL     1       3.094   5.040  20.254  0.00  0.00    +0.000 A 
BRANCH  19  21
ATOM     21  O   UNL     1       1.628   6.878  20.926  0.00  0.00    +0.000 OA
BRANCH  21  22
ATOM     22  C   UNL     1       1.637   7.871  19.965  0.00  0.00    +0.000 A 
ATOM     23  C   UNL     1       1.048   9.130  20.130  0.00  0.00    +0.000 A 
ATOM     24  C   UNL     1       1.049  10.050  19.083  0.00  0.00    +0.000 A 
ATOM     25  C   UNL     1       1.705   9.747  17.891  0.00  0.00    +0.000 A 
ATOM     26  C   UNL     1       2.360   8.524  17.749  0.00  0.00    +0.000 A 
ATOM     27  C   UNL     1       2.323   7.585  18.783  0.00  0.00    +0.000 A 
ENDBRANCH  21  22
ENDBRANCH  19  21
ENDBRANCH   2  15
TORSDOF 5
ENDMDL
