MODEL 1
REMARK VINA RESULT:      -8.4      0.000      0.000
REMARK  Name = 
REMARK  5 active torsions:
REMARK  status: ('A' for Active; 'I' for Inactive)
REMARK    1  A    between atoms: C_1  and  N_2
REMARK    2  A    between atoms: N_5  and  C_6
REMARK    3  A    between atoms: C_15  and  C_16
REMARK    4  A    between atoms: C_16  and  O_18
REMARK    5  A    between atoms: N_20  and  C_21
REMARK                            x       y       z     vdW  Elec       q    Type
REMARK                         _______ _______ _______ _____ _____    ______ ____
ROOT
ATOM      1  C   UNL     1       2.031   8.445  19.173  0.00  0.00    +0.000 A 
ATOM      2  C   UNL     1       2.416   7.103  19.344  0.00  0.00    +0.000 A 
ATOM      3  C   UNL     1       3.208   6.394  18.432  0.00  0.00    +0.000 A 
ATOM      4  C   UNL     1       3.752   7.133  17.372  0.00  0.00    +0.000 A 
ATOM      5  C   UNL     1       3.420   8.483  17.175  0.00  0.00    +0.000 A 
ATOM      6  C   UNL     1       2.542   9.111  18.056  0.00  0.00    +0.000 A 
ATOM      7  F   UNL     1       2.236  10.398  17.828  0.00  0.00    +0.000 F 
ATOM      8  C   UNL     1       4.726   6.500  16.469  0.00  0.00    +0.000 A 
ATOM      9  O   UNL     1       5.235   7.102  15.522  0.00  0.00    +0.000 OA
ATOM     10  C   UNL     1       5.108   5.097  16.737  0.00  0.00    +0.000 A 
ATOM     11  C   UNL     1       4.461   4.461  17.726  0.00  0.00    +0.000 A 
ATOM     12  N   UNL     1       3.482   4.985  18.578  0.00  0.00    +0.000 N 
ENDROOT
BRANCH   1  17
ATOM     13  C   UNL     1      -1.033  11.290  22.881  0.00  0.00    +0.000 C 
ATOM     14  N   UNL     1      -0.732  10.232  21.922  0.00  0.00    +0.000 NA
ATOM     15  C   UNL     1       0.404   9.399  22.393  0.00  0.00    +0.000 C 
ATOM     16  C   UNL     1       0.840   8.312  21.370  0.00  0.00    +0.000 C 
ATOM     17  N   UNL     1       1.127   8.965  20.080  0.00  0.00    +0.000 N 
ATOM     18  C   UNL     1      -0.020   9.742  19.566  0.00  0.00    +0.000 C 
ATOM     19  C   UNL     1      -0.407  10.817  20.602  0.00  0.00    +0.000 C 
ENDBRANCH   1  17
BRANCH  12  20
ATOM     20  C   UNL     1       2.798   4.107  19.506  0.00  0.00    +0.000 A 
ATOM     21  C   UNL     1       1.391   4.017  19.541  0.00  0.00    +0.000 A 
ATOM     22  C   UNL     1       0.719   3.245  20.499  0.00  0.00    +0.000 A 
ATOM     23  C   UNL     1       1.446   2.476  21.398  0.00  0.00    +0.000 A 
ATOM     24  C   UNL     1       2.830   2.492  21.330  0.00  0.00    +0.000 A 
ATOM     25  F   UNL     1       3.536   1.725  22.172  0.00  0.00    +0.000 F 
ATOM     26  C   UNL     1       3.507   3.302  20.414  0.00  0.00    +0.000 A 
ENDBRANCH  12  20
BRANCH  10  27
ATOM     27  C   UNL     1       6.143   4.371  15.975  0.00  0.00    +0.000 C 
ATOM     28  O   UNL     1       5.913   3.361  15.327  0.00  0.00    +0.000 OA
BRANCH  27  29
ATOM     29  O   UNL     1       7.381   4.902  16.061  0.00  0.00    +0.000 OA
ATOM     30  H   UNL     1       7.398   5.887  16.124  0.00  0.00    +0.000 HD
ENDBRANCH  27  29
ENDBRANCH  10  27
TORSDOF 4
ENDMDL
MODEL 2
REMARK VINA RESULT:      -8.1      0.929      1.168
REMARK  Name = 
REMARK  5 active torsions:
REMARK  status: ('A' for Active; 'I' for Inactive)
REMARK    1  A    between atoms: C_1  and  N_2
REMARK    2  A    between atoms: N_5  and  C_6
REMARK    3  A    between atoms: C_15  and  C_16
REMARK    4  A    between atoms: C_16  and  O_18
REMARK    5  A    between atoms: N_20  and  C_21
REMARK                            x       y       z     vdW  Elec       q    Type
REMARK                         _______ _______ _______ _____ _____    ______ ____
ROOT
ATOM      1  C   UNL     1       1.982   8.601  19.172  0.00  0.00    +0.000 A 
ATOM      2  C   UNL     1       2.335   7.251  19.350  0.00  0.00    +0.000 A 
ATOM      3  C   UNL     1       3.148   6.532  18.466  0.00  0.00    +0.000 A 
ATOM      4  C   UNL     1       3.747   7.266  17.431  0.00  0.00    +0.000 A 
ATOM      5  C   UNL     1       3.448   8.622  17.229  0.00  0.00    +0.000 A 
ATOM      6  C   UNL     1       2.549   9.263  18.079  0.00  0.00    +0.000 A 
ATOM      7  F   UNL     1       2.276  10.556  17.847  0.00  0.00    +0.000 F 
ATOM      8  C   UNL     1       4.744   6.619  16.563  0.00  0.00    +0.000 A 
ATOM      9  O   UNL     1       5.299   7.216  15.640  0.00  0.00    +0.000 OA
ATOM     10  C   UNL     1       5.089   5.207  16.838  0.00  0.00    +0.000 A 
ATOM     11  C   UNL     1       4.392   4.579  17.797  0.00  0.00    +0.000 A 
ATOM     12  N   UNL     1       3.390   5.118  18.614  0.00  0.00    +0.000 N 
ENDROOT
BRANCH   1  17
ATOM     13  C   UNL     1      -1.180  11.496  22.758  0.00  0.00    +0.000 C 
ATOM     14  N   UNL     1      -0.854  10.426  21.819  0.00  0.00    +0.000 NA
ATOM     15  C   UNL     1       0.263   9.594  22.332  0.00  0.00    +0.000 C 
ATOM     16  C   UNL     1       0.725   8.495  21.333  0.00  0.00    +0.000 C 
ATOM     17  N   UNL     1       1.054   9.134  20.046  0.00  0.00    +0.000 N 
ATOM     18  C   UNL     1      -0.073   9.910  19.490  0.00  0.00    +0.000 C 
ATOM     19  C   UNL     1      -0.487  10.998  20.503  0.00  0.00    +0.000 C 
ENDBRANCH   1  17
BRANCH  12  20
ATOM     20  C   UNL     1       2.655   4.248  19.510  0.00  0.00    +0.000 A 
ATOM     21  C   UNL     1       2.904   4.232  20.898  0.00  0.00    +0.000 A 
ATOM     22  C   UNL     1       2.268   3.326  21.757  0.00  0.00    +0.000 A 
ATOM     23  C   UNL     1       1.301   2.465  21.257  0.00  0.00    +0.000 A 
ATOM     24  C   UNL     1       0.987   2.518  19.908  0.00  0.00    +0.000 A 
ATOM     25  F   UNL     1       0.029   1.713  19.427  0.00  0.00    +0.000 F 
ATOM     26  C   UNL     1       1.657   3.380  19.036  0.00  0.00    +0.000 A 
ENDBRANCH  12  20
BRANCH  10  27
ATOM     27  C   UNL     1       6.138   4.465  16.113  0.00  0.00    +0.000 C 
ATOM     28  O   UNL     1       5.924   3.434  15.493  0.00  0.00    +0.000 OA
BRANCH  27  29
ATOM     29  O   UNL     1       7.371   5.008  16.198  0.00  0.00    +0.000 OA
ATOM     30  H   UNL     1       7.740   5.042  17.112  0.00  0.00    +0.000 HD
ENDBRANCH  27  29
ENDBRANCH  10  27
TORSDOF 4
ENDMDL
MODEL 3
REMARK VINA RESULT:      -7.4      3.070      4.953
REMARK  Name = 
REMARK  5 active torsions:
REMARK  status: ('A' for Active; 'I' for Inactive)
REMARK    1  A    between atoms: C_1  and  N_2
REMARK    2  A    between atoms: N_5  and  C_6
REMARK    3  A    between atoms: C_15  and  C_16
REMARK    4  A    between atoms: C_16  and  O_18
REMARK    5  A    between atoms: N_20  and  C_21
REMARK                            x       y       z     vdW  Elec       q    Type
REMARK                         _______ _______ _______ _____ _____    ______ ____
ROOT
ATOM      1  C   UNL     1       1.849   7.357  19.784  0.00  0.00    +0.000 A 
ATOM      2  C   UNL     1       2.980   6.794  19.167  0.00  0.00    +0.000 A 
ATOM      3  C   UNL     1       3.471   5.514  19.452  0.00  0.00    +0.000 A 
ATOM      4  C   UNL     1       2.685   4.718  20.297  0.00  0.00    +0.000 A 
ATOM      5  C   UNL     1       1.532   5.226  20.916  0.00  0.00    +0.000 A 
ATOM      6  C   UNL     1       1.146   6.543  20.678  0.00  0.00    +0.000 A 
ATOM      7  F   UNL     1       0.047   6.999  21.297  0.00  0.00    +0.000 F 
ATOM      8  C   UNL     1       3.046   3.307  20.511  0.00  0.00    +0.000 A 
ATOM      9  O   UNL     1       2.391   2.564  21.243  0.00  0.00    +0.000 OA
ATOM     10  C   UNL     1       4.228   2.779  19.796  0.00  0.00    +0.000 A 
ATOM     11  C   UNL     1       4.955   3.651  19.082  0.00  0.00    +0.000 A 
ATOM     12  N   UNL     1       4.703   5.015  18.890  0.00  0.00    +0.000 N 
ENDROOT
BRANCH   1  17
ATOM     13  C   UNL     1       1.655  12.863  18.845  0.00  0.00    +0.000 C 
ATOM     14  N   UNL     1       1.165  11.488  18.862  0.00  0.00    +0.000 NA
ATOM     15  C   UNL     1       1.074  10.977  20.253  0.00  0.00    +0.000 C 
ATOM     16  C   UNL     1       0.650   9.483  20.337  0.00  0.00    +0.000 C 
ATOM     17  N   UNL     1       1.573   8.683  19.511  0.00  0.00    +0.000 N 
ATOM     18  C   UNL     1       1.621   9.138  18.106  0.00  0.00    +0.000 C 
ATOM     19  C   UNL     1       2.061  10.617  18.069  0.00  0.00    +0.000 C 
ENDBRANCH   1  17
BRANCH  12  20
ATOM     20  C   UNL     1       5.676   5.830  18.191  0.00  0.00    +0.000 A 
ATOM     21  C   UNL     1       5.531   6.147  16.824  0.00  0.00    +0.000 A 
ATOM     22  C   UNL     1       6.515   6.851  16.116  0.00  0.00    +0.000 A 
ATOM     23  C   UNL     1       7.635   7.329  16.782  0.00  0.00    +0.000 A 
ATOM     24  C   UNL     1       7.759   7.093  18.143  0.00  0.00    +0.000 A 
ATOM     25  F   UNL     1       8.821   7.581  18.798  0.00  0.00    +0.000 F 
ATOM     26  C   UNL     1       6.810   6.343  18.843  0.00  0.00    +0.000 A 
ENDBRANCH  12  20
BRANCH  10  27
ATOM     27  C   UNL     1       4.646   1.365  19.839  0.00  0.00    +0.000 C 
ATOM     28  O   UNL     1       5.348   0.899  20.724  0.00  0.00    +0.000 OA
BRANCH  27  29
ATOM     29  O   UNL     1       4.203   0.616  18.807  0.00  0.00    +0.000 OA
ATOM     30  H   UNL     1       3.944  -0.304  19.052  0.00  0.00    +0.000 HD
ENDBRANCH  27  29
ENDBRANCH  10  27
TORSDOF 4
ENDMDL
MODEL 4
REMARK VINA RESULT:      -7.1      3.053      4.947
REMARK  Name = 
REMARK  5 active torsions:
REMARK  status: ('A' for Active; 'I' for Inactive)
REMARK    1  A    between atoms: C_1  and  N_2
REMARK    2  A    between atoms: N_5  and  C_6
REMARK    3  A    between atoms: C_15  and  C_16
REMARK    4  A    between atoms: C_16  and  O_18
REMARK    5  A    between atoms: N_20  and  C_21
REMARK                            x       y       z     vdW  Elec       q    Type
REMARK                         _______ _______ _______ _____ _____    ______ ____
ROOT
ATOM      1  C   UNL     1       1.816   7.250  19.844  0.00  0.00    +0.000 A 
ATOM      2  C   UNL     1       2.959   6.711  19.227  0.00  0.00    +0.000 A 
ATOM      3  C   UNL     1       3.465   5.433  19.495  0.00  0.00    +0.000 A 
ATOM      4  C   UNL     1       2.684   4.614  20.323  0.00  0.00    +0.000 A 
ATOM      5  C   UNL     1       1.520   5.098  20.941  0.00  0.00    +0.000 A 
ATOM      6  C   UNL     1       1.118   6.413  20.720  0.00  0.00    +0.000 A 
ATOM      7  F   UNL     1       0.009   6.845  21.339  0.00  0.00    +0.000 F 
ATOM      8  C   UNL     1       3.062   3.205  20.518  0.00  0.00    +0.000 A 
ATOM      9  O   UNL     1       2.412   2.442  21.234  0.00  0.00    +0.000 OA
ATOM     10  C   UNL     1       4.256   2.704  19.804  0.00  0.00    +0.000 A 
ATOM     11  C   UNL     1       4.976   3.596  19.108  0.00  0.00    +0.000 A 
ATOM     12  N   UNL     1       4.707   4.959  18.935  0.00  0.00    +0.000 N 
ENDROOT
BRANCH   1  17
ATOM     13  C   UNL     1      -0.273  12.339  18.862  0.00  0.00    +0.000 C 
ATOM     14  N   UNL     1       0.756  11.347  19.162  0.00  0.00    +0.000 NA
ATOM     15  C   UNL     1       0.907  10.386  18.040  0.00  0.00    +0.000 C 
ATOM     16  C   UNL     1       1.919   9.244  18.336  0.00  0.00    +0.000 C 
ATOM     17  N   UNL     1       1.524   8.576  19.589  0.00  0.00    +0.000 N 
ATOM     18  C   UNL     1       1.437   9.510  20.731  0.00  0.00    +0.000 C 
ATOM     19  C   UNL     1       0.412  10.616  20.402  0.00  0.00    +0.000 C 
ENDBRANCH   1  17
BRANCH  12  20
ATOM     20  C   UNL     1       5.674   5.797  18.255  0.00  0.00    +0.000 A 
ATOM     21  C   UNL     1       5.508   6.176  16.906  0.00  0.00    +0.000 A 
ATOM     22  C   UNL     1       6.484   6.903  16.212  0.00  0.00    +0.000 A 
ATOM     23  C   UNL     1       7.620   7.343  16.879  0.00  0.00    +0.000 A 
ATOM     24  C   UNL     1       7.766   7.046  18.225  0.00  0.00    +0.000 A 
ATOM     25  F   UNL     1       8.843   7.497  18.882  0.00  0.00    +0.000 F 
ATOM     26  C   UNL     1       6.823   6.273  18.909  0.00  0.00    +0.000 A 
ENDBRANCH  12  20
BRANCH  10  27
ATOM     27  C   UNL     1       4.692   1.295  19.829  0.00  0.00    +0.000 C 
ATOM     28  O   UNL     1       5.382   0.822  20.719  0.00  0.00    +0.000 OA
BRANCH  27  29
ATOM     29  O   UNL     1       4.280   0.560  18.774  0.00  0.00    +0.000 OA
ATOM     30  H   UNL     1       4.277  -0.414  18.931  0.00  0.00    +0.000 HD
ENDBRANCH  27  29
ENDBRANCH  10  27
TORSDOF 4
ENDMDL
MODEL 5
REMARK VINA RESULT:      -6.9      7.174     10.183
REMARK  Name = 
REMARK  5 active torsions:
REMARK  status: ('A' for Active; 'I' for Inactive)
REMARK    1  A    between atoms: C_1  and  N_2
REMARK    2  A    between atoms: N_5  and  C_6
REMARK    3  A    between atoms: C_15  and  C_16
REMARK    4  A    between atoms: C_16  and  O_18
REMARK    5  A    between atoms: N_20  and  C_21
REMARK                            x       y       z     vdW  Elec       q    Type
REMARK                         _______ _______ _______ _____ _____    ______ ____
ROOT
ATOM      1  C   UNL     1       0.991  15.139  22.104  0.00  0.00    +0.000 A 
ATOM      2  C   UNL     1       0.351  13.896  21.951  0.00  0.00    +0.000 A 
ATOM      3  C   UNL     1      -0.783  13.504  22.672  0.00  0.00    +0.000 A 
ATOM      4  C   UNL     1      -1.377  14.484  23.480  0.00  0.00    +0.000 A 
ATOM      5  C   UNL     1      -0.793  15.750  23.644  0.00  0.00    +0.000 A 
ATOM      6  C   UNL     1       0.396  16.051  22.982  0.00  0.00    +0.000 A 
ATOM      7  F   UNL     1       0.933  17.265  23.174  0.00  0.00    +0.000 F 
ATOM      8  C   UNL     1      -2.664  14.203  24.138  0.00  0.00    +0.000 A 
ATOM      9  O   UNL     1      -3.229  15.027  24.858  0.00  0.00    +0.000 OA
ATOM     10  C   UNL     1      -3.290  12.885  23.896  0.00  0.00    +0.000 A 
ATOM     11  C   UNL     1      -2.592  11.994  23.176  0.00  0.00    +0.000 A 
ATOM     12  N   UNL     1      -1.339  12.177  22.578  0.00  0.00    +0.000 N 
ENDROOT
BRANCH   1  17
ATOM     13  C   UNL     1       5.574  15.114  18.906  0.00  0.00    +0.000 C 
ATOM     14  N   UNL     1       4.612  15.647  19.867  0.00  0.00    +0.000 NA
ATOM     15  C   UNL     1       4.566  14.807  21.091  0.00  0.00    +0.000 C 
ATOM     16  C   UNL     1       3.489  15.265  22.115  0.00  0.00    +0.000 C 
ATOM     17  N   UNL     1       2.184  15.326  21.434  0.00  0.00    +0.000 N 
ATOM     18  C   UNL     1       2.198  16.214  20.253  0.00  0.00    +0.000 C 
ATOM     19  C   UNL     1       3.265  15.715  19.257  0.00  0.00    +0.000 C 
ENDBRANCH   1  17
BRANCH  12  20
ATOM     20  C   UNL     1      -0.679  11.052  21.946  0.00  0.00    +0.000 A 
ATOM     21  C   UNL     1      -0.050  10.041  22.703  0.00  0.00    +0.000 A 
ATOM     22  C   UNL     1       0.674   9.003  22.101  0.00  0.00    +0.000 A 
ATOM     23  C   UNL     1       0.718   8.906  20.717  0.00  0.00    +0.000 A 
ATOM     24  C   UNL     1       0.043   9.847  19.956  0.00  0.00    +0.000 A 
ATOM     25  F   UNL     1       0.053   9.737  18.620  0.00  0.00    +0.000 F 
ATOM     26  C   UNL     1      -0.635  10.916  20.548  0.00  0.00    +0.000 A 
ENDBRANCH  12  20
BRANCH  10  27
ATOM     27  C   UNL     1      -4.620  12.505  24.410  0.00  0.00    +0.000 C 
ATOM     28  O   UNL     1      -5.587  12.307  23.689  0.00  0.00    +0.000 OA
BRANCH  27  29
ATOM     29  O   UNL     1      -4.696  12.407  25.754  0.00  0.00    +0.000 OA
ATOM     30  H   UNL     1      -4.796  11.485  26.091  0.00  0.00    +0.000 HD
ENDBRANCH  27  29
ENDBRANCH  10  27
TORSDOF 4
ENDMDL
MODEL 6
REMARK VINA RESULT:      -6.8      7.049     10.094
REMARK  Name = 
REMARK  5 active torsions:
REMARK  status: ('A' for Active; 'I' for Inactive)
REMARK    1  A    between atoms: C_1  and  N_2
REMARK    2  A    between atoms: N_5  and  C_6
REMARK    3  A    between atoms: C_15  and  C_16
REMARK    4  A    between atoms: C_16  and  O_18
REMARK    5  A    between atoms: N_20  and  C_21
REMARK                            x       y       z     vdW  Elec       q    Type
REMARK                         _______ _______ _______ _____ _____    ______ ____
ROOT
ATOM      1  C   UNL     1       1.116  15.051  21.798  0.00  0.00    +0.000 A 
ATOM      2  C   UNL     1       0.482  13.797  21.735  0.00  0.00    +0.000 A 
ATOM      3  C   UNL     1      -0.627  13.441  22.512  0.00  0.00    +0.000 A 
ATOM      4  C   UNL     1      -1.203  14.461  23.282  0.00  0.00    +0.000 A 
ATOM      5  C   UNL     1      -0.623  15.737  23.357  0.00  0.00    +0.000 A 
ATOM      6  C   UNL     1       0.542  16.007  22.642  0.00  0.00    +0.000 A 
ATOM      7  F   UNL     1       1.077  17.233  22.749  0.00  0.00    +0.000 F 
ATOM      8  C   UNL     1      -2.466  14.210  23.995  0.00  0.00    +0.000 A 
ATOM      9  O   UNL     1      -3.015  15.070  24.685  0.00  0.00    +0.000 OA
ATOM     10  C   UNL     1      -3.090  12.877  23.846  0.00  0.00    +0.000 A 
ATOM     11  C   UNL     1      -2.408  11.951  23.156  0.00  0.00    +0.000 A 
ATOM     12  N   UNL     1      -1.176  12.107  22.509  0.00  0.00    +0.000 N 
ENDROOT
BRANCH   1  17
ATOM     13  C   UNL     1       6.106  16.270  19.596  0.00  0.00    +0.000 C 
ATOM     14  N   UNL     1       4.842  15.553  19.738  0.00  0.00    +0.000 NA
ATOM     15  C   UNL     1       3.690  16.457  19.492  0.00  0.00    +0.000 C 
ATOM     16  C   UNL     1       2.311  15.778  19.724  0.00  0.00    +0.000 C 
ATOM     17  N   UNL     1       2.287  15.206  21.081  0.00  0.00    +0.000 N 
ATOM     18  C   UNL     1       3.390  14.251  21.317  0.00  0.00    +0.000 C 
ATOM     19  C   UNL     1       4.737  14.968  21.094  0.00  0.00    +0.000 C 
ENDBRANCH   1  17
BRANCH  12  20
ATOM     20  C   UNL     1      -0.527  10.952  21.921  0.00  0.00    +0.000 A 
ATOM     21  C   UNL     1       0.012   9.920  22.717  0.00  0.00    +0.000 A 
ATOM     22  C   UNL     1       0.727   8.850  22.162  0.00  0.00    +0.000 A 
ATOM     23  C   UNL     1       0.848   8.743  20.783  0.00  0.00    +0.000 A 
ATOM     24  C   UNL     1       0.259   9.708  19.980  0.00  0.00    +0.000 A 
ATOM     25  F   UNL     1       0.343   9.591  18.648  0.00  0.00    +0.000 F 
ATOM     26  C   UNL     1      -0.407  10.807  20.529  0.00  0.00    +0.000 A 
ENDBRANCH  12  20
BRANCH  10  27
ATOM     27  C   UNL     1      -4.401  12.520  24.422  0.00  0.00    +0.000 C 
ATOM     28  O   UNL     1      -5.371  12.214  23.745  0.00  0.00    +0.000 OA
BRANCH  27  29
ATOM     29  O   UNL     1      -4.455  12.570  25.770  0.00  0.00    +0.000 OA
ATOM     30  H   UNL     1      -3.586  12.734  26.208  0.00  0.00    +0.000 HD
ENDBRANCH  27  29
ENDBRANCH  10  27
TORSDOF 4
ENDMDL
MODEL 7
REMARK VINA RESULT:      -6.8      7.237     11.771
REMARK  Name = 
REMARK  5 active torsions:
REMARK  status: ('A' for Active; 'I' for Inactive)
REMARK    1  A    between atoms: C_1  and  N_2
REMARK    2  A    between atoms: N_5  and  C_6
REMARK    3  A    between atoms: C_15  and  C_16
REMARK    4  A    between atoms: C_16  and  O_18
REMARK    5  A    between atoms: N_20  and  C_21
REMARK                            x       y       z     vdW  Elec       q    Type
REMARK                         _______ _______ _______ _____ _____    ______ ____
ROOT
ATOM      1  C   UNL     1      -1.841  11.969  21.228  0.00  0.00    +0.000 A 
ATOM      2  C   UNL     1      -3.031  12.526  20.726  0.00  0.00    +0.000 A 
ATOM      3  C   UNL     1      -4.152  12.818  21.513  0.00  0.00    +0.000 A 
ATOM      4  C   UNL     1      -3.996  12.671  22.899  0.00  0.00    +0.000 A 
ATOM      5  C   UNL     1      -2.817  12.145  23.450  0.00  0.00    +0.000 A 
ATOM      6  C   UNL     1      -1.770  11.773  22.610  0.00  0.00    +0.000 A 
ATOM      7  F   UNL     1      -0.664  11.260  23.172  0.00  0.00    +0.000 F 
ATOM      8  C   UNL     1      -5.070  13.115  23.802  0.00  0.00    +0.000 A 
ATOM      9  O   UNL     1      -4.985  13.009  25.027  0.00  0.00    +0.000 OA
ATOM     10  C   UNL     1      -6.274  13.725  23.198  0.00  0.00    +0.000 A 
ATOM     11  C   UNL     1      -6.352  13.737  21.859  0.00  0.00    +0.000 A 
ATOM     12  N   UNL     1      -5.397  13.274  20.946  0.00  0.00    +0.000 N 
ENDROOT
BRANCH   1  17
ATOM     13  C   UNL     1       1.936   9.597  17.860  0.00  0.00    +0.000 C 
ATOM     14  N   UNL     1       1.060  10.654  18.359  0.00  0.00    +0.000 NA
ATOM     15  C   UNL     1       1.454  11.064  19.730  0.00  0.00    +0.000 C 
ATOM     16  C   UNL     1       0.500  12.119  20.358  0.00  0.00    +0.000 C 
ATOM     17  N   UNL     1      -0.878  11.599  20.309  0.00  0.00    +0.000 N 
ATOM     18  C   UNL     1      -1.308  11.251  18.939  0.00  0.00    +0.000 C 
ATOM     19  C   UNL     1      -0.346  10.192  18.361  0.00  0.00    +0.000 C 
ENDBRANCH   1  17
BRANCH  12  20
ATOM     20  C   UNL     1      -5.715  13.249  19.532  0.00  0.00    +0.000 A 
ATOM     21  C   UNL     1      -6.493  14.259  18.930  0.00  0.00    +0.000 A 
ATOM     22  C   UNL     1      -6.887  14.193  17.586  0.00  0.00    +0.000 A 
ATOM     23  C   UNL     1      -6.439  13.149  16.788  0.00  0.00    +0.000 A 
ATOM     24  C   UNL     1      -5.610  12.186  17.343  0.00  0.00    +0.000 A 
ATOM     25  F   UNL     1      -5.146  11.196  16.568  0.00  0.00    +0.000 F 
ATOM     26  C   UNL     1      -5.259  12.217  18.695  0.00  0.00    +0.000 A 
ENDBRANCH  12  20
BRANCH  10  27
ATOM     27  C   UNL     1      -7.380  14.302  23.986  0.00  0.00    +0.000 C 
ATOM     28  O   UNL     1      -7.806  15.434  23.816  0.00  0.00    +0.000 OA
BRANCH  27  29
ATOM     29  O   UNL     1      -7.886  13.480  24.930  0.00  0.00    +0.000 OA
ATOM     30  H   UNL     1      -8.692  12.984  24.651  0.00  0.00    +0.000 HD
ENDBRANCH  27  29
ENDBRANCH  10  27
TORSDOF 4
ENDMDL
MODEL 8
REMARK VINA RESULT:      -6.7      8.855     12.077
REMARK  Name = 
REMARK  5 active torsions:
REMARK  status: ('A' for Active; 'I' for Inactive)
REMARK    1  A    between atoms: C_1  and  N_2
REMARK    2  A    between atoms: N_5  and  C_6
REMARK    3  A    between atoms: C_15  and  C_16
REMARK    4  A    between atoms: C_16  and  O_18
REMARK    5  A    between atoms: N_20  and  C_21
REMARK                            x       y       z     vdW  Elec       q    Type
REMARK                         _______ _______ _______ _____ _____    ______ ____
ROOT
ATOM      1  C   UNL     1      -1.552  13.521  20.638  0.00  0.00    +0.000 A 
ATOM      2  C   UNL     1      -2.039  13.961  21.883  0.00  0.00    +0.000 A 
ATOM      3  C   UNL     1      -3.356  13.770  22.320  0.00  0.00    +0.000 A 
ATOM      4  C   UNL     1      -4.171  12.965  21.511  0.00  0.00    +0.000 A 
ATOM      5  C   UNL     1      -3.721  12.479  20.272  0.00  0.00    +0.000 A 
ATOM      6  C   UNL     1      -2.434  12.788  19.839  0.00  0.00    +0.000 A 
ATOM      7  F   UNL     1      -2.043  12.319  18.643  0.00  0.00    +0.000 F 
ATOM      8  C   UNL     1      -5.511  12.580  21.983  0.00  0.00    +0.000 A 
ATOM      9  O   UNL     1      -6.268  11.876  21.313  0.00  0.00    +0.000 OA
ATOM     10  C   UNL     1      -5.935  13.051  23.319  0.00  0.00    +0.000 A 
ATOM     11  C   UNL     1      -5.110  13.886  23.968  0.00  0.00    +0.000 A 
ATOM     12  N   UNL     1      -3.853  14.339  23.548  0.00  0.00    +0.000 N 
ENDROOT
BRANCH   1  17
ATOM     13  C   UNL     1       3.683  15.402  20.104  0.00  0.00    +0.000 C 
ATOM     14  N   UNL     1       2.467  14.693  19.716  0.00  0.00    +0.000 NA
ATOM     15  C   UNL     1       1.330  15.637  19.569  0.00  0.00    +0.000 C 
ATOM     16  C   UNL     1      -0.020  14.933  19.252  0.00  0.00    +0.000 C 
ATOM     17  N   UNL     1      -0.275  13.912  20.284  0.00  0.00    +0.000 N 
ATOM     18  C   UNL     1       0.819  12.925  20.393  0.00  0.00    +0.000 C 
ATOM     19  C   UNL     1       2.134  13.663  20.724  0.00  0.00    +0.000 C 
ENDBRANCH   1  17
BRANCH  12  20
ATOM     20  C   UNL     1      -3.160  15.346  24.327  0.00  0.00    +0.000 A 
ATOM     21  C   UNL     1      -3.406  16.722  24.144  0.00  0.00    +0.000 A 
ATOM     22  C   UNL     1      -2.671  17.705  24.822  0.00  0.00    +0.000 A 
ATOM     23  C   UNL     1      -1.724  17.329  25.766  0.00  0.00    +0.000 A 
ATOM     24  C   UNL     1      -1.522  15.980  26.014  0.00  0.00    +0.000 A 
ATOM     25  F   UNL     1      -0.635  15.613  26.948  0.00  0.00    +0.000 F 
ATOM     26  C   UNL     1      -2.211  14.995  25.302  0.00  0.00    +0.000 A 
ENDBRANCH  12  20
BRANCH  10  27
ATOM     27  C   UNL     1      -7.208  12.662  23.957  0.00  0.00    +0.000 C 
ATOM     28  O   UNL     1      -7.916  13.445  24.572  0.00  0.00    +0.000 OA
BRANCH  27  29
ATOM     29  O   UNL     1      -7.528  11.358  23.822  0.00  0.00    +0.000 OA
ATOM     30  H   UNL     1      -8.497  11.171  23.847  0.00  0.00    +0.000 HD
ENDBRANCH  27  29
ENDBRANCH  10  27
TORSDOF 4
ENDMDL
MODEL 9
REMARK VINA RESULT:      -6.7      8.351     10.370
REMARK  Name = 
REMARK  5 active torsions:
REMARK  status: ('A' for Active; 'I' for Inactive)
REMARK    1  A    between atoms: C_1  and  N_2
REMARK    2  A    between atoms: N_5  and  C_6
REMARK    3  A    between atoms: C_15  and  C_16
REMARK    4  A    between atoms: C_16  and  O_18
REMARK    5  A    between atoms: N_20  and  C_21
REMARK                            x       y       z     vdW  Elec       q    Type
REMARK                         _______ _______ _______ _____ _____    ______ ____
ROOT
ATOM      1  C   UNL     1      -0.599  13.884  20.780  0.00  0.00    +0.000 A 
ATOM      2  C   UNL     1      -1.559  13.259  19.964  0.00  0.00    +0.000 A 
ATOM      3  C   UNL     1      -2.837  12.892  20.400  0.00  0.00    +0.000 A 
ATOM      4  C   UNL     1      -3.203  13.315  21.686  0.00  0.00    +0.000 A 
ATOM      5  C   UNL     1      -2.290  13.967  22.529  0.00  0.00    +0.000 A 
ATOM      6  C   UNL     1      -0.994  14.215  22.080  0.00  0.00    +0.000 A 
ATOM      7  F   UNL     1      -0.144  14.827  22.918  0.00  0.00    +0.000 F 
ATOM      8  C   UNL     1      -4.585  13.114  22.152  0.00  0.00    +0.000 A 
ATOM      9  O   UNL     1      -4.960  13.466  23.271  0.00  0.00    +0.000 OA
ATOM     10  C   UNL     1      -5.544  12.484  21.220  0.00  0.00    +0.000 A 
ATOM     11  C   UNL     1      -5.064  12.041  20.048  0.00  0.00    +0.000 A 
ATOM     12  N   UNL     1      -3.752  12.144  19.572  0.00  0.00    +0.000 N 
ENDROOT
BRANCH   1  17
ATOM     13  C   UNL     1       4.665  15.145  19.389  0.00  0.00    +0.000 C 
ATOM     14  N   UNL     1       3.398  14.421  19.326  0.00  0.00    +0.000 NA
ATOM     15  C   UNL     1       2.294  15.324  18.914  0.00  0.00    +0.000 C 
ATOM     16  C   UNL     1       0.898  14.638  18.923  0.00  0.00    +0.000 C 
ATOM     17  N   UNL     1       0.668  14.051  20.255  0.00  0.00    +0.000 N 
ATOM     18  C   UNL     1       1.726  13.097  20.649  0.00  0.00    +0.000 C 
ATOM     19  C   UNL     1       3.088  13.822  20.643  0.00  0.00    +0.000 C 
ENDBRANCH   1  17
BRANCH  12  20
ATOM     20  C   UNL     1      -3.388  11.487  18.333  0.00  0.00    +0.000 A 
ATOM     21  C   UNL     1      -4.164  11.631  17.163  0.00  0.00    +0.000 A 
ATOM     22  C   UNL     1      -3.875  10.922  15.988  0.00  0.00    +0.000 A 
ATOM     23  C   UNL     1      -2.749  10.113  15.931  0.00  0.00    +0.000 A 
ATOM     24  C   UNL     1      -1.931  10.018  17.046  0.00  0.00    +0.000 A 
ATOM     25  F   UNL     1      -0.825   9.266  16.984  0.00  0.00    +0.000 F 
ATOM     26  C   UNL     1      -2.244  10.677  18.238  0.00  0.00    +0.000 A 
ENDBRANCH  12  20
BRANCH  10  27
ATOM     27  C   UNL     1      -6.979  12.311  21.517  0.00  0.00    +0.000 C 
ATOM     28  O   UNL     1      -7.535  11.223  21.534  0.00  0.00    +0.000 OA
BRANCH  27  29
ATOM     29  O   UNL     1      -7.646  13.460  21.758  0.00  0.00    +0.000 OA
ATOM     30  H   UNL     1      -7.437  13.879  22.626  0.00  0.00    +0.000 HD
ENDBRANCH  27  29
ENDBRANCH  10  27
TORSDOF 4
ENDMDL
