MODEL 1
REMARK VINA RESULT:      -8.5      0.000      0.000
REMARK  Name = 
REMARK  11 active torsions:
REMARK  status: ('A' for Active; 'I' for Inactive)
REMARK    1  A    between atoms: C_1  and  C_2
REMARK    2  A    between atoms: C_6  and  C_7
REMARK    3  A    between atoms: C_9  and  C_10
REMARK    4  A    between atoms: C_10  and  O_11
REMARK    5  A    between atoms: O_11  and  C_12
REMARK    6  A    between atoms: C_14  and  N_15
REMARK    7  A    between atoms: N_15  and  C_16
REMARK    8  A    between atoms: C_16  and  C_17
REMARK    9  A    between atoms: C_19  and  C_20
REMARK   10  A    between atoms: N_22  and  C_23
REMARK   11  A    between atoms: N_26  and  C_27
REMARK                            x       y       z     vdW  Elec       q    Type
REMARK                         _______ _______ _______ _____ _____    ______ ____
ROOT
ATOM      1  C   UNL     1       2.205   6.042  20.032  0.00  0.00    +0.000 A 
ATOM      2  C   UNL     1       2.825   5.802  18.737  0.00  0.00    +0.000 A 
ATOM      3  C   UNL     1       3.024   4.530  18.390  0.00  0.00    +0.000 A 
ATOM      4  C   UNL     1       2.489   3.436  19.289  0.00  0.00    +0.000 A 
ATOM      5  O   UNL     1       2.638   2.262  18.944  0.00  0.00    +0.000 OA
ATOM      6  N   UNL     1       1.836   3.846  20.452  0.00  0.00    +0.000 N 
ATOM      7  C   UNL     1       1.223   2.869  21.334  0.00  0.00    +0.000 C 
ATOM      8  N   UNL     1       1.735   5.169  20.855  0.00  0.00    +0.000 NA
ENDROOT
BRANCH   3   9
ATOM      9  N   UNL     1       3.773   4.171  17.267  0.00  0.00    +0.000 N 
ATOM     10  H   UNL     1       3.779   4.984  16.643  0.00  0.00    +0.000 HD
BRANCH   9  11
ATOM     11  C   UNL     1       5.169   3.769  17.401  0.00  0.00    +0.000 C 
BRANCH  11  12
ATOM     12  C   UNL     1       6.077   4.931  17.222  0.00  0.00    +0.000 A 
ATOM     13  C   UNL     1       6.415   5.958  18.080  0.00  0.00    +0.000 A 
ATOM     14  C   UNL     1       7.284   6.790  17.341  0.00  0.00    +0.000 A 
ATOM     15  C   UNL     1       7.925   8.056  17.767  0.00  0.00    +0.000 C 
ATOM     16  N   UNL     1       7.499   6.310  16.111  0.00  0.00    +0.000 NA
ATOM     17  N   UNL     1       6.741   5.199  16.053  0.00  0.00    +0.000 N 
ATOM     18  C   UNL     1       6.692   4.444  14.823  0.00  0.00    +0.000 C 
ENDBRANCH  11  12
ENDBRANCH   9  11
ENDBRANCH   3   9
BRANCH   1  19
ATOM     19  O   UNL     1       2.230   7.367  20.254  0.00  0.00    +0.000 OA
BRANCH  19  20
ATOM     20  C   UNL     1       1.892   8.248  19.174  0.00  0.00    +0.000 C 
BRANCH  20  23
ATOM     21  C   UNL     1       0.404  10.355  18.925  0.00  0.00    +0.000 C 
ATOM     22  C   UNL     1       0.873  10.392  20.359  0.00  0.00    +0.000 C 
ATOM     23  C   UNL     1       0.737   9.068  19.659  0.00  0.00    +0.000 C 
BRANCH  21  29
ATOM     24  C   UNL     1      -2.872   9.784  15.385  0.00  0.00    +0.000 C 
ATOM     25  C   UNL     1      -2.578  10.353  16.739  0.00  0.00    +0.000 A 
ATOM     26  C   UNL     1      -3.492  11.166  17.393  0.00  0.00    +0.000 A 
ATOM     27  C   UNL     1      -3.152  11.674  18.640  0.00  0.00    +0.000 A 
ATOM     28  C   UNL     1      -1.906  11.372  19.186  0.00  0.00    +0.000 A 
ATOM     29  C   UNL     1      -1.018  10.570  18.473  0.00  0.00    +0.000 A 
ATOM     30  N   UNL     1      -1.366  10.052  17.266  0.00  0.00    +0.000 NA
ENDBRANCH  21  29
ENDBRANCH  20  23
ENDBRANCH  19  20
ENDBRANCH   1  19
TORSDOF 7
ENDMDL
MODEL 2
REMARK VINA RESULT:      -8.2      0.895      2.114
REMARK  Name = 
REMARK  11 active torsions:
REMARK  status: ('A' for Active; 'I' for Inactive)
REMARK    1  A    between atoms: C_1  and  C_2
REMARK    2  A    between atoms: C_6  and  C_7
REMARK    3  A    between atoms: C_9  and  C_10
REMARK    4  A    between atoms: C_10  and  O_11
REMARK    5  A    between atoms: O_11  and  C_12
REMARK    6  A    between atoms: C_14  and  N_15
REMARK    7  A    between atoms: N_15  and  C_16
REMARK    8  A    between atoms: C_16  and  C_17
REMARK    9  A    between atoms: C_19  and  C_20
REMARK   10  A    between atoms: N_22  and  C_23
REMARK   11  A    between atoms: N_26  and  C_27
REMARK                            x       y       z     vdW  Elec       q    Type
REMARK                         _______ _______ _______ _____ _____    ______ ____
ROOT
ATOM      1  C   UNL     1       2.134   6.247  19.927  0.00  0.00    +0.000 A 
ATOM      2  C   UNL     1       2.697   6.032  18.602  0.00  0.00    +0.000 A 
ATOM      3  C   UNL     1       2.929   4.770  18.242  0.00  0.00    +0.000 A 
ATOM      4  C   UNL     1       2.484   3.655  19.165  0.00  0.00    +0.000 A 
ATOM      5  O   UNL     1       2.663   2.488  18.810  0.00  0.00    +0.000 OA
ATOM      6  N   UNL     1       1.875   4.038  20.360  0.00  0.00    +0.000 N 
ATOM      7  C   UNL     1       1.347   3.037  21.269  0.00  0.00    +0.000 C 
ATOM      8  N   UNL     1       1.741   5.356  20.771  0.00  0.00    +0.000 NA
ENDROOT
BRANCH   3   9
ATOM      9  N   UNL     1       3.633   4.441  17.081  0.00  0.00    +0.000 N 
ATOM     10  H   UNL     1       3.739   5.307  16.544  0.00  0.00    +0.000 HD
BRANCH   9  11
ATOM     11  C   UNL     1       4.971   3.864  17.161  0.00  0.00    +0.000 C 
BRANCH  11  12
ATOM     12  C   UNL     1       5.831   4.357  16.056  0.00  0.00    +0.000 A 
ATOM     13  C   UNL     1       5.860   4.032  14.714  0.00  0.00    +0.000 A 
ATOM     14  C   UNL     1       6.919   4.790  14.170  0.00  0.00    +0.000 A 
ATOM     15  C   UNL     1       7.412   4.805  12.773  0.00  0.00    +0.000 C 
ATOM     16  N   UNL     1       7.504   5.558  15.096  0.00  0.00    +0.000 NA
ATOM     17  N   UNL     1       6.845   5.262  16.233  0.00  0.00    +0.000 N 
ATOM     18  C   UNL     1       7.261   5.885  17.468  0.00  0.00    +0.000 C 
ENDBRANCH  11  12
ENDBRANCH   9  11
ENDBRANCH   3   9
BRANCH   1  19
ATOM     19  O   UNL     1       2.118   7.572  20.150  0.00  0.00    +0.000 OA
BRANCH  19  20
ATOM     20  C   UNL     1       1.870   8.449  19.043  0.00  0.00    +0.000 C 
BRANCH  20  23
ATOM     21  C   UNL     1       0.357  10.497  18.564  0.00  0.00    +0.000 C 
ATOM     22  C   UNL     1       0.927  10.763  19.935  0.00  0.00    +0.000 C 
ATOM     23  C   UNL     1       0.748   9.343  19.470  0.00  0.00    +0.000 C 
BRANCH  21  29
ATOM     24  C   UNL     1      -3.955  12.453  19.650  0.00  0.00    +0.000 C 
ATOM     25  C   UNL     1      -3.188  11.535  18.749  0.00  0.00    +0.000 A 
ATOM     26  C   UNL     1      -3.830  10.758  17.796  0.00  0.00    +0.000 A 
ATOM     27  C   UNL     1      -3.062   9.916  17.002  0.00  0.00    +0.000 A 
ATOM     28  C   UNL     1      -1.684   9.860  17.196  0.00  0.00    +0.000 A 
ATOM     29  C   UNL     1      -1.095  10.645  18.185  0.00  0.00    +0.000 A 
ATOM     30  N   UNL     1      -1.847  11.488  18.940  0.00  0.00    +0.000 NA
ENDBRANCH  21  29
ENDBRANCH  20  23
ENDBRANCH  19  20
ENDBRANCH   1  19
TORSDOF 7
ENDMDL
MODEL 3
REMARK VINA RESULT:      -8.2      1.532      2.522
REMARK  Name = 
REMARK  11 active torsions:
REMARK  status: ('A' for Active; 'I' for Inactive)
REMARK    1  A    between atoms: C_1  and  C_2
REMARK    2  A    between atoms: C_6  and  C_7
REMARK    3  A    between atoms: C_9  and  C_10
REMARK    4  A    between atoms: C_10  and  O_11
REMARK    5  A    between atoms: O_11  and  C_12
REMARK    6  A    between atoms: C_14  and  N_15
REMARK    7  A    between atoms: N_15  and  C_16
REMARK    8  A    between atoms: C_16  and  C_17
REMARK    9  A    between atoms: C_19  and  C_20
REMARK   10  A    between atoms: N_22  and  C_23
REMARK   11  A    between atoms: N_26  and  C_27
REMARK                            x       y       z     vdW  Elec       q    Type
REMARK                         _______ _______ _______ _____ _____    ______ ____
ROOT
ATOM      1  C   UNL     1       2.130   5.143  20.069  0.00  0.00    +0.000 A 
ATOM      2  C   UNL     1       3.556   5.070  19.781  0.00  0.00    +0.000 A 
ATOM      3  C   UNL     1       4.007   3.931  19.257  0.00  0.00    +0.000 A 
ATOM      4  C   UNL     1       3.011   2.853  18.884  0.00  0.00    +0.000 A 
ATOM      5  O   UNL     1       3.429   1.818  18.361  0.00  0.00    +0.000 OA
ATOM      6  N   UNL     1       1.668   3.126  19.145  0.00  0.00    +0.000 N 
ATOM      7  C   UNL     1       0.637   2.185  18.749  0.00  0.00    +0.000 C 
ATOM      8  N   UNL     1       1.224   4.269  19.793  0.00  0.00    +0.000 NA
ENDROOT
BRANCH   3   9
ATOM      9  N   UNL     1       5.371   3.665  19.109  0.00  0.00    +0.000 N 
ATOM     10  H   UNL     1       5.448   2.839  18.508  0.00  0.00    +0.000 HD
BRANCH   9  11
ATOM     11  C   UNL     1       6.263   4.660  18.522  0.00  0.00    +0.000 C 
BRANCH  11  12
ATOM     12  C   UNL     1       6.075   4.742  17.052  0.00  0.00    +0.000 A 
ATOM     13  C   UNL     1       6.175   3.778  16.068  0.00  0.00    +0.000 A 
ATOM     14  C   UNL     1       5.932   4.457  14.854  0.00  0.00    +0.000 A 
ATOM     15  C   UNL     1       5.946   3.909  13.478  0.00  0.00    +0.000 C 
ATOM     16  N   UNL     1       5.676   5.754  15.057  0.00  0.00    +0.000 NA
ATOM     17  N   UNL     1       5.790   5.909  16.390  0.00  0.00    +0.000 N 
ATOM     18  C   UNL     1       5.626   7.225  16.962  0.00  0.00    +0.000 C 
ENDBRANCH  11  12
ENDBRANCH   9  11
ENDBRANCH   3   9
BRANCH   1  19
ATOM     19  O   UNL     1       1.908   6.296  20.721  0.00  0.00    +0.000 OA
BRANCH  19  20
ATOM     20  C   UNL     1       2.066   7.529  20.005  0.00  0.00    +0.000 C 
BRANCH  20  23
ATOM     21  C   UNL     1       0.969   9.875  20.078  0.00  0.00    +0.000 C 
ATOM     22  C   UNL     1       0.991   9.424  21.518  0.00  0.00    +0.000 C 
ATOM     23  C   UNL     1       0.920   8.397  20.422  0.00  0.00    +0.000 C 
BRANCH  21  29
ATOM     24  C   UNL     1      -2.913  12.776  20.425  0.00  0.00    +0.000 C 
ATOM     25  C   UNL     1      -2.129  11.830  19.568  0.00  0.00    +0.000 A 
ATOM     26  C   UNL     1      -2.599  11.423  18.328  0.00  0.00    +0.000 A 
ATOM     27  C   UNL     1      -1.831  10.532  17.589  0.00  0.00    +0.000 A 
ATOM     28  C   UNL     1      -0.631  10.060  18.117  0.00  0.00    +0.000 A 
ATOM     29  C   UNL     1      -0.221  10.483  19.379  0.00  0.00    +0.000 A 
ATOM     30  N   UNL     1      -0.961  11.377  20.086  0.00  0.00    +0.000 NA
ENDBRANCH  21  29
ENDBRANCH  20  23
ENDBRANCH  19  20
ENDBRANCH   1  19
TORSDOF 7
ENDMDL
MODEL 4
REMARK VINA RESULT:      -8.1      2.191      2.875
REMARK  Name = 
REMARK  11 active torsions:
REMARK  status: ('A' for Active; 'I' for Inactive)
REMARK    1  A    between atoms: C_1  and  C_2
REMARK    2  A    between atoms: C_6  and  C_7
REMARK    3  A    between atoms: C_9  and  C_10
REMARK    4  A    between atoms: C_10  and  O_11
REMARK    5  A    between atoms: O_11  and  C_12
REMARK    6  A    between atoms: C_14  and  N_15
REMARK    7  A    between atoms: N_15  and  C_16
REMARK    8  A    between atoms: C_16  and  C_17
REMARK    9  A    between atoms: C_19  and  C_20
REMARK   10  A    between atoms: N_22  and  C_23
REMARK   11  A    between atoms: N_26  and  C_27
REMARK                            x       y       z     vdW  Elec       q    Type
REMARK                         _______ _______ _______ _____ _____    ______ ____
ROOT
ATOM      1  C   UNL     1       2.687   5.830  19.538  0.00  0.00    +0.000 A 
ATOM      2  C   UNL     1       4.126   5.692  19.360  0.00  0.00    +0.000 A 
ATOM      3  C   UNL     1       4.600   4.455  19.220  0.00  0.00    +0.000 A 
ATOM      4  C   UNL     1       3.622   3.303  19.130  0.00  0.00    +0.000 A 
ATOM      5  O   UNL     1       4.063   2.165  18.959  0.00  0.00    +0.000 OA
ATOM      6  N   UNL     1       2.268   3.625  19.228  0.00  0.00    +0.000 N 
ATOM      7  C   UNL     1       1.255   2.596  19.073  0.00  0.00    +0.000 C 
ATOM      8  N   UNL     1       1.794   4.903  19.484  0.00  0.00    +0.000 NA
ENDROOT
BRANCH   3   9
ATOM      9  N   UNL     1       5.969   4.174  19.230  0.00  0.00    +0.000 N 
ATOM     10  H   UNL     1       6.066   3.183  19.471  0.00  0.00    +0.000 HD
BRANCH   9  11
ATOM     11  C   UNL     1       6.776   4.365  18.029  0.00  0.00    +0.000 C 
BRANCH  11  12
ATOM     12  C   UNL     1       7.096   5.801  17.825  0.00  0.00    +0.000 A 
ATOM     13  C   UNL     1       7.951   6.645  18.505  0.00  0.00    +0.000 A 
ATOM     14  C   UNL     1       7.802   7.905  17.885  0.00  0.00    +0.000 A 
ATOM     15  C   UNL     1       8.463   9.184  18.234  0.00  0.00    +0.000 C 
ATOM     16  N   UNL     1       6.931   7.855  16.870  0.00  0.00    +0.000 NA
ATOM     17  N   UNL     1       6.500   6.580  16.868  0.00  0.00    +0.000 N 
ATOM     18  C   UNL     1       5.490   6.181  15.915  0.00  0.00    +0.000 C 
ENDBRANCH  11  12
ENDBRANCH   9  11
ENDBRANCH   3   9
BRANCH   1  19
ATOM     19  O   UNL     1       2.435   7.122  19.807  0.00  0.00    +0.000 OA
BRANCH  19  20
ATOM     20  C   UNL     1       1.996   7.971  18.738  0.00  0.00    +0.000 C 
BRANCH  20  23
ATOM     21  C   UNL     1       0.213   9.741  19.371  0.00  0.00    +0.000 C 
ATOM     22  C   UNL     1       1.255  10.514  18.601  0.00  0.00    +0.000 C 
ATOM     23  C   UNL     1       1.662   9.287  19.369  0.00  0.00    +0.000 C 
BRANCH  21  29
ATOM     24  C   UNL     1      -2.024  13.269  21.851  0.00  0.00    +0.000 C 
ATOM     25  C   UNL     1      -1.414  11.902  21.894  0.00  0.00    +0.000 A 
ATOM     26  C   UNL     1      -1.262  11.217  23.090  0.00  0.00    +0.000 A 
ATOM     27  C   UNL     1      -0.675   9.959  23.063  0.00  0.00    +0.000 A 
ATOM     28  C   UNL     1      -0.239   9.432  21.849  0.00  0.00    +0.000 A 
ATOM     29  C   UNL     1      -0.395  10.175  20.681  0.00  0.00    +0.000 A 
ATOM     30  N   UNL     1      -0.996  11.394  20.708  0.00  0.00    +0.000 NA
ENDBRANCH  21  29
ENDBRANCH  20  23
ENDBRANCH  19  20
ENDBRANCH   1  19
TORSDOF 7
ENDMDL
MODEL 5
REMARK VINA RESULT:      -8.1      1.096      1.337
REMARK  Name = 
REMARK  11 active torsions:
REMARK  status: ('A' for Active; 'I' for Inactive)
REMARK    1  A    between atoms: C_1  and  C_2
REMARK    2  A    between atoms: C_6  and  C_7
REMARK    3  A    between atoms: C_9  and  C_10
REMARK    4  A    between atoms: C_10  and  O_11
REMARK    5  A    between atoms: O_11  and  C_12
REMARK    6  A    between atoms: C_14  and  N_15
REMARK    7  A    between atoms: N_15  and  C_16
REMARK    8  A    between atoms: C_16  and  C_17
REMARK    9  A    between atoms: C_19  and  C_20
REMARK   10  A    between atoms: N_22  and  C_23
REMARK   11  A    between atoms: N_26  and  C_27
REMARK                            x       y       z     vdW  Elec       q    Type
REMARK                         _______ _______ _______ _____ _____    ______ ____
ROOT
ATOM      1  C   UNL     1       2.302   5.581  20.170  0.00  0.00    +0.000 A 
ATOM      2  C   UNL     1       3.539   5.339  19.441  0.00  0.00    +0.000 A 
ATOM      3  C   UNL     1       4.113   4.148  19.604  0.00  0.00    +0.000 A 
ATOM      4  C   UNL     1       3.394   3.096  20.421  0.00  0.00    +0.000 A 
ATOM      5  O   UNL     1       3.909   1.982  20.535  0.00  0.00    +0.000 OA
ATOM      6  N   UNL     1       2.169   3.467  20.976  0.00  0.00    +0.000 N 
ATOM      7  C   UNL     1       1.372   2.500  21.709  0.00  0.00    +0.000 C 
ATOM      8  N   UNL     1       1.637   4.745  20.891  0.00  0.00    +0.000 NA
ENDROOT
BRANCH   3   9
ATOM      9  N   UNL     1       5.389   3.860  19.112  0.00  0.00    +0.000 N 
ATOM     10  H   UNL     1       5.566   2.870  19.310  0.00  0.00    +0.000 HD
BRANCH   9  11
ATOM     11  C   UNL     1       5.698   4.036  17.696  0.00  0.00    +0.000 C 
BRANCH  11  12
ATOM     12  C   UNL     1       6.501   5.265  17.476  0.00  0.00    +0.000 A 
ATOM     13  C   UNL     1       6.861   6.282  18.338  0.00  0.00    +0.000 A 
ATOM     14  C   UNL     1       7.587   7.200  17.550  0.00  0.00    +0.000 A 
ATOM     15  C   UNL     1       8.184   8.492  17.962  0.00  0.00    +0.000 C 
ATOM     16  N   UNL     1       7.699   6.783  16.284  0.00  0.00    +0.000 NA
ATOM     17  N   UNL     1       7.015   5.624  16.257  0.00  0.00    +0.000 N 
ATOM     18  C   UNL     1       6.884   4.914  15.005  0.00  0.00    +0.000 C 
ENDBRANCH  11  12
ENDBRANCH   9  11
ENDBRANCH   3   9
BRANCH   1  19
ATOM     19  O   UNL     1       1.971   6.870  19.990  0.00  0.00    +0.000 OA
BRANCH  19  20
ATOM     20  C   UNL     1       2.279   7.487  18.734  0.00  0.00    +0.000 C 
BRANCH  20  23
ATOM     21  C   UNL     1       0.871   9.475  17.852  0.00  0.00    +0.000 C 
ATOM     22  C   UNL     1       2.279  10.013  17.923  0.00  0.00    +0.000 C 
ATOM     23  C   UNL     1       1.857   8.918  18.863  0.00  0.00    +0.000 C 
BRANCH  21  29
ATOM     24  C   UNL     1      -3.815  10.546  17.149  0.00  0.00    +0.000 C 
ATOM     25  C   UNL     1      -2.596  10.755  17.994  0.00  0.00    +0.000 A 
ATOM     26  C   UNL     1      -2.585  11.680  19.028  0.00  0.00    +0.000 A 
ATOM     27  C   UNL     1      -1.418  11.836  19.764  0.00  0.00    +0.000 A 
ATOM     28  C   UNL     1      -0.294  11.082  19.434  0.00  0.00    +0.000 A 
ATOM     29  C   UNL     1      -0.355  10.185  18.369  0.00  0.00    +0.000 A 
ATOM     30  N   UNL     1      -1.508  10.015  17.670  0.00  0.00    +0.000 NA
ENDBRANCH  21  29
ENDBRANCH  20  23
ENDBRANCH  19  20
ENDBRANCH   1  19
TORSDOF 7
ENDMDL
MODEL 6
REMARK VINA RESULT:      -8.0      2.189      3.196
REMARK  Name = 
REMARK  11 active torsions:
REMARK  status: ('A' for Active; 'I' for Inactive)
REMARK    1  A    between atoms: C_1  and  C_2
REMARK    2  A    between atoms: C_6  and  C_7
REMARK    3  A    between atoms: C_9  and  C_10
REMARK    4  A    between atoms: C_10  and  O_11
REMARK    5  A    between atoms: O_11  and  C_12
REMARK    6  A    between atoms: C_14  and  N_15
REMARK    7  A    between atoms: N_15  and  C_16
REMARK    8  A    between atoms: C_16  and  C_17
REMARK    9  A    between atoms: C_19  and  C_20
REMARK   10  A    between atoms: N_22  and  C_23
REMARK   11  A    between atoms: N_26  and  C_27
REMARK                            x       y       z     vdW  Elec       q    Type
REMARK                         _______ _______ _______ _____ _____    ______ ____
ROOT
ATOM      1  C   UNL     1       2.578   5.589  19.402  0.00  0.00    +0.000 A 
ATOM      2  C   UNL     1       4.007   5.361  19.236  0.00  0.00    +0.000 A 
ATOM      3  C   UNL     1       4.399   4.100  19.055  0.00  0.00    +0.000 A 
ATOM      4  C   UNL     1       3.347   3.021  18.912  0.00  0.00    +0.000 A 
ATOM      5  O   UNL     1       3.713   1.863  18.703  0.00  0.00    +0.000 OA
ATOM      6  N   UNL     1       2.016   3.430  19.006  0.00  0.00    +0.000 N 
ATOM      7  C   UNL     1       0.939   2.478  18.803  0.00  0.00    +0.000 C 
ATOM      8  N   UNL     1       1.626   4.726  19.305  0.00  0.00    +0.000 NA
ENDROOT
BRANCH   3   9
ATOM      9  N   UNL     1       5.746   3.728  19.069  0.00  0.00    +0.000 N 
ATOM     10  H   UNL     1       5.816   2.851  18.543  0.00  0.00    +0.000 HD
BRANCH   9  11
ATOM     11  C   UNL     1       6.766   4.605  18.505  0.00  0.00    +0.000 C 
BRANCH  11  12
ATOM     12  C   UNL     1       6.591   4.751  17.038  0.00  0.00    +0.000 A 
ATOM     13  C   UNL     1       6.504   3.806  16.035  0.00  0.00    +0.000 A 
ATOM     14  C   UNL     1       6.389   4.542  14.837  0.00  0.00    +0.000 A 
ATOM     15  C   UNL     1       6.293   4.029  13.450  0.00  0.00    +0.000 C 
ATOM     16  N   UNL     1       6.381   5.860  15.066  0.00  0.00    +0.000 NA
ATOM     17  N   UNL     1       6.528   5.963  16.400  0.00  0.00    +0.000 N 
ATOM     18  C   UNL     1       6.616   7.275  16.999  0.00  0.00    +0.000 C 
ENDBRANCH  11  12
ENDBRANCH   9  11
ENDBRANCH   3   9
BRANCH   1  19
ATOM     19  O   UNL     1       2.409   6.884  19.716  0.00  0.00    +0.000 OA
BRANCH  19  20
ATOM     20  C   UNL     1       2.013   7.794  18.681  0.00  0.00    +0.000 C 
BRANCH  20  23
ATOM     21  C   UNL     1       0.333   9.652  19.344  0.00  0.00    +0.000 C 
ATOM     22  C   UNL     1       1.446  10.385  18.638  0.00  0.00    +0.000 C 
ATOM     23  C   UNL     1       1.747   9.101  19.361  0.00  0.00    +0.000 C 
BRANCH  21  29
ATOM     24  C   UNL     1      -1.929  13.144  21.850  0.00  0.00    +0.000 C 
ATOM     25  C   UNL     1      -1.315  11.779  21.881  0.00  0.00    +0.000 A 
ATOM     26  C   UNL     1      -1.169  11.081  23.071  0.00  0.00    +0.000 A 
ATOM     27  C   UNL     1      -0.578   9.824  23.032  0.00  0.00    +0.000 A 
ATOM     28  C   UNL     1      -0.134   9.313  21.815  0.00  0.00    +0.000 A 
ATOM     29  C   UNL     1      -0.285  10.069  20.655  0.00  0.00    +0.000 A 
ATOM     30  N   UNL     1      -0.889  11.285  20.692  0.00  0.00    +0.000 NA
ENDBRANCH  21  29
ENDBRANCH  20  23
ENDBRANCH  19  20
ENDBRANCH   1  19
TORSDOF 7
ENDMDL
MODEL 7
REMARK VINA RESULT:      -8.0      1.605      2.140
REMARK  Name = 
REMARK  11 active torsions:
REMARK  status: ('A' for Active; 'I' for Inactive)
REMARK    1  A    between atoms: C_1  and  C_2
REMARK    2  A    between atoms: C_6  and  C_7
REMARK    3  A    between atoms: C_9  and  C_10
REMARK    4  A    between atoms: C_10  and  O_11
REMARK    5  A    between atoms: O_11  and  C_12
REMARK    6  A    between atoms: C_14  and  N_15
REMARK    7  A    between atoms: N_15  and  C_16
REMARK    8  A    between atoms: C_16  and  C_17
REMARK    9  A    between atoms: C_19  and  C_20
REMARK   10  A    between atoms: N_22  and  C_23
REMARK   11  A    between atoms: N_26  and  C_27
REMARK                            x       y       z     vdW  Elec       q    Type
REMARK                         _______ _______ _______ _____ _____    ______ ____
ROOT
ATOM      1  C   UNL     1       2.307   5.618  19.462  0.00  0.00    +0.000 A 
ATOM      2  C   UNL     1       3.757   5.680  19.352  0.00  0.00    +0.000 A 
ATOM      3  C   UNL     1       4.408   4.518  19.296  0.00  0.00    +0.000 A 
ATOM      4  C   UNL     1       3.607   3.235  19.223  0.00  0.00    +0.000 A 
ATOM      5  O   UNL     1       4.212   2.166  19.129  0.00  0.00    +0.000 OA
ATOM      6  N   UNL     1       2.218   3.364  19.247  0.00  0.00    +0.000 N 
ATOM      7  C   UNL     1       1.369   2.195  19.103  0.00  0.00    +0.000 C 
ATOM      8  N   UNL     1       1.557   4.571  19.418  0.00  0.00    +0.000 NA
ENDROOT
BRANCH   3   9
ATOM      9  N   UNL     1       5.800   4.436  19.376  0.00  0.00    +0.000 N 
ATOM     10  H   UNL     1       6.020   3.520  19.778  0.00  0.00    +0.000 HD
BRANCH   9  11
ATOM     11  C   UNL     1       6.623   4.545  18.176  0.00  0.00    +0.000 C 
BRANCH  11  12
ATOM     12  C   UNL     1       7.009   5.956  17.921  0.00  0.00    +0.000 A 
ATOM     13  C   UNL     1       7.943   6.767  18.534  0.00  0.00    +0.000 A 
ATOM     14  C   UNL     1       7.829   8.019  17.891  0.00  0.00    +0.000 A 
ATOM     15  C   UNL     1       8.576   9.266  18.174  0.00  0.00    +0.000 C 
ATOM     16  N   UNL     1       6.904   7.995  16.925  0.00  0.00    +0.000 NA
ATOM     17  N   UNL     1       6.405   6.746  16.976  0.00  0.00    +0.000 N 
ATOM     18  C   UNL     1       5.326   6.382  16.087  0.00  0.00    +0.000 C 
ENDBRANCH  11  12
ENDBRANCH   9  11
ENDBRANCH   3   9
BRANCH   1  19
ATOM     19  O   UNL     1       1.862   6.871  19.654  0.00  0.00    +0.000 OA
BRANCH  19  20
ATOM     20  C   UNL     1       1.923   7.424  20.975  0.00  0.00    +0.000 C 
BRANCH  20  23
ATOM     21  C   UNL     1       0.914   9.781  20.601  0.00  0.00    +0.000 C 
ATOM     22  C   UNL     1       0.671   9.495  22.062  0.00  0.00    +0.000 C 
ATOM     23  C   UNL     1       0.754   8.352  21.088  0.00  0.00    +0.000 C 
BRANCH  21  29
ATOM     24  C   UNL     1      -3.027  12.558  20.003  0.00  0.00    +0.000 C 
ATOM     25  C   UNL     1      -2.053  11.612  19.369  0.00  0.00    +0.000 A 
ATOM     26  C   UNL     1      -2.236  11.151  18.074  0.00  0.00    +0.000 A 
ATOM     27  C   UNL     1      -1.305  10.264  17.550  0.00  0.00    +0.000 A 
ATOM     28  C   UNL     1      -0.234   9.849  18.339  0.00  0.00    +0.000 A 
ATOM     29  C   UNL     1      -0.114  10.326  19.642  0.00  0.00    +0.000 A 
ATOM     30  N   UNL     1      -1.012  11.216  20.141  0.00  0.00    +0.000 NA
ENDBRANCH  21  29
ENDBRANCH  20  23
ENDBRANCH  19  20
ENDBRANCH   1  19
TORSDOF 7
ENDMDL
MODEL 8
REMARK VINA RESULT:      -7.9      2.226      2.544
REMARK  Name = 
REMARK  11 active torsions:
REMARK  status: ('A' for Active; 'I' for Inactive)
REMARK    1  A    between atoms: C_1  and  C_2
REMARK    2  A    between atoms: C_6  and  C_7
REMARK    3  A    between atoms: C_9  and  C_10
REMARK    4  A    between atoms: C_10  and  O_11
REMARK    5  A    between atoms: O_11  and  C_12
REMARK    6  A    between atoms: C_14  and  N_15
REMARK    7  A    between atoms: N_15  and  C_16
REMARK    8  A    between atoms: C_16  and  C_17
REMARK    9  A    between atoms: C_19  and  C_20
REMARK   10  A    between atoms: N_22  and  C_23
REMARK   11  A    between atoms: N_26  and  C_27
REMARK                            x       y       z     vdW  Elec       q    Type
REMARK                         _______ _______ _______ _____ _____    ______ ____
ROOT
ATOM      1  C   UNL     1       2.272   6.124  19.941  0.00  0.00    +0.000 A 
ATOM      2  C   UNL     1       2.804   5.876  18.609  0.00  0.00    +0.000 A 
ATOM      3  C   UNL     1       2.912   4.603  18.230  0.00  0.00    +0.000 A 
ATOM      4  C   UNL     1       2.369   3.521  19.140  0.00  0.00    +0.000 A 
ATOM      5  O   UNL     1       2.433   2.348  18.767  0.00  0.00    +0.000 OA
ATOM      6  N   UNL     1       1.806   3.944  20.345  0.00  0.00    +0.000 N 
ATOM      7  C   UNL     1       1.191   2.985  21.244  0.00  0.00    +0.000 C 
ATOM      8  N   UNL     1       1.802   5.262  20.775  0.00  0.00    +0.000 NA
ENDROOT
BRANCH   3   9
ATOM      9  N   UNL     1       3.575   4.225  17.059  0.00  0.00    +0.000 N 
ATOM     10  H   UNL     1       3.599   5.051  16.454  0.00  0.00    +0.000 HD
BRANCH   9  11
ATOM     11  C   UNL     1       4.948   3.734  17.107  0.00  0.00    +0.000 C 
BRANCH  11  12
ATOM     12  C   UNL     1       5.918   4.853  17.006  0.00  0.00    +0.000 A 
ATOM     13  C   UNL     1       6.264   5.839  17.908  0.00  0.00    +0.000 A 
ATOM     14  C   UNL     1       7.207   6.647  17.235  0.00  0.00    +0.000 A 
ATOM     15  C   UNL     1       7.886   7.867  17.728  0.00  0.00    +0.000 C 
ATOM     16  N   UNL     1       7.456   6.191  16.002  0.00  0.00    +0.000 NA
ATOM     17  N   UNL     1       6.649   5.121  15.877  0.00  0.00    +0.000 N 
ATOM     18  C   UNL     1       6.622   4.403  14.623  0.00  0.00    +0.000 C 
ENDBRANCH  11  12
ENDBRANCH   9  11
ENDBRANCH   3   9
BRANCH   1  19
ATOM     19  O   UNL     1       2.384   7.441  20.182  0.00  0.00    +0.000 OA
BRANCH  19  20
ATOM     20  C   UNL     1       1.314   8.305  19.776  0.00  0.00    +0.000 C 
BRANCH  20  23
ATOM     21  C   UNL     1       0.840  10.183  21.498  0.00  0.00    +0.000 C 
ATOM     22  C   UNL     1       1.364   9.035  22.326  0.00  0.00    +0.000 C 
ATOM     23  C   UNL     1       0.642   8.749  21.038  0.00  0.00    +0.000 C 
BRANCH  21  29
ATOM     24  C   UNL     1      -1.885  14.052  20.402  0.00  0.00    +0.000 C 
ATOM     25  C   UNL     1      -1.658  12.904  21.338  0.00  0.00    +0.000 A 
ATOM     26  C   UNL     1      -2.405  12.763  22.498  0.00  0.00    +0.000 A 
ATOM     27  C   UNL     1      -2.134  11.685  23.331  0.00  0.00    +0.000 A 
ATOM     28  C   UNL     1      -1.117  10.795  22.992  0.00  0.00    +0.000 A 
ATOM     29  C   UNL     1      -0.383  11.001  21.826  0.00  0.00    +0.000 A 
ATOM     30  N   UNL     1      -0.670  12.041  21.000  0.00  0.00    +0.000 NA
ENDBRANCH  21  29
ENDBRANCH  20  23
ENDBRANCH  19  20
ENDBRANCH   1  19
TORSDOF 7
ENDMDL
MODEL 9
REMARK VINA RESULT:      -7.9      1.515      2.480
REMARK  Name = 
REMARK  11 active torsions:
REMARK  status: ('A' for Active; 'I' for Inactive)
REMARK    1  A    between atoms: C_1  and  C_2
REMARK    2  A    between atoms: C_6  and  C_7
REMARK    3  A    between atoms: C_9  and  C_10
REMARK    4  A    between atoms: C_10  and  O_11
REMARK    5  A    between atoms: O_11  and  C_12
REMARK    6  A    between atoms: C_14  and  N_15
REMARK    7  A    between atoms: N_15  and  C_16
REMARK    8  A    between atoms: C_16  and  C_17
REMARK    9  A    between atoms: C_19  and  C_20
REMARK   10  A    between atoms: N_22  and  C_23
REMARK   11  A    between atoms: N_26  and  C_27
REMARK                            x       y       z     vdW  Elec       q    Type
REMARK                         _______ _______ _______ _____ _____    ______ ____
ROOT
ATOM      1  C   UNL     1       1.651   7.476  20.357  0.00  0.00    +0.000 A 
ATOM      2  C   UNL     1       2.318   7.698  19.082  0.00  0.00    +0.000 A 
ATOM      3  C   UNL     1       2.870   6.635  18.498  0.00  0.00    +0.000 A 
ATOM      4  C   UNL     1       2.666   5.271  19.120  0.00  0.00    +0.000 A 
ATOM      5  O   UNL     1       3.143   4.285  18.554  0.00  0.00    +0.000 OA
ATOM      6  N   UNL     1       1.919   5.227  20.298  0.00  0.00    +0.000 N 
ATOM      7  C   UNL     1       1.605   3.954  20.922  0.00  0.00    +0.000 C 
ATOM      8  N   UNL     1       1.445   6.353  20.954  0.00  0.00    +0.000 NA
ENDROOT
BRANCH   3   9
ATOM      9  N   UNL     1       3.694   6.744  17.374  0.00  0.00    +0.000 N 
ATOM     10  H   UNL     1       3.459   7.632  16.920  0.00  0.00    +0.000 HD
BRANCH   9  11
ATOM     11  C   UNL     1       5.147   6.749  17.514  0.00  0.00    +0.000 C 
BRANCH  11  12
ATOM     12  C   UNL     1       5.782   5.867  16.503  0.00  0.00    +0.000 A 
ATOM     13  C   UNL     1       5.428   5.578  15.200  0.00  0.00    +0.000 A 
ATOM     14  C   UNL     1       6.385   4.640  14.753  0.00  0.00    +0.000 A 
ATOM     15  C   UNL     1       6.463   3.967  13.436  0.00  0.00    +0.000 C 
ATOM     16  N   UNL     1       7.293   4.373  15.699  0.00  0.00    +0.000 NA
ATOM     17  N   UNL     1       6.895   5.107  16.755  0.00  0.00    +0.000 N 
ATOM     18  C   UNL     1       7.634   5.017  17.993  0.00  0.00    +0.000 C 
ENDBRANCH  11  12
ENDBRANCH   9  11
ENDBRANCH   3   9
BRANCH   1  19
ATOM     19  O   UNL     1       1.299   8.678  20.844  0.00  0.00    +0.000 OA
BRANCH  19  20
ATOM     20  C   UNL     1       1.144   9.769  19.927  0.00  0.00    +0.000 C 
BRANCH  20  23
ATOM     21  C   UNL     1      -0.792  11.275  19.091  0.00  0.00    +0.000 C 
ATOM     22  C   UNL     1      -0.946  11.262  20.592  0.00  0.00    +0.000 C 
ATOM     23  C   UNL     1      -0.320  10.081  19.902  0.00  0.00    +0.000 C 
BRANCH  21  29
ATOM     24  C   UNL     1      -5.435  12.144  17.957  0.00  0.00    +0.000 C 
ATOM     25  C   UNL     1      -4.169  11.431  17.592  0.00  0.00    +0.000 A 
ATOM     26  C   UNL     1      -4.133  10.517  16.550  0.00  0.00    +0.000 A 
ATOM     27  C   UNL     1      -2.931   9.878  16.272  0.00  0.00    +0.000 A 
ATOM     28  C   UNL     1      -1.810  10.156  17.053  0.00  0.00    +0.000 A 
ATOM     29  C   UNL     1      -1.912  11.066  18.103  0.00  0.00    +0.000 A 
ATOM     30  N   UNL     1      -3.083  11.709  18.353  0.00  0.00    +0.000 NA
ENDBRANCH  21  29
ENDBRANCH  20  23
ENDBRANCH  19  20
ENDBRANCH   1  19
TORSDOF 7
ENDMDL
