MODEL 1
REMARK VINA RESULT:      -7.2      0.000      0.000
REMARK  Name = 
REMARK  13 active torsions:
REMARK  status: ('A' for Active; 'I' for Inactive)
REMARK    1  A    between atoms: C_1  and  C_2
REMARK    2  A    between atoms: C_2  and  C_3
REMARK    3  A    between atoms: C_3  and  C_4
REMARK    4  A    between atoms: C_4  and  C_5
REMARK    5  A    between atoms: C_5  and  C_6
REMARK    6  A    between atoms: C_5  and  O_19
REMARK    7  A    between atoms: C_6  and  O_7
REMARK    8  A    between atoms: O_7  and  C_8
REMARK    9  A    between atoms: C_11  and  C_12
REMARK   10  A    between atoms: C_12  and  O_14
REMARK   11  A    between atoms: O_14  and  C_15
REMARK   12  A    between atoms: C_15  and  C_16
REMARK   13  A    between atoms: O_19  and  C_20
REMARK                            x       y       z     vdW  Elec       q    Type
REMARK                         _______ _______ _______ _____ _____    ______ ____
ROOT
ATOM      1  C   UNL     1       7.382   5.394  16.754  0.00  0.00    +0.000 C 
ENDROOT
BRANCH   1   2
ATOM      2  C   UNL     1       6.863   6.461  17.727  0.00  0.00    +0.000 C 
BRANCH   2   3
ATOM      3  C   UNL     1       7.980   7.297  18.377  0.00  0.00    +0.000 C 
BRANCH   3   4
ATOM      4  C   UNL     1       8.096   8.752  17.918  0.00  0.00    +0.000 C 
BRANCH   4   6
ATOM      5  C   UNL     1       9.244  10.976  18.190  0.00  0.00    +0.000 C 
ATOM      6  C   UNL     1       8.976   9.619  18.821  0.00  0.00    +0.000 C 
ENDBRANCH   4   6
ENDBRANCH   3   4
ENDBRANCH   2   3
BRANCH   2   7
ATOM      7  O   UNL     1       6.188   5.778  18.809  0.00  0.00    +0.000 OA
BRANCH   7   8
ATOM      8  C   UNL     1       4.967   5.214  18.553  0.00  0.00    +0.000 A 
ATOM      9  C   UNL     1       3.928   6.112  18.288  0.00  0.00    +0.000 A 
ATOM     10  C   UNL     1       2.648   5.646  17.974  0.00  0.00    +0.000 A 
ATOM     11  C   UNL     1       2.402   4.276  17.914  0.00  0.00    +0.000 A 
ATOM     12  C   UNL     1       3.434   3.378  18.174  0.00  0.00    +0.000 A 
ATOM     13  C   UNL     1       4.712   3.845  18.491  0.00  0.00    +0.000 A 
ENDBRANCH   7   8
ENDBRANCH   2   7
ENDBRANCH   1   2
BRANCH   1  14
ATOM     14  O   UNL     1       7.552   5.862  15.412  0.00  0.00    +0.000 OA
BRANCH  14  15
ATOM     15  C   UNL     1       7.034   5.023  14.454  0.00  0.00    +0.000 A 
ATOM     16  C   UNL     1       7.587   4.844  13.182  0.00  0.00    +0.000 A 
ATOM     17  C   UNL     1       6.991   3.991  12.261  0.00  0.00    +0.000 A 
ATOM     18  C   UNL     1       5.831   3.294  12.592  0.00  0.00    +0.000 A 
ATOM     19  C   UNL     1       5.270   3.453  13.869  0.00  0.00    +0.000 A 
ATOM     20  C   UNL     1       5.876   4.319  14.797  0.00  0.00    +0.000 A 
BRANCH  18  21
ATOM     21  C   UNL     1       5.218   2.483  11.514  0.00  0.00    +0.000 C 
ATOM     22  O   UNL     1       5.854   1.679  10.847  0.00  0.00    +0.000 OA
BRANCH  21  23
ATOM     23  O   UNL     1       3.933   2.850  11.303  0.00  0.00    +0.000 OA
BRANCH  23  24
ATOM     24  C   UNL     1       3.786   4.120  10.654  0.00  0.00    +0.000 C 
ATOM     25  C   UNL     1       2.872   3.918   9.459  0.00  0.00    +0.000 C 
ENDBRANCH  23  24
ENDBRANCH  21  23
ENDBRANCH  18  21
ENDBRANCH  14  15
ENDBRANCH   1  14
TORSDOF 11
ENDMDL
MODEL 2
REMARK VINA RESULT:      -6.9      2.703      5.336
REMARK  Name = 
REMARK  13 active torsions:
REMARK  status: ('A' for Active; 'I' for Inactive)
REMARK    1  A    between atoms: C_1  and  C_2
REMARK    2  A    between atoms: C_2  and  C_3
REMARK    3  A    between atoms: C_3  and  C_4
REMARK    4  A    between atoms: C_4  and  C_5
REMARK    5  A    between atoms: C_5  and  C_6
REMARK    6  A    between atoms: C_5  and  O_19
REMARK    7  A    between atoms: C_6  and  O_7
REMARK    8  A    between atoms: O_7  and  C_8
REMARK    9  A    between atoms: C_11  and  C_12
REMARK   10  A    between atoms: C_12  and  O_14
REMARK   11  A    between atoms: O_14  and  C_15
REMARK   12  A    between atoms: C_15  and  C_16
REMARK   13  A    between atoms: O_19  and  C_20
REMARK                            x       y       z     vdW  Elec       q    Type
REMARK                         _______ _______ _______ _____ _____    ______ ____
ROOT
ATOM      1  C   UNL     1       4.108   5.433  19.400  0.00  0.00    +0.000 C 
ENDROOT
BRANCH   1   2
ATOM      2  C   UNL     1       2.628   5.728  19.128  0.00  0.00    +0.000 C 
BRANCH   2   3
ATOM      3  C   UNL     1       2.038   4.900  17.972  0.00  0.00    +0.000 C 
BRANCH   3   4
ATOM      4  C   UNL     1       1.213   3.673  18.367  0.00  0.00    +0.000 C 
BRANCH   4   6
ATOM      5  C   UNL     1       3.042   2.037  17.806  0.00  0.00    +0.000 C 
ATOM      6  C   UNL     1       2.052   2.494  18.865  0.00  0.00    +0.000 C 
ENDBRANCH   4   6
ENDBRANCH   3   4
ENDBRANCH   2   3
BRANCH   2   7
ATOM      7  O   UNL     1       2.523   7.114  18.725  0.00  0.00    +0.000 OA
BRANCH   7   8
ATOM      8  C   UNL     1       1.827   7.970  19.537  0.00  0.00    +0.000 A 
ATOM      9  C   UNL     1       1.413   9.167  18.944  0.00  0.00    +0.000 A 
ATOM     10  C   UNL     1       0.662  10.097  19.668  0.00  0.00    +0.000 A 
ATOM     11  C   UNL     1       0.310   9.830  20.989  0.00  0.00    +0.000 A 
ATOM     12  C   UNL     1       0.716   8.638  21.583  0.00  0.00    +0.000 A 
ATOM     13  C   UNL     1       1.471   7.710  20.860  0.00  0.00    +0.000 A 
ENDBRANCH   7   8
ENDBRANCH   2   7
ENDBRANCH   1   2
BRANCH   1  14
ATOM     14  O   UNL     1       5.011   6.340  18.759  0.00  0.00    +0.000 OA
BRANCH  14  15
ATOM     15  C   UNL     1       5.443   5.925  17.521  0.00  0.00    +0.000 A 
ATOM     16  C   UNL     1       5.113   6.559  16.320  0.00  0.00    +0.000 A 
ATOM     17  C   UNL     1       5.574   6.065  15.105  0.00  0.00    +0.000 A 
ATOM     18  C   UNL     1       6.379   4.928  15.066  0.00  0.00    +0.000 A 
ATOM     19  C   UNL     1       6.728   4.287  16.265  0.00  0.00    +0.000 A 
ATOM     20  C   UNL     1       6.258   4.790  17.490  0.00  0.00    +0.000 A 
BRANCH  18  21
ATOM     21  C   UNL     1       6.743   4.423  13.720  0.00  0.00    +0.000 C 
ATOM     22  O   UNL     1       7.478   5.037  12.960  0.00  0.00    +0.000 OA
BRANCH  21  23
ATOM     23  O   UNL     1       6.059   3.294  13.426  0.00  0.00    +0.000 OA
BRANCH  23  24
ATOM     24  C   UNL     1       5.941   3.031  12.021  0.00  0.00    +0.000 C 
ATOM     25  C   UNL     1       4.506   3.321  11.621  0.00  0.00    +0.000 C 
ENDBRANCH  23  24
ENDBRANCH  21  23
ENDBRANCH  18  21
ENDBRANCH  14  15
ENDBRANCH   1  14
TORSDOF 11
ENDMDL
MODEL 3
REMARK VINA RESULT:      -6.9      2.341      4.730
REMARK  Name = 
REMARK  13 active torsions:
REMARK  status: ('A' for Active; 'I' for Inactive)
REMARK    1  A    between atoms: C_1  and  C_2
REMARK    2  A    between atoms: C_2  and  C_3
REMARK    3  A    between atoms: C_3  and  C_4
REMARK    4  A    between atoms: C_4  and  C_5
REMARK    5  A    between atoms: C_5  and  C_6
REMARK    6  A    between atoms: C_5  and  O_19
REMARK    7  A    between atoms: C_6  and  O_7
REMARK    8  A    between atoms: O_7  and  C_8
REMARK    9  A    between atoms: C_11  and  C_12
REMARK   10  A    between atoms: C_12  and  O_14
REMARK   11  A    between atoms: O_14  and  C_15
REMARK   12  A    between atoms: C_15  and  C_16
REMARK   13  A    between atoms: O_19  and  C_20
REMARK                            x       y       z     vdW  Elec       q    Type
REMARK                         _______ _______ _______ _____ _____    ______ ____
ROOT
ATOM      1  C   UNL     1       5.099   4.937  18.945  0.00  0.00    +0.000 C 
ENDROOT
BRANCH   1   2
ATOM      2  C   UNL     1       3.732   5.276  19.553  0.00  0.00    +0.000 C 
BRANCH   2   3
ATOM      3  C   UNL     1       2.887   4.036  19.898  0.00  0.00    +0.000 C 
BRANCH   3   4
ATOM      4  C   UNL     1       1.772   3.677  18.914  0.00  0.00    +0.000 C 
BRANCH   4   6
ATOM      5  C   UNL     1       3.328   1.762  18.413  0.00  0.00    +0.000 C 
ATOM      6  C   UNL     1       2.159   2.592  17.907  0.00  0.00    +0.000 C 
ENDBRANCH   4   6
ENDBRANCH   3   4
ENDBRANCH   2   3
BRANCH   2   7
ATOM      7  O   UNL     1       2.980   6.013  18.561  0.00  0.00    +0.000 OA
BRANCH   7   8
ATOM      8  C   UNL     1       2.374   7.179  18.946  0.00  0.00    +0.000 A 
ATOM      9  C   UNL     1       2.164   8.118  17.931  0.00  0.00    +0.000 A 
ATOM     10  C   UNL     1       1.518   9.327  18.203  0.00  0.00    +0.000 A 
ATOM     11  C   UNL     1       1.068   9.601  19.493  0.00  0.00    +0.000 A 
ATOM     12  C   UNL     1       1.271   8.668  20.506  0.00  0.00    +0.000 A 
ATOM     13  C   UNL     1       1.921   7.460  20.234  0.00  0.00    +0.000 A 
ENDBRANCH   7   8
ENDBRANCH   2   7
ENDBRANCH   1   2
BRANCH   1  14
ATOM     14  O   UNL     1       5.569   5.898  17.994  0.00  0.00    +0.000 OA
BRANCH  14  15
ATOM     15  C   UNL     1       5.863   5.370  16.759  0.00  0.00    +0.000 A 
ATOM     16  C   UNL     1       6.997   5.704  16.011  0.00  0.00    +0.000 A 
ATOM     17  C   UNL     1       7.214   5.140  14.759  0.00  0.00    +0.000 A 
ATOM     18  C   UNL     1       6.304   4.227  14.230  0.00  0.00    +0.000 A 
ATOM     19  C   UNL     1       5.168   3.872  14.974  0.00  0.00    +0.000 A 
ATOM     20  C   UNL     1       4.952   4.447  16.239  0.00  0.00    +0.000 A 
BRANCH  18  21
ATOM     21  C   UNL     1       6.572   3.752  12.851  0.00  0.00    +0.000 C 
ATOM     22  O   UNL     1       7.220   4.401  12.042  0.00  0.00    +0.000 OA
BRANCH  21  23
ATOM     23  O   UNL     1       5.906   2.602  12.597  0.00  0.00    +0.000 OA
BRANCH  23  24
ATOM     24  C   UNL     1       5.322   2.541  11.289  0.00  0.00    +0.000 C 
ATOM     25  C   UNL     1       4.004   3.291  11.342  0.00  0.00    +0.000 C 
ENDBRANCH  23  24
ENDBRANCH  21  23
ENDBRANCH  18  21
ENDBRANCH  14  15
ENDBRANCH   1  14
TORSDOF 11
ENDMDL
MODEL 4
REMARK VINA RESULT:      -6.8      4.006      7.915
REMARK  Name = 
REMARK  13 active torsions:
REMARK  status: ('A' for Active; 'I' for Inactive)
REMARK    1  A    between atoms: C_1  and  C_2
REMARK    2  A    between atoms: C_2  and  C_3
REMARK    3  A    between atoms: C_3  and  C_4
REMARK    4  A    between atoms: C_4  and  C_5
REMARK    5  A    between atoms: C_5  and  C_6
REMARK    6  A    between atoms: C_5  and  O_19
REMARK    7  A    between atoms: C_6  and  O_7
REMARK    8  A    between atoms: O_7  and  C_8
REMARK    9  A    between atoms: C_11  and  C_12
REMARK   10  A    between atoms: C_12  and  O_14
REMARK   11  A    between atoms: O_14  and  C_15
REMARK   12  A    between atoms: C_15  and  C_16
REMARK   13  A    between atoms: O_19  and  C_20
REMARK                            x       y       z     vdW  Elec       q    Type
REMARK                         _______ _______ _______ _____ _____    ______ ____
ROOT
ATOM      1  C   UNL     1       4.279   5.345  18.659  0.00  0.00    +0.000 C 
ENDROOT
BRANCH   1   2
ATOM      2  C   UNL     1       4.852   4.078  18.012  0.00  0.00    +0.000 C 
BRANCH   2   3
ATOM      3  C   UNL     1       5.239   4.263  16.533  0.00  0.00    +0.000 C 
BRANCH   3   4
ATOM      4  C   UNL     1       6.716   4.538  16.245  0.00  0.00    +0.000 C 
BRANCH   4   6
ATOM      5  C   UNL     1       5.940   4.046  13.902  0.00  0.00    +0.000 C 
ATOM      6  C   UNL     1       7.051   4.636  14.755  0.00  0.00    +0.000 C 
ENDBRANCH   4   6
ENDBRANCH   3   4
ENDBRANCH   2   3
BRANCH   2   7
ATOM      7  O   UNL     1       3.818   3.067  18.035  0.00  0.00    +0.000 OA
BRANCH   7   8
ATOM      8  C   UNL     1       2.926   3.080  19.075  0.00  0.00    +0.000 A 
ATOM      9  C   UNL     1       3.417   2.617  20.300  0.00  0.00    +0.000 A 
ATOM     10  C   UNL     1       2.606   2.624  21.439  0.00  0.00    +0.000 A 
ATOM     11  C   UNL     1       1.301   3.104  21.360  0.00  0.00    +0.000 A 
ATOM     12  C   UNL     1       0.809   3.570  20.144  0.00  0.00    +0.000 A 
ATOM     13  C   UNL     1       1.619   3.560  19.005  0.00  0.00    +0.000 A 
ENDBRANCH   7   8
ENDBRANCH   2   7
ENDBRANCH   1   2
BRANCH   1  14
ATOM     14  O   UNL     1       3.629   6.228  17.738  0.00  0.00    +0.000 OA
BRANCH  14  15
ATOM     15  C   UNL     1       2.865   7.202  18.336  0.00  0.00    +0.000 A 
ATOM     16  C   UNL     1       2.326   7.101  19.623  0.00  0.00    +0.000 A 
ATOM     17  C   UNL     1       1.546   8.124  20.149  0.00  0.00    +0.000 A 
ATOM     18  C   UNL     1       1.291   9.272  19.403  0.00  0.00    +0.000 A 
ATOM     19  C   UNL     1       1.835   9.394  18.115  0.00  0.00    +0.000 A 
ATOM     20  C   UNL     1       2.622   8.356  17.586  0.00  0.00    +0.000 A 
BRANCH  18  21
ATOM     21  C   UNL     1       0.373  10.264  20.012  0.00  0.00    +0.000 C 
ATOM     22  O   UNL     1       0.745  11.097  20.828  0.00  0.00    +0.000 OA
BRANCH  21  23
ATOM     23  O   UNL     1      -0.907  10.030  19.642  0.00  0.00    +0.000 OA
BRANCH  23  24
ATOM     24  C   UNL     1      -1.390  10.908  18.616  0.00  0.00    +0.000 C 
ATOM     25  C   UNL     1      -2.284  11.938  19.280  0.00  0.00    +0.000 C 
ENDBRANCH  23  24
ENDBRANCH  21  23
ENDBRANCH  18  21
ENDBRANCH  14  15
ENDBRANCH   1  14
TORSDOF 11
ENDMDL
MODEL 5
REMARK VINA RESULT:      -6.8      4.179      7.711
REMARK  Name = 
REMARK  13 active torsions:
REMARK  status: ('A' for Active; 'I' for Inactive)
REMARK    1  A    between atoms: C_1  and  C_2
REMARK    2  A    between atoms: C_2  and  C_3
REMARK    3  A    between atoms: C_3  and  C_4
REMARK    4  A    between atoms: C_4  and  C_5
REMARK    5  A    between atoms: C_5  and  C_6
REMARK    6  A    between atoms: C_5  and  O_19
REMARK    7  A    between atoms: C_6  and  O_7
REMARK    8  A    between atoms: O_7  and  C_8
REMARK    9  A    between atoms: C_11  and  C_12
REMARK   10  A    between atoms: C_12  and  O_14
REMARK   11  A    between atoms: O_14  and  C_15
REMARK   12  A    between atoms: C_15  and  C_16
REMARK   13  A    between atoms: O_19  and  C_20
REMARK                            x       y       z     vdW  Elec       q    Type
REMARK                         _______ _______ _______ _____ _____    ______ ____
ROOT
ATOM      1  C   UNL     1       3.944   5.833  17.696  0.00  0.00    +0.000 C 
ENDROOT
BRANCH   1   2
ATOM      2  C   UNL     1       4.602   4.448  17.730  0.00  0.00    +0.000 C 
BRANCH   2   3
ATOM      3  C   UNL     1       5.456   4.143  16.486  0.00  0.00    +0.000 C 
BRANCH   3   4
ATOM      4  C   UNL     1       6.865   4.740  16.464  0.00  0.00    +0.000 C 
BRANCH   4   6
ATOM      5  C   UNL     1       7.741   6.073  18.412  0.00  0.00    +0.000 C 
ATOM      6  C   UNL     1       7.584   4.684  17.813  0.00  0.00    +0.000 C 
ENDBRANCH   4   6
ENDBRANCH   3   4
ENDBRANCH   2   3
BRANCH   2   7
ATOM      7  O   UNL     1       3.546   3.460  17.747  0.00  0.00    +0.000 OA
BRANCH   7   8
ATOM      8  C   UNL     1       2.882   3.246  18.926  0.00  0.00    +0.000 A 
ATOM      9  C   UNL     1       1.486   3.303  18.854  0.00  0.00    +0.000 A 
ATOM     10  C   UNL     1       0.706   3.060  19.989  0.00  0.00    +0.000 A 
ATOM     11  C   UNL     1       1.318   2.750  21.201  0.00  0.00    +0.000 A 
ATOM     12  C   UNL     1       2.707   2.689  21.276  0.00  0.00    +0.000 A 
ATOM     13  C   UNL     1       3.487   2.935  20.142  0.00  0.00    +0.000 A 
ENDBRANCH   7   8
ENDBRANCH   2   7
ENDBRANCH   1   2
BRANCH   1  14
ATOM     14  O   UNL     1       3.468   6.283  18.969  0.00  0.00    +0.000 OA
BRANCH  14  15
ATOM     15  C   UNL     1       2.665   7.399  18.908  0.00  0.00    +0.000 A 
ATOM     16  C   UNL     1       2.521   8.202  17.772  0.00  0.00    +0.000 A 
ATOM     17  C   UNL     1       1.704   9.327  17.796  0.00  0.00    +0.000 A 
ATOM     18  C   UNL     1       1.010   9.670  18.955  0.00  0.00    +0.000 A 
ATOM     19  C   UNL     1       1.135   8.866  20.099  0.00  0.00    +0.000 A 
ATOM     20  C   UNL     1       1.964   7.731  20.070  0.00  0.00    +0.000 A 
BRANCH  18  21
ATOM     21  C   UNL     1       0.240  10.936  18.913  0.00  0.00    +0.000 C 
ATOM     22  O   UNL     1      -0.790  11.062  18.265  0.00  0.00    +0.000 OA
BRANCH  21  23
ATOM     23  O   UNL     1       0.896  11.923  19.564  0.00  0.00    +0.000 OA
BRANCH  23  24
ATOM     24  C   UNL     1       0.800  13.207  18.930  0.00  0.00    +0.000 C 
ATOM     25  C   UNL     1       2.129  13.481  18.251  0.00  0.00    +0.000 C 
ENDBRANCH  23  24
ENDBRANCH  21  23
ENDBRANCH  18  21
ENDBRANCH  14  15
ENDBRANCH   1  14
TORSDOF 11
ENDMDL
MODEL 6
REMARK VINA RESULT:      -6.8      3.861      7.668
REMARK  Name = 
REMARK  13 active torsions:
REMARK  status: ('A' for Active; 'I' for Inactive)
REMARK    1  A    between atoms: C_1  and  C_2
REMARK    2  A    between atoms: C_2  and  C_3
REMARK    3  A    between atoms: C_3  and  C_4
REMARK    4  A    between atoms: C_4  and  C_5
REMARK    5  A    between atoms: C_5  and  C_6
REMARK    6  A    between atoms: C_5  and  O_19
REMARK    7  A    between atoms: C_6  and  O_7
REMARK    8  A    between atoms: O_7  and  C_8
REMARK    9  A    between atoms: C_11  and  C_12
REMARK   10  A    between atoms: C_12  and  O_14
REMARK   11  A    between atoms: O_14  and  C_15
REMARK   12  A    between atoms: C_15  and  C_16
REMARK   13  A    between atoms: O_19  and  C_20
REMARK                            x       y       z     vdW  Elec       q    Type
REMARK                         _______ _______ _______ _____ _____    ______ ____
ROOT
ATOM      1  C   UNL     1       4.232   5.688  17.374  0.00  0.00    +0.000 C 
ENDROOT
BRANCH   1   2
ATOM      2  C   UNL     1       4.602   4.202  17.287  0.00  0.00    +0.000 C 
BRANCH   2   3
ATOM      3  C   UNL     1       5.238   3.804  15.943  0.00  0.00    +0.000 C 
BRANCH   3   4
ATOM      4  C   UNL     1       6.311   4.746  15.392  0.00  0.00    +0.000 C 
BRANCH   4   6
ATOM      5  C   UNL     1       5.651   3.638  13.231  0.00  0.00    +0.000 C 
ATOM      6  C   UNL     1       6.720   4.445  13.949  0.00  0.00    +0.000 C 
ENDBRANCH   4   6
ENDBRANCH   3   4
ENDBRANCH   2   3
BRANCH   2   7
ATOM      7  O   UNL     1       3.378   3.438  17.396  0.00  0.00    +0.000 OA
BRANCH   7   8
ATOM      8  C   UNL     1       2.808   3.307  18.634  0.00  0.00    +0.000 A 
ATOM      9  C   UNL     1       1.434   3.564  18.699  0.00  0.00    +0.000 A 
ATOM     10  C   UNL     1       0.740   3.422  19.904  0.00  0.00    +0.000 A 
ATOM     11  C   UNL     1       1.416   3.013  21.052  0.00  0.00    +0.000 A 
ATOM     12  C   UNL     1       2.783   2.754  20.991  0.00  0.00    +0.000 A 
ATOM     13  C   UNL     1       3.476   2.898  19.787  0.00  0.00    +0.000 A 
ENDBRANCH   7   8
ENDBRANCH   2   7
ENDBRANCH   1   2
BRANCH   1  14
ATOM     14  O   UNL     1       4.024   6.160  18.709  0.00  0.00    +0.000 OA
BRANCH  14  15
ATOM     15  C   UNL     1       3.044   7.119  18.821  0.00  0.00    +0.000 A 
ATOM     16  C   UNL     1       2.745   8.057  17.828  0.00  0.00    +0.000 A 
ATOM     17  C   UNL     1       1.752   9.009  18.026  0.00  0.00    +0.000 A 
ATOM     18  C   UNL     1       1.034   9.041  19.220  0.00  0.00    +0.000 A 
ATOM     19  C   UNL     1       1.314   8.098  20.221  0.00  0.00    +0.000 A 
ATOM     20  C   UNL     1       2.321   7.139  20.017  0.00  0.00    +0.000 A 
BRANCH  18  21
ATOM     21  C   UNL     1       0.061  10.150  19.375  0.00  0.00    +0.000 C 
ATOM     22  O   UNL     1      -0.346  10.526  20.466  0.00  0.00    +0.000 OA
BRANCH  21  23
ATOM     23  O   UNL     1      -0.387  10.572  18.170  0.00  0.00    +0.000 OA
BRANCH  23  24
ATOM     24  C   UNL     1      -1.757  10.997  18.172  0.00  0.00    +0.000 C 
ATOM     25  C   UNL     1      -2.582   9.881  17.557  0.00  0.00    +0.000 C 
ENDBRANCH  23  24
ENDBRANCH  21  23
ENDBRANCH  18  21
ENDBRANCH  14  15
ENDBRANCH   1  14
TORSDOF 11
ENDMDL
MODEL 7
REMARK VINA RESULT:      -6.8      4.126      8.134
REMARK  Name = 
REMARK  13 active torsions:
REMARK  status: ('A' for Active; 'I' for Inactive)
REMARK    1  A    between atoms: C_1  and  C_2
REMARK    2  A    between atoms: C_2  and  C_3
REMARK    3  A    between atoms: C_3  and  C_4
REMARK    4  A    between atoms: C_4  and  C_5
REMARK    5  A    between atoms: C_5  and  C_6
REMARK    6  A    between atoms: C_5  and  O_19
REMARK    7  A    between atoms: C_6  and  O_7
REMARK    8  A    between atoms: O_7  and  C_8
REMARK    9  A    between atoms: C_11  and  C_12
REMARK   10  A    between atoms: C_12  and  O_14
REMARK   11  A    between atoms: O_14  and  C_15
REMARK   12  A    between atoms: C_15  and  C_16
REMARK   13  A    between atoms: O_19  and  C_20
REMARK                            x       y       z     vdW  Elec       q    Type
REMARK                         _______ _______ _______ _____ _____    ______ ____
ROOT
ATOM      1  C   UNL     1       4.175   5.562  18.423  0.00  0.00    +0.000 C 
ENDROOT
BRANCH   1   2
ATOM      2  C   UNL     1       4.449   4.227  17.721  0.00  0.00    +0.000 C 
BRANCH   2   3
ATOM      3  C   UNL     1       4.731   4.370  16.214  0.00  0.00    +0.000 C 
BRANCH   3   4
ATOM      4  C   UNL     1       6.178   4.147  15.768  0.00  0.00    +0.000 C 
BRANCH   4   6
ATOM      5  C   UNL     1       7.768   4.577  17.671  0.00  0.00    +0.000 C 
ATOM      6  C   UNL     1       7.176   5.128  16.384  0.00  0.00    +0.000 C 
ENDBRANCH   4   6
ENDBRANCH   3   4
ENDBRANCH   2   3
BRANCH   2   7
ATOM      7  O   UNL     1       3.254   3.418  17.832  0.00  0.00    +0.000 OA
BRANCH   7   8
ATOM      8  C   UNL     1       2.706   3.247  19.076  0.00  0.00    +0.000 A 
ATOM      9  C   UNL     1       1.347   3.558  19.188  0.00  0.00    +0.000 A 
ATOM     10  C   UNL     1       0.675   3.382  20.401  0.00  0.00    +0.000 A 
ATOM     11  C   UNL     1       1.357   2.884  21.508  0.00  0.00    +0.000 A 
ATOM     12  C   UNL     1       2.709   2.569  21.401  0.00  0.00    +0.000 A 
ATOM     13  C   UNL     1       3.382   2.748  20.189  0.00  0.00    +0.000 A 
ENDBRANCH   7   8
ENDBRANCH   2   7
ENDBRANCH   1   2
BRANCH   1  14
ATOM     14  O   UNL     1       3.330   6.448  17.683  0.00  0.00    +0.000 OA
BRANCH  14  15
ATOM     15  C   UNL     1       2.589   7.304  18.464  0.00  0.00    +0.000 A 
ATOM     16  C   UNL     1       2.307   7.089  19.817  0.00  0.00    +0.000 A 
ATOM     17  C   UNL     1       1.533   7.994  20.534  0.00  0.00    +0.000 A 
ATOM     18  C   UNL     1       1.026   9.135  19.915  0.00  0.00    +0.000 A 
ATOM     19  C   UNL     1       1.311   9.370  18.561  0.00  0.00    +0.000 A 
ATOM     20  C   UNL     1       2.093   8.452  17.839  0.00  0.00    +0.000 A 
BRANCH  18  21
ATOM     21  C   UNL     1       0.135   9.990  20.735  0.00  0.00    +0.000 C 
ATOM     22  O   UNL     1      -0.411   9.591  21.754  0.00  0.00    +0.000 OA
BRANCH  21  23
ATOM     23  O   UNL     1      -0.076  11.184  20.135  0.00  0.00    +0.000 OA
BRANCH  23  24
ATOM     24  C   UNL     1       0.301  12.315  20.933  0.00  0.00    +0.000 C 
ATOM     25  C   UNL     1       1.702  12.721  20.517  0.00  0.00    +0.000 C 
ENDBRANCH  23  24
ENDBRANCH  21  23
ENDBRANCH  18  21
ENDBRANCH  14  15
ENDBRANCH   1  14
TORSDOF 11
ENDMDL
MODEL 8
REMARK VINA RESULT:      -6.8      3.930      8.138
REMARK  Name = 
REMARK  13 active torsions:
REMARK  status: ('A' for Active; 'I' for Inactive)
REMARK    1  A    between atoms: C_1  and  C_2
REMARK    2  A    between atoms: C_2  and  C_3
REMARK    3  A    between atoms: C_3  and  C_4
REMARK    4  A    between atoms: C_4  and  C_5
REMARK    5  A    between atoms: C_5  and  C_6
REMARK    6  A    between atoms: C_5  and  O_19
REMARK    7  A    between atoms: C_6  and  O_7
REMARK    8  A    between atoms: O_7  and  C_8
REMARK    9  A    between atoms: C_11  and  C_12
REMARK   10  A    between atoms: C_12  and  O_14
REMARK   11  A    between atoms: O_14  and  C_15
REMARK   12  A    between atoms: C_15  and  C_16
REMARK   13  A    between atoms: O_19  and  C_20
REMARK                            x       y       z     vdW  Elec       q    Type
REMARK                         _______ _______ _______ _____ _____    ______ ____
ROOT
ATOM      1  C   UNL     1       4.567   5.563  18.996  0.00  0.00    +0.000 C 
ENDROOT
BRANCH   1   2
ATOM      2  C   UNL     1       5.310   4.289  18.578  0.00  0.00    +0.000 C 
BRANCH   2   3
ATOM      3  C   UNL     1       5.080   3.896  17.107  0.00  0.00    +0.000 C 
BRANCH   3   4
ATOM      4  C   UNL     1       6.113   4.401  16.098  0.00  0.00    +0.000 C 
BRANCH   4   6
ATOM      5  C   UNL     1       6.174   3.858  13.641  0.00  0.00    +0.000 C 
ATOM      6  C   UNL     1       5.530   4.716  14.718  0.00  0.00    +0.000 C 
ENDBRANCH   4   6
ENDBRANCH   3   4
ENDBRANCH   2   3
BRANCH   2   7
ATOM      7  O   UNL     1       4.793   3.197  19.373  0.00  0.00    +0.000 OA
BRANCH   7   8
ATOM      8  C   UNL     1       3.448   3.169  19.633  0.00  0.00    +0.000 A 
ATOM      9  C   UNL     1       2.644   2.653  18.611  0.00  0.00    +0.000 A 
ATOM     10  C   UNL     1       1.261   2.541  18.783  0.00  0.00    +0.000 A 
ATOM     11  C   UNL     1       0.675   2.935  19.984  0.00  0.00    +0.000 A 
ATOM     12  C   UNL     1       1.472   3.446  21.005  0.00  0.00    +0.000 A 
ATOM     13  C   UNL     1       2.854   3.561  20.832  0.00  0.00    +0.000 A 
ENDBRANCH   7   8
ENDBRANCH   2   7
ENDBRANCH   1   2
BRANCH   1  14
ATOM     14  O   UNL     1       3.562   5.984  18.067  0.00  0.00    +0.000 OA
BRANCH  14  15
ATOM     15  C   UNL     1       2.814   7.057  18.494  0.00  0.00    +0.000 A 
ATOM     16  C   UNL     1       2.504   8.165  17.699  0.00  0.00    +0.000 A 
ATOM     17  C   UNL     1       1.758   9.220  18.211  0.00  0.00    +0.000 A 
ATOM     18  C   UNL     1       1.303   9.188  19.528  0.00  0.00    +0.000 A 
ATOM     19  C   UNL     1       1.596   8.077  20.334  0.00  0.00    +0.000 A 
ATOM     20  C   UNL     1       2.352   7.013  19.812  0.00  0.00    +0.000 A 
BRANCH  18  21
ATOM     21  C   UNL     1       0.597  10.399  20.011  0.00  0.00    +0.000 C 
ATOM     22  O   UNL     1       1.041  11.529  19.859  0.00  0.00    +0.000 OA
BRANCH  21  23
ATOM     23  O   UNL     1      -0.498  10.066  20.731  0.00  0.00    +0.000 OA
BRANCH  23  24
ATOM     24  C   UNL     1      -0.765  10.946  21.832  0.00  0.00    +0.000 C 
ATOM     25  C   UNL     1      -0.670  10.125  23.105  0.00  0.00    +0.000 C 
ENDBRANCH  23  24
ENDBRANCH  21  23
ENDBRANCH  18  21
ENDBRANCH  14  15
ENDBRANCH   1  14
TORSDOF 11
ENDMDL
MODEL 9
REMARK VINA RESULT:      -6.8      4.956      9.049
REMARK  Name = 
REMARK  13 active torsions:
REMARK  status: ('A' for Active; 'I' for Inactive)
REMARK    1  A    between atoms: C_1  and  C_2
REMARK    2  A    between atoms: C_2  and  C_3
REMARK    3  A    between atoms: C_3  and  C_4
REMARK    4  A    between atoms: C_4  and  C_5
REMARK    5  A    between atoms: C_5  and  C_6
REMARK    6  A    between atoms: C_5  and  O_19
REMARK    7  A    between atoms: C_6  and  O_7
REMARK    8  A    between atoms: O_7  and  C_8
REMARK    9  A    between atoms: C_11  and  C_12
REMARK   10  A    between atoms: C_12  and  O_14
REMARK   11  A    between atoms: O_14  and  C_15
REMARK   12  A    between atoms: C_15  and  C_16
REMARK   13  A    between atoms: O_19  and  C_20
REMARK                            x       y       z     vdW  Elec       q    Type
REMARK                         _______ _______ _______ _____ _____    ______ ____
ROOT
ATOM      1  C   UNL     1       2.595   7.009  19.176  0.00  0.00    +0.000 C 
ENDROOT
BRANCH   1   2
ATOM      2  C   UNL     1       2.746   5.507  19.445  0.00  0.00    +0.000 C 
BRANCH   2   3
ATOM      3  C   UNL     1       1.903   5.006  20.632  0.00  0.00    +0.000 C 
BRANCH   3   4
ATOM      4  C   UNL     1       1.712   3.492  20.740  0.00  0.00    +0.000 C 
BRANCH   4   6
ATOM      5  C   UNL     1       1.660   2.197  18.582  0.00  0.00    +0.000 C 
ATOM      6  C   UNL     1       0.826   2.898  19.643  0.00  0.00    +0.000 C 
ENDBRANCH   4   6
ENDBRANCH   3   4
ENDBRANCH   2   3
BRANCH   2   7
ATOM      7  O   UNL     1       4.127   5.261  19.799  0.00  0.00    +0.000 OA
BRANCH   7   8
ATOM      8  C   UNL     1       5.020   5.029  18.786  0.00  0.00    +0.000 A 
ATOM      9  C   UNL     1       6.350   5.364  19.062  0.00  0.00    +0.000 A 
ATOM     10  C   UNL     1       7.353   5.133  18.115  0.00  0.00    +0.000 A 
ATOM     11  C   UNL     1       7.032   4.555  16.890  0.00  0.00    +0.000 A 
ATOM     12  C   UNL     1       5.710   4.216  16.612  0.00  0.00    +0.000 A 
ATOM     13  C   UNL     1       4.708   4.451  17.557  0.00  0.00    +0.000 A 
ENDBRANCH   7   8
ENDBRANCH   2   7
ENDBRANCH   1   2
BRANCH   1  14
ATOM     14  O   UNL     1       1.992   7.737  20.251  0.00  0.00    +0.000 OA
BRANCH  14  15
ATOM     15  C   UNL     1       1.267   8.835  19.851  0.00  0.00    +0.000 A 
ATOM     16  C   UNL     1       0.337   9.500  20.657  0.00  0.00    +0.000 A 
ATOM     17  C   UNL     1      -0.371  10.593  20.171  0.00  0.00    +0.000 A 
ATOM     18  C   UNL     1      -0.162  11.047  18.870  0.00  0.00    +0.000 A 
ATOM     19  C   UNL     1       0.777  10.398  18.053  0.00  0.00    +0.000 A 
ATOM     20  C   UNL     1       1.489   9.292  18.549  0.00  0.00    +0.000 A 
BRANCH  18  21
ATOM     21  C   UNL     1      -1.030  12.158  18.412  0.00  0.00    +0.000 C 
ATOM     22  O   UNL     1      -0.603  13.281  18.183  0.00  0.00    +0.000 OA
BRANCH  21  23
ATOM     23  O   UNL     1      -2.331  11.789  18.415  0.00  0.00    +0.000 OA
BRANCH  23  24
ATOM     24  C   UNL     1      -2.770  11.180  17.193  0.00  0.00    +0.000 C 
ATOM     25  C   UNL     1      -3.238   9.775  17.525  0.00  0.00    +0.000 C 
ENDBRANCH  23  24
ENDBRANCH  21  23
ENDBRANCH  18  21
ENDBRANCH  14  15
ENDBRANCH   1  14
TORSDOF 11
ENDMDL
