MODEL 1
REMARK VINA RESULT:      -8.3      0.000      0.000
REMARK  Name = 
REMARK  7 active torsions:
REMARK  status: ('A' for Active; 'I' for Inactive)
REMARK    1  A    between atoms: C_1  and  C_2
REMARK    2  A    between atoms: C_2  and  C_3
REMARK    3  A    between atoms: C_3  and  N_4
REMARK    4  A    between atoms: C_8  and  C_10
REMARK    5  A    between atoms: C_15  and  O_16
REMARK    6  A    between atoms: O_16  and  C_17
REMARK    7  A    between atoms: C_20  and  C_21
REMARK                            x       y       z     vdW  Elec       q    Type
REMARK                         _______ _______ _______ _____ _____    ______ ____
ROOT
ATOM      1  C   UNL     1       1.387   9.287  19.050  0.00  0.00    +0.000 A 
ATOM      2  C   UNL     1       2.071   9.576  17.873  0.00  0.00    +0.000 A 
ATOM      3  C   UNL     1       3.005   8.649  17.405  0.00  0.00    +0.000 A 
ATOM      4  C   UNL     1       3.248   7.473  18.131  0.00  0.00    +0.000 A 
ATOM      5  C   UNL     1       4.224   6.521  17.763  0.00  0.00    +0.000 A 
ATOM      6  C   UNL     1       4.451   5.396  18.557  0.00  0.00    +0.000 A 
ATOM      7  C   UNL     1       3.738   5.241  19.745  0.00  0.00    +0.000 A 
ATOM      8  C   UNL     1       2.737   6.154  20.080  0.00  0.00    +0.000 A 
ATOM      9  C   UNL     1       2.479   7.261  19.292  0.00  0.00    +0.000 A 
ATOM     10  N   UNL     1       1.542   8.115  19.711  0.00  0.00    +0.000 NA
ENDROOT
BRANCH   1  15
ATOM     11  N   UNL     1      -3.179  11.253  17.561  0.00  0.00    +0.000 NA
ATOM     12  C   UNL     1      -2.662  12.106  18.659  0.00  0.00    +0.000 C 
ATOM     13  C   UNL     1      -1.729  11.478  19.741  0.00  0.00    +0.000 C 
ATOM     14  N   UNL     1      -0.857  10.429  19.212  0.00  0.00    +0.000 N 
ATOM     15  C   UNL     1       0.467  10.310  19.664  0.00  0.00    +0.000 C 
ATOM     16  O   UNL     1       0.910  11.011  20.574  0.00  0.00    +0.000 OA
ATOM     17  C   UNL     1      -1.568   9.496  18.346  0.00  0.00    +0.000 C 
ATOM     18  C   UNL     1      -2.153  10.267  17.155  0.00  0.00    +0.000 C 
BRANCH  11  19
ATOM     19  C   UNL     1      -4.485  10.614  17.792  0.00  0.00    +0.000 C 
BRANCH  19  21
ATOM     20  C   UNL     1      -5.855  12.662  17.031  0.00  0.00    +0.000 C 
ATOM     21  C   UNL     1      -5.609  11.609  18.115  0.00  0.00    +0.000 C 
ATOM     22  C   UNL     1      -6.941  10.931  18.519  0.00  0.00    +0.000 C 
ATOM     23  O   UNL     1      -7.047  11.777  19.693  0.00  0.00    +0.000 OA
ATOM     24  C   UNL     1      -5.645  12.129  19.566  0.00  0.00    +0.000 C 
ENDBRANCH  19  21
ENDBRANCH  11  19
ENDBRANCH   1  15
BRANCH   6  25
ATOM     25  O   UNL     1       5.435   4.520  18.157  0.00  0.00    +0.000 OA
BRANCH  25  26
ATOM     26  C   UNL     1       5.640   4.346  16.791  0.00  0.00    +0.000 A 
ATOM     27  C   UNL     1       6.861   4.758  16.281  0.00  0.00    +0.000 A 
ATOM     28  C   UNL     1       7.098   4.592  14.915  0.00  0.00    +0.000 A 
ATOM     29  C   UNL     1       6.108   4.026  14.103  0.00  0.00    +0.000 A 
ATOM     30  C   UNL     1       4.917   3.657  14.709  0.00  0.00    +0.000 A 
ATOM     31  N   UNL     1       4.659   3.818  16.023  0.00  0.00    +0.000 NA
BRANCH  29  32
ATOM     32  C   UNL     1       6.275   3.812  12.631  0.00  0.00    +0.000 C 
ATOM     33  F   UNL     1       6.716   2.562  12.312  0.00  0.00    +0.000 F 
ATOM     34  F   UNL     1       5.115   3.987  11.944  0.00  0.00    +0.000 F 
ATOM     35  F   UNL     1       7.170   4.675  12.078  0.00  0.00    +0.000 F 
ENDBRANCH  29  32
ENDBRANCH  25  26
ENDBRANCH   6  25
TORSDOF 6
ENDMDL
MODEL 2
REMARK VINA RESULT:      -8.2      3.969      5.185
REMARK  Name = 
REMARK  7 active torsions:
REMARK  status: ('A' for Active; 'I' for Inactive)
REMARK    1  A    between atoms: C_1  and  C_2
REMARK    2  A    between atoms: C_2  and  C_3
REMARK    3  A    between atoms: C_3  and  N_4
REMARK    4  A    between atoms: C_8  and  C_10
REMARK    5  A    between atoms: C_15  and  O_16
REMARK    6  A    between atoms: O_16  and  C_17
REMARK    7  A    between atoms: C_20  and  C_21
REMARK                            x       y       z     vdW  Elec       q    Type
REMARK                         _______ _______ _______ _____ _____    ______ ____
ROOT
ATOM      1  C   UNL     1      -0.591  11.032  20.267  0.00  0.00    +0.000 A 
ATOM      2  C   UNL     1      -0.500  10.377  21.490  0.00  0.00    +0.000 A 
ATOM      3  C   UNL     1       0.341   9.266  21.587  0.00  0.00    +0.000 A 
ATOM      4  C   UNL     1       1.049   8.824  20.458  0.00  0.00    +0.000 A 
ATOM      5  C   UNL     1       1.863   7.671  20.454  0.00  0.00    +0.000 A 
ATOM      6  C   UNL     1       2.502   7.259  19.283  0.00  0.00    +0.000 A 
ATOM      7  C   UNL     1       2.291   7.968  18.102  0.00  0.00    +0.000 A 
ATOM      8  C   UNL     1       1.530   9.138  18.119  0.00  0.00    +0.000 A 
ATOM      9  C   UNL     1       0.911   9.577  19.275  0.00  0.00    +0.000 A 
ATOM     10  N   UNL     1       0.156  10.676  19.195  0.00  0.00    +0.000 NA
ENDROOT
BRANCH   1  15
ATOM     11  N   UNL     1      -2.330  14.756  23.434  0.00  0.00    +0.000 NA
ATOM     12  C   UNL     1      -3.220  14.728  22.247  0.00  0.00    +0.000 C 
ATOM     13  C   UNL     1      -2.649  14.254  20.874  0.00  0.00    +0.000 C 
ATOM     14  N   UNL     1      -1.634  13.209  21.002  0.00  0.00    +0.000 N 
ATOM     15  C   UNL     1      -1.580  12.153  20.078  0.00  0.00    +0.000 C 
ATOM     16  O   UNL     1      -2.312  12.115  19.088  0.00  0.00    +0.000 OA
ATOM     17  C   UNL     1      -0.658  13.502  22.045  0.00  0.00    +0.000 C 
ATOM     18  C   UNL     1      -1.386  13.619  23.391  0.00  0.00    +0.000 C 
BRANCH  11  19
ATOM     19  C   UNL     1      -1.637  16.028  23.697  0.00  0.00    +0.000 C 
BRANCH  19  21
ATOM     20  C   UNL     1      -1.271  16.303  26.235  0.00  0.00    +0.000 C 
ATOM     21  C   UNL     1      -2.077  16.713  24.999  0.00  0.00    +0.000 C 
ATOM     22  C   UNL     1      -2.155  18.255  24.894  0.00  0.00    +0.000 C 
ATOM     23  O   UNL     1      -3.485  18.255  25.475  0.00  0.00    +0.000 OA
ATOM     24  C   UNL     1      -3.600  16.833  25.209  0.00  0.00    +0.000 C 
ENDBRANCH  19  21
ENDBRANCH  11  19
ENDBRANCH   1  15
BRANCH   6  25
ATOM     25  O   UNL     1       3.259   6.110  19.339  0.00  0.00    +0.000 OA
BRANCH  25  26
ATOM     26  C   UNL     1       3.888   5.684  18.172  0.00  0.00    +0.000 A 
ATOM     27  C   UNL     1       4.763   6.573  17.569  0.00  0.00    +0.000 A 
ATOM     28  C   UNL     1       5.412   6.172  16.399  0.00  0.00    +0.000 A 
ATOM     29  C   UNL     1       5.162   4.901  15.867  0.00  0.00    +0.000 A 
ATOM     30  C   UNL     1       4.261   4.092  16.541  0.00  0.00    +0.000 A 
ATOM     31  N   UNL     1       3.611   4.460  17.665  0.00  0.00    +0.000 NA
BRANCH  29  32
ATOM     32  C   UNL     1       5.811   4.389  14.620  0.00  0.00    +0.000 C 
ATOM     33  F   UNL     1       6.803   5.199  14.153  0.00  0.00    +0.000 F 
ATOM     34  F   UNL     1       6.378   3.164  14.792  0.00  0.00    +0.000 F 
ATOM     35  F   UNL     1       4.928   4.251  13.594  0.00  0.00    +0.000 F 
ENDBRANCH  29  32
ENDBRANCH  25  26
ENDBRANCH   6  25
TORSDOF 6
ENDMDL
MODEL 3
REMARK VINA RESULT:      -8.2      0.483      1.036
REMARK  Name = 
REMARK  7 active torsions:
REMARK  status: ('A' for Active; 'I' for Inactive)
REMARK    1  A    between atoms: C_1  and  C_2
REMARK    2  A    between atoms: C_2  and  C_3
REMARK    3  A    between atoms: C_3  and  N_4
REMARK    4  A    between atoms: C_8  and  C_10
REMARK    5  A    between atoms: C_15  and  O_16
REMARK    6  A    between atoms: O_16  and  C_17
REMARK    7  A    between atoms: C_20  and  C_21
REMARK                            x       y       z     vdW  Elec       q    Type
REMARK                         _______ _______ _______ _____ _____    ______ ____
ROOT
ATOM      1  C   UNL     1       1.407   9.220  19.061  0.00  0.00    +0.000 A 
ATOM      2  C   UNL     1       2.079   9.535  17.884  0.00  0.00    +0.000 A 
ATOM      3  C   UNL     1       3.034   8.635  17.404  0.00  0.00    +0.000 A 
ATOM      4  C   UNL     1       3.309   7.459  18.120  0.00  0.00    +0.000 A 
ATOM      5  C   UNL     1       4.306   6.534  17.740  0.00  0.00    +0.000 A 
ATOM      6  C   UNL     1       4.563   5.409  18.524  0.00  0.00    +0.000 A 
ATOM      7  C   UNL     1       3.859   5.228  19.714  0.00  0.00    +0.000 A 
ATOM      8  C   UNL     1       2.838   6.114  20.060  0.00  0.00    +0.000 A 
ATOM      9  C   UNL     1       2.550   7.220  19.283  0.00  0.00    +0.000 A 
ATOM     10  N   UNL     1       1.594   8.048  19.711  0.00  0.00    +0.000 NA
ENDROOT
BRANCH   1  15
ATOM     11  N   UNL     1      -3.105  11.251  17.501  0.00  0.00    +0.000 NA
ATOM     12  C   UNL     1      -2.628  12.055  18.653  0.00  0.00    +0.000 C 
ATOM     13  C   UNL     1      -1.733  11.380  19.739  0.00  0.00    +0.000 C 
ATOM     14  N   UNL     1      -0.842  10.355  19.195  0.00  0.00    +0.000 N 
ATOM     15  C   UNL     1       0.466  10.216  19.687  0.00  0.00    +0.000 C 
ATOM     16  O   UNL     1       0.877  10.876  20.641  0.00  0.00    +0.000 OA
ATOM     17  C   UNL     1      -1.521   9.461  18.264  0.00  0.00    +0.000 C 
ATOM     18  C   UNL     1      -2.065  10.284  17.089  0.00  0.00    +0.000 C 
BRANCH  11  19
ATOM     19  C   UNL     1      -4.418  10.604  17.658  0.00  0.00    +0.000 C 
BRANCH  19  21
ATOM     20  C   UNL     1      -5.812  12.680  17.029  0.00  0.00    +0.000 C 
ATOM     21  C   UNL     1      -5.541  11.574  18.052  0.00  0.00    +0.000 C 
ATOM     22  C   UNL     1      -6.862  10.869  18.444  0.00  0.00    +0.000 C 
ATOM     23  O   UNL     1      -6.952  11.653  19.661  0.00  0.00    +0.000 OA
ATOM     24  C   UNL     1      -5.554  12.019  19.528  0.00  0.00    +0.000 C 
ENDBRANCH  19  21
ENDBRANCH  11  19
ENDBRANCH   1  15
BRANCH   6  25
ATOM     25  O   UNL     1       5.567   4.560  18.114  0.00  0.00    +0.000 OA
BRANCH  25  26
ATOM     26  C   UNL     1       5.760   4.390  16.745  0.00  0.00    +0.000 A 
ATOM     27  C   UNL     1       4.724   3.807  16.032  0.00  0.00    +0.000 A 
ATOM     28  C   UNL     1       4.887   3.626  14.658  0.00  0.00    +0.000 A 
ATOM     29  C   UNL     1       6.077   4.029  14.040  0.00  0.00    +0.000 A 
ATOM     30  C   UNL     1       7.056   4.592  14.844  0.00  0.00    +0.000 A 
ATOM     31  N   UNL     1       6.929   4.765  16.177  0.00  0.00    +0.000 NA
BRANCH  29  32
ATOM     32  C   UNL     1       6.337   3.874  12.574  0.00  0.00    +0.000 C 
ATOM     33  F   UNL     1       7.246   4.765  12.088  0.00  0.00    +0.000 F 
ATOM     34  F   UNL     1       6.815   2.640  12.257  0.00  0.00    +0.000 F 
ATOM     35  F   UNL     1       5.212   4.042  11.827  0.00  0.00    +0.000 F 
ENDBRANCH  29  32
ENDBRANCH  25  26
ENDBRANCH   6  25
TORSDOF 6
ENDMDL
MODEL 4
REMARK VINA RESULT:      -8.2      2.869      3.634
REMARK  Name = 
REMARK  7 active torsions:
REMARK  status: ('A' for Active; 'I' for Inactive)
REMARK    1  A    between atoms: C_1  and  C_2
REMARK    2  A    between atoms: C_2  and  C_3
REMARK    3  A    between atoms: C_3  and  N_4
REMARK    4  A    between atoms: C_8  and  C_10
REMARK    5  A    between atoms: C_15  and  O_16
REMARK    6  A    between atoms: O_16  and  C_17
REMARK    7  A    between atoms: C_20  and  C_21
REMARK                            x       y       z     vdW  Elec       q    Type
REMARK                         _______ _______ _______ _____ _____    ______ ____
ROOT
ATOM      1  C   UNL     1       1.531   8.660  19.201  0.00  0.00    +0.000 A 
ATOM      2  C   UNL     1       2.087   9.206  18.048  0.00  0.00    +0.000 A 
ATOM      3  C   UNL     1       3.161   8.541  17.451  0.00  0.00    +0.000 A 
ATOM      4  C   UNL     1       3.665   7.365  18.029  0.00  0.00    +0.000 A 
ATOM      5  C   UNL     1       4.789   6.674  17.528  0.00  0.00    +0.000 A 
ATOM      6  C   UNL     1       5.270   5.538  18.180  0.00  0.00    +0.000 A 
ATOM      7  C   UNL     1       4.660   5.116  19.361  0.00  0.00    +0.000 A 
ATOM      8  C   UNL     1       3.518   5.768  19.825  0.00  0.00    +0.000 A 
ATOM      9  C   UNL     1       3.010   6.880  19.178  0.00  0.00    +0.000 A 
ATOM     10  N   UNL     1       1.945   7.479  19.717  0.00  0.00    +0.000 NA
ENDROOT
BRANCH   1  15
ATOM     11  N   UNL     1       0.570  13.717  19.856  0.00  0.00    +0.000 NA
ATOM     12  C   UNL     1      -0.262  12.973  20.835  0.00  0.00    +0.000 C 
ATOM     13  C   UNL     1      -0.729  11.523  20.496  0.00  0.00    +0.000 C 
ATOM     14  N   UNL     1       0.248  10.773  19.708  0.00  0.00    +0.000 N 
ATOM     15  C   UNL     1       0.460   9.406  19.953  0.00  0.00    +0.000 C 
ATOM     16  O   UNL     1      -0.221   8.776  20.762  0.00  0.00    +0.000 OA
ATOM     17  C   UNL     1       0.795  11.553  18.604  0.00  0.00    +0.000 C 
ATOM     18  C   UNL     1       1.500  12.793  19.171  0.00  0.00    +0.000 C 
BRANCH  11  19
ATOM     19  C   UNL     1      -0.156  14.566  18.897  0.00  0.00    +0.000 C 
BRANCH  19  21
ATOM     20  C   UNL     1       1.078  16.564  19.962  0.00  0.00    +0.000 C 
ATOM     21  C   UNL     1      -0.201  16.048  19.297  0.00  0.00    +0.000 C 
ATOM     22  C   UNL     1      -0.626  16.990  18.144  0.00  0.00    +0.000 C 
ATOM     23  O   UNL     1      -1.606  17.635  18.996  0.00  0.00    +0.000 OA
ATOM     24  C   UNL     1      -1.521  16.530  19.932  0.00  0.00    +0.000 C 
ENDBRANCH  19  21
ENDBRANCH  11  19
ENDBRANCH   1  15
BRANCH   6  25
ATOM     25  O   UNL     1       6.386   4.925  17.656  0.00  0.00    +0.000 OA
BRANCH  25  26
ATOM     26  C   UNL     1       6.391   4.627  16.296  0.00  0.00    +0.000 A 
ATOM     27  C   UNL     1       5.458   3.704  15.851  0.00  0.00    +0.000 A 
ATOM     28  C   UNL     1       5.436   3.389  14.491  0.00  0.00    +0.000 A 
ATOM     29  C   UNL     1       6.346   4.000  13.621  0.00  0.00    +0.000 A 
ATOM     30  C   UNL     1       7.246   4.903  14.168  0.00  0.00    +0.000 A 
ATOM     31  N   UNL     1       7.297   5.214  15.480  0.00  0.00    +0.000 NA
BRANCH  29  32
ATOM     32  C   UNL     1       6.394   3.722  12.151  0.00  0.00    +0.000 C 
ATOM     33  F   UNL     1       5.175   3.792  11.547  0.00  0.00    +0.000 F 
ATOM     34  F   UNL     1       7.195   4.595  11.481  0.00  0.00    +0.000 F 
ATOM     35  F   UNL     1       6.878   2.482  11.873  0.00  0.00    +0.000 F 
ENDBRANCH  29  32
ENDBRANCH  25  26
ENDBRANCH   6  25
TORSDOF 6
ENDMDL
MODEL 5
REMARK VINA RESULT:      -8.2      2.874      3.619
REMARK  Name = 
REMARK  7 active torsions:
REMARK  status: ('A' for Active; 'I' for Inactive)
REMARK    1  A    between atoms: C_1  and  C_2
REMARK    2  A    between atoms: C_2  and  C_3
REMARK    3  A    between atoms: C_3  and  N_4
REMARK    4  A    between atoms: C_8  and  C_10
REMARK    5  A    between atoms: C_15  and  O_16
REMARK    6  A    between atoms: O_16  and  C_17
REMARK    7  A    between atoms: C_20  and  C_21
REMARK                            x       y       z     vdW  Elec       q    Type
REMARK                         _______ _______ _______ _____ _____    ______ ____
ROOT
ATOM      1  C   UNL     1       1.481   8.563  19.279  0.00  0.00    +0.000 A 
ATOM      2  C   UNL     1       1.980   9.128  18.109  0.00  0.00    +0.000 A 
ATOM      3  C   UNL     1       3.063   8.507  17.482  0.00  0.00    +0.000 A 
ATOM      4  C   UNL     1       3.633   7.355  18.048  0.00  0.00    +0.000 A 
ATOM      5  C   UNL     1       4.770   6.710  17.515  0.00  0.00    +0.000 A 
ATOM      6  C   UNL     1       5.316   5.597  18.155  0.00  0.00    +0.000 A 
ATOM      7  C   UNL     1       4.760   5.154  19.354  0.00  0.00    +0.000 A 
ATOM      8  C   UNL     1       3.605   5.759  19.850  0.00  0.00    +0.000 A 
ATOM      9  C   UNL     1       3.032   6.846  19.216  0.00  0.00    +0.000 A 
ATOM     10  N   UNL     1       1.959   7.402  19.785  0.00  0.00    +0.000 NA
ENDROOT
BRANCH   1  15
ATOM     11  N   UNL     1       0.416  13.579  20.070  0.00  0.00    +0.000 NA
ATOM     12  C   UNL     1      -0.388  12.794  21.038  0.00  0.00    +0.000 C 
ATOM     13  C   UNL     1      -0.827  11.342  20.669  0.00  0.00    +0.000 C 
ATOM     14  N   UNL     1       0.157  10.633  19.852  0.00  0.00    +0.000 N 
ATOM     15  C   UNL     1       0.403   9.266  20.061  0.00  0.00    +0.000 C 
ATOM     16  O   UNL     1      -0.255   8.601  20.861  0.00  0.00    +0.000 OA
ATOM     17  C   UNL     1       0.675  11.453  18.762  0.00  0.00    +0.000 C 
ATOM     18  C   UNL     1       1.358  12.694  19.352  0.00  0.00    +0.000 C 
BRANCH  11  19
ATOM     19  C   UNL     1      -0.340  14.436  19.140  0.00  0.00    +0.000 C 
BRANCH  19  21
ATOM     20  C   UNL     1      -0.456  16.846  18.230  0.00  0.00    +0.000 C 
ATOM     21  C   UNL     1      -0.205  15.937  19.436  0.00  0.00    +0.000 C 
ATOM     22  C   UNL     1      -1.042  16.408  20.649  0.00  0.00    +0.000 C 
ATOM     23  O   UNL     1       0.108  17.086  21.215  0.00  0.00    +0.000 OA
ATOM     24  C   UNL     1       0.984  16.336  20.333  0.00  0.00    +0.000 C 
ENDBRANCH  19  21
ENDBRANCH  11  19
ENDBRANCH   1  15
BRANCH   6  25
ATOM     25  O   UNL     1       6.442   5.029  17.600  0.00  0.00    +0.000 OA
BRANCH  25  26
ATOM     26  C   UNL     1       6.403   4.686  16.251  0.00  0.00    +0.000 A 
ATOM     27  C   UNL     1       5.413   3.801  15.855  0.00  0.00    +0.000 A 
ATOM     28  C   UNL     1       5.346   3.441  14.508  0.00  0.00    +0.000 A 
ATOM     29  C   UNL     1       6.270   3.971  13.601  0.00  0.00    +0.000 A 
ATOM     30  C   UNL     1       7.229   4.841  14.099  0.00  0.00    +0.000 A 
ATOM     31  N   UNL     1       7.323   5.194  15.399  0.00  0.00    +0.000 NA
BRANCH  29  32
ATOM     32  C   UNL     1       6.273   3.641  12.141  0.00  0.00    +0.000 C 
ATOM     33  F   UNL     1       6.660   2.362  11.876  0.00  0.00    +0.000 F 
ATOM     34  F   UNL     1       5.047   3.787  11.571  0.00  0.00    +0.000 F 
ATOM     35  F   UNL     1       7.113   4.441  11.429  0.00  0.00    +0.000 F 
ENDBRANCH  29  32
ENDBRANCH  25  26
ENDBRANCH   6  25
TORSDOF 6
ENDMDL
MODEL 6
REMARK VINA RESULT:      -8.1      3.921      5.300
REMARK  Name = 
REMARK  7 active torsions:
REMARK  status: ('A' for Active; 'I' for Inactive)
REMARK    1  A    between atoms: C_1  and  C_2
REMARK    2  A    between atoms: C_2  and  C_3
REMARK    3  A    between atoms: C_3  and  N_4
REMARK    4  A    between atoms: C_8  and  C_10
REMARK    5  A    between atoms: C_15  and  O_16
REMARK    6  A    between atoms: O_16  and  C_17
REMARK    7  A    between atoms: C_20  and  C_21
REMARK                            x       y       z     vdW  Elec       q    Type
REMARK                         _______ _______ _______ _____ _____    ______ ____
ROOT
ATOM      1  C   UNL     1      -0.523  10.893  20.302  0.00  0.00    +0.000 A 
ATOM      2  C   UNL     1      -0.499  10.208  21.512  0.00  0.00    +0.000 A 
ATOM      3  C   UNL     1       0.313   9.076  21.618  0.00  0.00    +0.000 A 
ATOM      4  C   UNL     1       1.060   8.646  20.510  0.00  0.00    +0.000 A 
ATOM      5  C   UNL     1       1.849   7.474  20.514  0.00  0.00    +0.000 A 
ATOM      6  C   UNL     1       2.529   7.075  19.363  0.00  0.00    +0.000 A 
ATOM      7  C   UNL     1       2.385   7.816  18.191  0.00  0.00    +0.000 A 
ATOM      8  C   UNL     1       1.649   9.002  18.203  0.00  0.00    +0.000 A 
ATOM      9  C   UNL     1       0.990   9.428  19.341  0.00  0.00    +0.000 A 
ATOM     10  N   UNL     1       0.263  10.545  19.255  0.00  0.00    +0.000 NA
ENDROOT
BRANCH   1  15
ATOM     11  N   UNL     1      -1.989  14.832  23.344  0.00  0.00    +0.000 NA
ATOM     12  C   UNL     1      -2.931  14.779  22.198  0.00  0.00    +0.000 C 
ATOM     13  C   UNL     1      -2.437  14.216  20.829  0.00  0.00    +0.000 C 
ATOM     14  N   UNL     1      -1.455  13.142  20.967  0.00  0.00    +0.000 N 
ATOM     15  C   UNL     1      -1.479  12.039  20.097  0.00  0.00    +0.000 C 
ATOM     16  O   UNL     1      -2.254  11.980  19.142  0.00  0.00    +0.000 OA
ATOM     17  C   UNL     1      -0.425  13.449  21.953  0.00  0.00    +0.000 C 
ATOM     18  C   UNL     1      -1.089  13.659  23.320  0.00  0.00    +0.000 C 
BRANCH  11  19
ATOM     19  C   UNL     1      -1.240  16.088  23.513  0.00  0.00    +0.000 C 
BRANCH  19  21
ATOM     20  C   UNL     1      -2.490  17.810  24.971  0.00  0.00    +0.000 C 
ATOM     21  C   UNL     1      -1.411  16.726  24.900  0.00  0.00    +0.000 C 
ATOM     22  C   UNL     1      -1.608  15.695  26.038  0.00  0.00    +0.000 C 
ATOM     23  O   UNL     1      -0.582  16.338  26.835  0.00  0.00    +0.000 OA
ATOM     24  C   UNL     1      -0.105  17.038  25.657  0.00  0.00    +0.000 C 
ENDBRANCH  19  21
ENDBRANCH  11  19
ENDBRANCH   1  15
BRANCH   6  25
ATOM     25  O   UNL     1       3.259   5.909  19.424  0.00  0.00    +0.000 OA
BRANCH  25  26
ATOM     26  C   UNL     1       4.029   5.562  18.317  0.00  0.00    +0.000 A 
ATOM     27  C   UNL     1       3.703   4.381  17.669  0.00  0.00    +0.000 A 
ATOM     28  C   UNL     1       4.456   4.009  16.553  0.00  0.00    +0.000 A 
ATOM     29  C   UNL     1       5.511   4.823  16.124  0.00  0.00    +0.000 A 
ATOM     30  C   UNL     1       5.763   5.978  16.848  0.00  0.00    +0.000 A 
ATOM     31  N   UNL     1       5.059   6.354  17.937  0.00  0.00    +0.000 NA
BRANCH  29  32
ATOM     32  C   UNL     1       6.369   4.502  14.941  0.00  0.00    +0.000 C 
ATOM     33  F   UNL     1       7.691   4.379  15.247  0.00  0.00    +0.000 F 
ATOM     34  F   UNL     1       6.013   3.334  14.340  0.00  0.00    +0.000 F 
ATOM     35  F   UNL     1       6.297   5.456  13.973  0.00  0.00    +0.000 F 
ENDBRANCH  29  32
ENDBRANCH  25  26
ENDBRANCH   6  25
TORSDOF 6
ENDMDL
MODEL 7
REMARK VINA RESULT:      -8.0      2.955      4.343
REMARK  Name = 
REMARK  7 active torsions:
REMARK  status: ('A' for Active; 'I' for Inactive)
REMARK    1  A    between atoms: C_1  and  C_2
REMARK    2  A    between atoms: C_2  and  C_3
REMARK    3  A    between atoms: C_3  and  N_4
REMARK    4  A    between atoms: C_8  and  C_10
REMARK    5  A    between atoms: C_15  and  O_16
REMARK    6  A    between atoms: O_16  and  C_17
REMARK    7  A    between atoms: C_20  and  C_21
REMARK                            x       y       z     vdW  Elec       q    Type
REMARK                         _______ _______ _______ _____ _____    ______ ____
ROOT
ATOM      1  C   UNL     1       1.471   8.928  19.133  0.00  0.00    +0.000 A 
ATOM      2  C   UNL     1       2.088   9.311  17.946  0.00  0.00    +0.000 A 
ATOM      3  C   UNL     1       3.075   8.479  17.414  0.00  0.00    +0.000 A 
ATOM      4  C   UNL     1       3.437   7.302  18.088  0.00  0.00    +0.000 A 
ATOM      5  C   UNL     1       4.471   6.445  17.654  0.00  0.00    +0.000 A 
ATOM      6  C   UNL     1       4.814   5.315  18.398  0.00  0.00    +0.000 A 
ATOM      7  C   UNL     1       4.158   5.063  19.602  0.00  0.00    +0.000 A 
ATOM      8  C   UNL     1       3.101   5.881  20.002  0.00  0.00    +0.000 A 
ATOM      9  C   UNL     1       2.729   6.989  19.265  0.00  0.00    +0.000 A 
ATOM     10  N   UNL     1       1.742   7.751  19.745  0.00  0.00    +0.000 NA
ENDROOT
BRANCH   1  15
ATOM     11  N   UNL     1       1.488  14.047  19.982  0.00  0.00    +0.000 NA
ATOM     12  C   UNL     1       0.418  13.458  20.825  0.00  0.00    +0.000 C 
ATOM     13  C   UNL     1      -0.292  12.150  20.356  0.00  0.00    +0.000 C 
ATOM     14  N   UNL     1       0.594  11.242  19.629  0.00  0.00    +0.000 N 
ATOM     15  C   UNL     1       0.496   9.853  19.814  0.00  0.00    +0.000 C 
ATOM     16  O   UNL     1      -0.386   9.349  20.510  0.00  0.00    +0.000 OA
ATOM     17  C   UNL     1       1.409  11.931  18.635  0.00  0.00    +0.000 C 
ATOM     18  C   UNL     1       2.283  12.975  19.344  0.00  0.00    +0.000 C 
BRANCH  11  19
ATOM     19  C   UNL     1       1.063  15.063  19.006  0.00  0.00    +0.000 C 
BRANCH  19  21
ATOM     20  C   UNL     1       2.947  16.321  17.774  0.00  0.00    +0.000 C 
ATOM     21  C   UNL     1       1.978  16.295  18.959  0.00  0.00    +0.000 C 
ATOM     22  C   UNL     1       1.216  17.639  19.061  0.00  0.00    +0.000 C 
ATOM     23  O   UNL     1       2.114  18.100  20.103  0.00  0.00    +0.000 OA
ATOM     24  C   UNL     1       2.571  16.739  20.311  0.00  0.00    +0.000 C 
ENDBRANCH  19  21
ENDBRANCH  11  19
ENDBRANCH   1  15
BRANCH   6  25
ATOM     25  O   UNL     1       5.850   4.535  17.934  0.00  0.00    +0.000 OA
BRANCH  25  26
ATOM     26  C   UNL     1       5.950   4.330  16.561  0.00  0.00    +0.000 A 
ATOM     27  C   UNL     1       7.067   4.850  15.926  0.00  0.00    +0.000 A 
ATOM     28  C   UNL     1       7.197   4.656  14.550  0.00  0.00    +0.000 A 
ATOM     29  C   UNL     1       6.207   3.954  13.851  0.00  0.00    +0.000 A 
ATOM     30  C   UNL     1       5.124   3.483  14.577  0.00  0.00    +0.000 A 
ATOM     31  N   UNL     1       4.968   3.669  15.905  0.00  0.00    +0.000 NA
BRANCH  29  32
ATOM     32  C   UNL     1       6.264   3.700  12.377  0.00  0.00    +0.000 C 
ATOM     33  F   UNL     1       6.729   2.459  12.059  0.00  0.00    +0.000 F 
ATOM     34  F   UNL     1       5.046   3.808  11.782  0.00  0.00    +0.000 F 
ATOM     35  F   UNL     1       7.075   4.580  11.729  0.00  0.00    +0.000 F 
ENDBRANCH  29  32
ENDBRANCH  25  26
ENDBRANCH   6  25
TORSDOF 6
ENDMDL
MODEL 8
REMARK VINA RESULT:      -7.9      3.238      4.467
REMARK  Name = 
REMARK  7 active torsions:
REMARK  status: ('A' for Active; 'I' for Inactive)
REMARK    1  A    between atoms: C_1  and  C_2
REMARK    2  A    between atoms: C_2  and  C_3
REMARK    3  A    between atoms: C_3  and  N_4
REMARK    4  A    between atoms: C_8  and  C_10
REMARK    5  A    between atoms: C_15  and  O_16
REMARK    6  A    between atoms: O_16  and  C_17
REMARK    7  A    between atoms: C_20  and  C_21
REMARK                            x       y       z     vdW  Elec       q    Type
REMARK                         _______ _______ _______ _____ _____    ______ ____
ROOT
ATOM      1  C   UNL     1      -0.091  11.408  21.826  0.00  0.00    +0.000 A 
ATOM      2  C   UNL     1      -0.006  10.276  22.630  0.00  0.00    +0.000 A 
ATOM      3  C   UNL     1       0.522   9.107  22.077  0.00  0.00    +0.000 A 
ATOM      4  C   UNL     1       0.929   9.091  20.734  0.00  0.00    +0.000 A 
ATOM      5  C   UNL     1       1.407   7.933  20.081  0.00  0.00    +0.000 A 
ATOM      6  C   UNL     1       1.749   7.973  18.729  0.00  0.00    +0.000 A 
ATOM      7  C   UNL     1       1.570   9.155  18.012  0.00  0.00    +0.000 A 
ATOM      8  C   UNL     1       1.149  10.311  18.670  0.00  0.00    +0.000 A 
ATOM      9  C   UNL     1       0.831  10.298  20.015  0.00  0.00    +0.000 A 
ATOM     10  N   UNL     1       0.384  11.434  20.558  0.00  0.00    +0.000 NA
ENDROOT
BRANCH   1  15
ATOM     11  N   UNL     1      -4.410  13.894  20.381  0.00  0.00    +0.000 NA
ATOM     12  C   UNL     1      -3.658  14.795  21.289  0.00  0.00    +0.000 C 
ATOM     13  C   UNL     1      -2.735  14.178  22.386  0.00  0.00    +0.000 C 
ATOM     14  N   UNL     1      -2.098  12.930  21.968  0.00  0.00    +0.000 N 
ATOM     15  C   UNL     1      -0.771  12.652  22.335  0.00  0.00    +0.000 C 
ATOM     16  O   UNL     1      -0.135  13.389  23.088  0.00  0.00    +0.000 OA
ATOM     17  C   UNL     1      -3.029  12.018  21.315  0.00  0.00    +0.000 C 
ATOM     18  C   UNL     1      -3.599  12.698  20.063  0.00  0.00    +0.000 C 
BRANCH  11  19
ATOM     19  C   UNL     1      -5.772  13.529  20.805  0.00  0.00    +0.000 C 
BRANCH  19  21
ATOM     20  C   UNL     1      -7.551  12.804  19.085  0.00  0.00    +0.000 C 
ATOM     21  C   UNL     1      -6.862  13.961  19.813  0.00  0.00    +0.000 C 
ATOM     22  C   UNL     1      -7.916  14.915  20.426  0.00  0.00    +0.000 C 
ATOM     23  O   UNL     1      -7.770  15.834  19.313  0.00  0.00    +0.000 OA
ATOM     24  C   UNL     1      -6.526  15.187  18.942  0.00  0.00    +0.000 C 
ENDBRANCH  19  21
ENDBRANCH  11  19
ENDBRANCH   1  15
BRANCH   6  25
ATOM     25  O   UNL     1       2.182   6.804  18.145  0.00  0.00    +0.000 OA
BRANCH  25  26
ATOM     26  C   UNL     1       3.538   6.496  18.226  0.00  0.00    +0.000 A 
ATOM     27  C   UNL     1       3.921   5.594  19.206  0.00  0.00    +0.000 A 
ATOM     28  C   UNL     1       5.272   5.262  19.309  0.00  0.00    +0.000 A 
ATOM     29  C   UNL     1       6.199   5.843  18.435  0.00  0.00    +0.000 A 
ATOM     30  C   UNL     1       5.716   6.742  17.497  0.00  0.00    +0.000 A 
ATOM     31  N   UNL     1       4.416   7.090  17.385  0.00  0.00    +0.000 NA
BRANCH  29  32
ATOM     32  C   UNL     1       7.665   5.547  18.474  0.00  0.00    +0.000 C 
ATOM     33  F   UNL     1       8.132   5.283  19.726  0.00  0.00    +0.000 F 
ATOM     34  F   UNL     1       7.999   4.468  17.715  0.00  0.00    +0.000 F 
ATOM     35  F   UNL     1       8.417   6.580  18.005  0.00  0.00    +0.000 F 
ENDBRANCH  29  32
ENDBRANCH  25  26
ENDBRANCH   6  25
TORSDOF 6
ENDMDL
MODEL 9
REMARK VINA RESULT:      -7.9      3.019      3.499
REMARK  Name = 
REMARK  7 active torsions:
REMARK  status: ('A' for Active; 'I' for Inactive)
REMARK    1  A    between atoms: C_1  and  C_2
REMARK    2  A    between atoms: C_2  and  C_3
REMARK    3  A    between atoms: C_3  and  N_4
REMARK    4  A    between atoms: C_8  and  C_10
REMARK    5  A    between atoms: C_15  and  O_16
REMARK    6  A    between atoms: O_16  and  C_17
REMARK    7  A    between atoms: C_20  and  C_21
REMARK                            x       y       z     vdW  Elec       q    Type
REMARK                         _______ _______ _______ _____ _____    ______ ____
ROOT
ATOM      1  C   UNL     1       1.679   8.137  19.500  0.00  0.00    +0.000 A 
ATOM      2  C   UNL     1       2.074   8.769  18.325  0.00  0.00    +0.000 A 
ATOM      3  C   UNL     1       3.156   8.239  17.618  0.00  0.00    +0.000 A 
ATOM      4  C   UNL     1       3.828   7.109  18.112  0.00  0.00    +0.000 A 
ATOM      5  C   UNL     1       4.972   6.555  17.495  0.00  0.00    +0.000 A 
ATOM      6  C   UNL     1       5.623   5.461  18.065  0.00  0.00    +0.000 A 
ATOM      7  C   UNL     1       5.164   4.946  19.277  0.00  0.00    +0.000 A 
ATOM      8  C   UNL     1       4.004   5.460  19.856  0.00  0.00    +0.000 A 
ATOM      9  C   UNL     1       3.329   6.526  19.293  0.00  0.00    +0.000 A 
ATOM     10  N   UNL     1       2.257   6.994  19.939  0.00  0.00    +0.000 NA
ENDROOT
BRANCH   1  15
ATOM     11  N   UNL     1       0.526  13.040  20.747  0.00  0.00    +0.000 NA
ATOM     12  C   UNL     1      -0.237  12.155  21.662  0.00  0.00    +0.000 C 
ATOM     13  C   UNL     1      -0.654  10.731  21.177  0.00  0.00    +0.000 C 
ATOM     14  N   UNL     1       0.326  10.118  20.280  0.00  0.00    +0.000 N 
ATOM     15  C   UNL     1       0.605   8.744  20.364  0.00  0.00    +0.000 C 
ATOM     16  O   UNL     1      -0.019   7.997  21.118  0.00  0.00    +0.000 OA
ATOM     17  C   UNL     1       0.799  11.041  19.255  0.00  0.00    +0.000 C 
ATOM     18  C   UNL     1       1.470  12.242  19.935  0.00  0.00    +0.000 C 
BRANCH  11  19
ATOM     19  C   UNL     1      -0.270  13.955  19.913  0.00  0.00    +0.000 C 
BRANCH  19  21
ATOM     20  C   UNL     1       0.416  15.759  21.624  0.00  0.00    +0.000 C 
ATOM     21  C   UNL     1      -0.627  15.274  20.613  0.00  0.00    +0.000 C 
ATOM     22  C   UNL     1      -0.999  16.415  19.635  0.00  0.00    +0.000 C 
ATOM     23  O   UNL     1      -2.204  16.705  20.389  0.00  0.00    +0.000 OA
ATOM     24  C   UNL     1      -2.097  15.420  21.054  0.00  0.00    +0.000 C 
ENDBRANCH  19  21
ENDBRANCH  11  19
ENDBRANCH   1  15
BRANCH   6  25
ATOM     25  O   UNL     1       6.748   4.985  17.429  0.00  0.00    +0.000 OA
BRANCH  25  26
ATOM     26  C   UNL     1       6.644   4.646  16.083  0.00  0.00    +0.000 A 
ATOM     27  C   UNL     1       5.688   3.703  15.743  0.00  0.00    +0.000 A 
ATOM     28  C   UNL     1       5.557   3.346  14.400  0.00  0.00    +0.000 A 
ATOM     29  C   UNL     1       6.387   3.939  13.440  0.00  0.00    +0.000 A 
ATOM     30  C   UNL     1       7.319   4.864  13.885  0.00  0.00    +0.000 A 
ATOM     31  N   UNL     1       7.474   5.216  15.178  0.00  0.00    +0.000 NA
BRANCH  29  32
ATOM     32  C   UNL     1       6.317   3.617  11.980  0.00  0.00    +0.000 C 
ATOM     33  F   UNL     1       6.774   2.370  11.677  0.00  0.00    +0.000 F 
ATOM     34  F   UNL     1       5.048   3.679  11.493  0.00  0.00    +0.000 F 
ATOM     35  F   UNL     1       7.049   4.478  11.223  0.00  0.00    +0.000 F 
ENDBRANCH  29  32
ENDBRANCH  25  26
ENDBRANCH   6  25
TORSDOF 6
ENDMDL
