MODEL 1
REMARK VINA RESULT:      -8.6      0.000      0.000
REMARK  Name = 
REMARK  2 active torsions:
REMARK  status: ('A' for Active; 'I' for Inactive)
REMARK    1  A    between atoms: N_4  and  C_5
REMARK    2  A    between atoms: C_15  and  N_16
REMARK                            x       y       z     vdW  Elec       q    Type
REMARK                         _______ _______ _______ _____ _____    ______ ____
ROOT
ATOM      1  C   UNL     1       5.543   4.620  14.916  0.00  0.00    +0.000 A 
ATOM      2  C   UNL     1       5.524   5.946  15.404  0.00  0.00    +0.000 A 
ATOM      3  C   UNL     1       4.786   6.312  16.537  0.00  0.00    +0.000 A 
ATOM      4  C   UNL     1       4.051   5.341  17.184  0.00  0.00    +0.000 A 
ATOM      5  C   UNL     1       4.022   4.025  16.684  0.00  0.00    +0.000 A 
ATOM      6  C   UNL     1       4.765   3.653  15.573  0.00  0.00    +0.000 A 
ATOM      7  C   UNL     1       3.111   3.162  17.531  0.00  0.00    +0.000 C 
ATOM      8  C   UNL     1       2.654   4.143  18.588  0.00  0.00    +0.000 A 
ATOM      9  C   UNL     1       1.812   3.913  19.656  0.00  0.00    +0.000 A 
ATOM     10  C   UNL     1       1.546   4.980  20.517  0.00  0.00    +0.000 A 
ATOM     11  C   UNL     1       2.089   6.269  20.314  0.00  0.00    +0.000 A 
ATOM     12  C   UNL     1       2.966   6.466  19.233  0.00  0.00    +0.000 A 
ATOM     13  C   UNL     1       3.226   5.411  18.370  0.00  0.00    +0.000 A 
ENDROOT
BRANCH   1  17
ATOM     14  N   UNL     1       6.974   2.751  12.185  0.00  0.00    +0.000 NA
ATOM     15  C   UNL     1       6.080   3.512  12.723  0.00  0.00    +0.000 C 
ATOM     16  N   UNL     1       4.879   3.711  12.141  0.00  0.00    +0.000 N 
ATOM     17  N   UNL     1       6.370   4.194  13.856  0.00  0.00    +0.000 N 
ATOM     18  H   UNL     1       6.587   2.312  11.351  0.00  0.00    +0.000 HD
ATOM     19  H   UNL     1       4.815   3.453  11.166  0.00  0.00    +0.000 HD
ATOM     20  H   UNL     1       4.512   4.640  12.309  0.00  0.00    +0.000 HD
ATOM     21  H   UNL     1       7.336   4.062  14.132  0.00  0.00    +0.000 HD
ENDBRANCH   1  17
BRANCH  11  22
ATOM     22  N   UNL     1       1.810   7.352  21.183  0.00  0.00    +0.000 N 
ATOM     23  C   UNL     1       1.375   8.584  20.806  0.00  0.00    +0.000 C 
ATOM     24  N   UNL     1       1.082   9.022  19.613  0.00  0.00    +0.000 NA
ATOM     25  C   UNL     1       0.691  10.435  19.808  0.00  0.00    +0.000 C 
ATOM     26  C   UNL     1       0.456  10.593  21.307  0.00  0.00    +0.000 C 
ATOM     27  N   UNL     1       1.215   9.471  21.834  0.00  0.00    +0.000 N 
ATOM     28  H   UNL     1       2.366   7.349  22.028  0.00  0.00    +0.000 HD
ATOM     29  H   UNL     1       0.851   9.076  22.692  0.00  0.00    +0.000 HD
ENDBRANCH  11  22
TORSDOF 2
ENDMDL
MODEL 2
REMARK VINA RESULT:      -8.5      4.001      9.567
REMARK  Name = 
REMARK  2 active torsions:
REMARK  status: ('A' for Active; 'I' for Inactive)
REMARK    1  A    between atoms: N_4  and  C_5
REMARK    2  A    between atoms: C_15  and  N_16
REMARK                            x       y       z     vdW  Elec       q    Type
REMARK                         _______ _______ _______ _____ _____    ______ ____
ROOT
ATOM      1  C   UNL     1      -1.103  11.489  22.487  0.00  0.00    +0.000 A 
ATOM      2  C   UNL     1      -0.747  10.283  23.130  0.00  0.00    +0.000 A 
ATOM      3  C   UNL     1      -0.001   9.287  22.486  0.00  0.00    +0.000 A 
ATOM      4  C   UNL     1       0.386   9.499  21.179  0.00  0.00    +0.000 A 
ATOM      5  C   UNL     1      -0.000  10.676  20.508  0.00  0.00    +0.000 A 
ATOM      6  C   UNL     1      -0.723  11.672  21.147  0.00  0.00    +0.000 A 
ATOM      7  C   UNL     1       0.499  10.653  19.079  0.00  0.00    +0.000 C 
ATOM      8  C   UNL     1       1.240   9.334  19.033  0.00  0.00    +0.000 A 
ATOM      9  C   UNL     1       1.926   8.780  17.973  0.00  0.00    +0.000 A 
ATOM     10  C   UNL     1       2.552   7.548  18.176  0.00  0.00    +0.000 A 
ATOM     11  C   UNL     1       2.483   6.858  19.408  0.00  0.00    +0.000 A 
ATOM     12  C   UNL     1       1.799   7.460  20.478  0.00  0.00    +0.000 A 
ATOM     13  C   UNL     1       1.169   8.680  20.279  0.00  0.00    +0.000 A 
ENDROOT
BRANCH   1  17
ATOM     14  N   UNL     1      -3.158  14.357  23.226  0.00  0.00    +0.000 NA
ATOM     15  C   UNL     1      -2.968  13.108  22.960  0.00  0.00    +0.000 C 
ATOM     16  N   UNL     1      -3.983  12.305  22.576  0.00  0.00    +0.000 N 
ATOM     17  N   UNL     1      -1.744  12.560  23.144  0.00  0.00    +0.000 N 
ATOM     18  H   UNL     1      -4.127  14.603  23.024  0.00  0.00    +0.000 HD
ATOM     19  H   UNL     1      -4.913  12.658  22.754  0.00  0.00    +0.000 HD
ATOM     20  H   UNL     1      -3.873  11.352  22.901  0.00  0.00    +0.000 HD
ATOM     21  H   UNL     1      -1.097  13.225  23.549  0.00  0.00    +0.000 HD
ENDBRANCH   1  17
BRANCH  11  22
ATOM     22  N   UNL     1       3.109   5.604  19.608  0.00  0.00    +0.000 N 
ATOM     23  C   UNL     1       2.569   4.388  19.323  0.00  0.00    +0.000 C 
ATOM     24  N   UNL     1       1.417   4.109  18.781  0.00  0.00    +0.000 NA
ATOM     25  C   UNL     1       1.359   2.632  18.741  0.00  0.00    +0.000 C 
ATOM     26  C   UNL     1       2.787   2.159  18.992  0.00  0.00    +0.000 C 
ATOM     27  N   UNL     1       3.362   3.323  19.645  0.00  0.00    +0.000 N 
ATOM     28  H   UNL     1       3.766   5.595  20.376  0.00  0.00    +0.000 HD
ATOM     29  H   UNL     1       4.352   3.457  19.481  0.00  0.00    +0.000 HD
ENDBRANCH  11  22
TORSDOF 2
ENDMDL
MODEL 3
REMARK VINA RESULT:      -8.4      3.178      4.683
REMARK  Name = 
REMARK  2 active torsions:
REMARK  status: ('A' for Active; 'I' for Inactive)
REMARK    1  A    between atoms: N_4  and  C_5
REMARK    2  A    between atoms: C_15  and  N_16
REMARK                            x       y       z     vdW  Elec       q    Type
REMARK                         _______ _______ _______ _____ _____    ______ ____
ROOT
ATOM      1  C   UNL     1       3.610   4.199  18.918  0.00  0.00    +0.000 A 
ATOM      2  C   UNL     1       2.971   4.405  20.160  0.00  0.00    +0.000 A 
ATOM      3  C   UNL     1       2.341   5.614  20.483  0.00  0.00    +0.000 A 
ATOM      4  C   UNL     1       2.361   6.633  19.554  0.00  0.00    +0.000 A 
ATOM      5  C   UNL     1       3.033   6.461  18.328  0.00  0.00    +0.000 A 
ATOM      6  C   UNL     1       3.642   5.260  17.997  0.00  0.00    +0.000 A 
ATOM      7  C   UNL     1       2.956   7.729  17.505  0.00  0.00    +0.000 C 
ATOM      8  C   UNL     1       2.133   8.628  18.401  0.00  0.00    +0.000 A 
ATOM      9  C   UNL     1       1.721   9.922  18.161  0.00  0.00    +0.000 A 
ATOM     10  C   UNL     1       0.946  10.550  19.139  0.00  0.00    +0.000 A 
ATOM     11  C   UNL     1       0.597   9.914  20.352  0.00  0.00    +0.000 A 
ATOM     12  C   UNL     1       1.008   8.585  20.556  0.00  0.00    +0.000 A 
ATOM     13  C   UNL     1       1.786   7.960  19.592  0.00  0.00    +0.000 A 
ENDROOT
BRANCH   1  17
ATOM     14  N   UNL     1       4.210   0.670  18.491  0.00  0.00    +0.000 NA
ATOM     15  C   UNL     1       3.544   1.760  18.306  0.00  0.00    +0.000 C 
ATOM     16  N   UNL     1       2.281   1.746  17.831  0.00  0.00    +0.000 N 
ATOM     17  N   UNL     1       4.142   2.957  18.513  0.00  0.00    +0.000 N 
ATOM     18  H   UNL     1       3.608  -0.130  18.298  0.00  0.00    +0.000 HD
ATOM     19  H   UNL     1       1.986   0.883  17.395  0.00  0.00    +0.000 HD
ATOM     20  H   UNL     1       2.070   2.550  17.253  0.00  0.00    +0.000 HD
ATOM     21  H   UNL     1       5.122   2.847  18.748  0.00  0.00    +0.000 HD
ENDBRANCH   1  17
BRANCH  11  22
ATOM     22  N   UNL     1      -0.180  10.556  21.346  0.00  0.00    +0.000 N 
ATOM     23  C   UNL     1      -0.085  11.862  21.713  0.00  0.00    +0.000 C 
ATOM     24  N   UNL     1       0.681  12.798  21.224  0.00  0.00    +0.000 NA
ATOM     25  C   UNL     1       0.375  14.003  22.025  0.00  0.00    +0.000 C 
ATOM     26  C   UNL     1      -0.922  13.685  22.764  0.00  0.00    +0.000 C 
ATOM     27  N   UNL     1      -0.922  12.232  22.728  0.00  0.00    +0.000 N 
ATOM     28  H   UNL     1      -0.482   9.939  22.088  0.00  0.00    +0.000 HD
ATOM     29  H   UNL     1      -1.840  11.808  22.705  0.00  0.00    +0.000 HD
ENDBRANCH  11  22
TORSDOF 2
ENDMDL
MODEL 4
REMARK VINA RESULT:      -8.4      3.175      4.775
REMARK  Name = 
REMARK  2 active torsions:
REMARK  status: ('A' for Active; 'I' for Inactive)
REMARK    1  A    between atoms: N_4  and  C_5
REMARK    2  A    between atoms: C_15  and  N_16
REMARK                            x       y       z     vdW  Elec       q    Type
REMARK                         _______ _______ _______ _____ _____    ______ ____
ROOT
ATOM      1  C   UNL     1       3.413   4.281  18.806  0.00  0.00    +0.000 A 
ATOM      2  C   UNL     1       2.956   4.459  20.131  0.00  0.00    +0.000 A 
ATOM      3  C   UNL     1       2.394   5.665  20.569  0.00  0.00    +0.000 A 
ATOM      4  C   UNL     1       2.296   6.709  19.672  0.00  0.00    +0.000 A 
ATOM      5  C   UNL     1       2.788   6.563  18.360  0.00  0.00    +0.000 A 
ATOM      6  C   UNL     1       3.329   5.366  17.917  0.00  0.00    +0.000 A 
ATOM      7  C   UNL     1       2.612   7.853  17.588  0.00  0.00    +0.000 C 
ATOM      8  C   UNL     1       1.934   8.735  18.613  0.00  0.00    +0.000 A 
ATOM      9  C   UNL     1       1.509  10.039  18.466  0.00  0.00    +0.000 A 
ATOM     10  C   UNL     1       0.887  10.647  19.558  0.00  0.00    +0.000 A 
ATOM     11  C   UNL     1       0.703   9.983  20.792  0.00  0.00    +0.000 A 
ATOM     12  C   UNL     1       1.122   8.645  20.903  0.00  0.00    +0.000 A 
ATOM     13  C   UNL     1       1.749   8.039  19.823  0.00  0.00    +0.000 A 
ENDROOT
BRANCH   1  17
ATOM     14  N   UNL     1       4.034   0.764  18.319  0.00  0.00    +0.000 NA
ATOM     15  C   UNL     1       3.292   1.820  18.301  0.00  0.00    +0.000 C 
ATOM     16  N   UNL     1       1.949   1.739  18.205  0.00  0.00    +0.000 N 
ATOM     17  N   UNL     1       3.867   3.046  18.300  0.00  0.00    +0.000 N 
ATOM     18  H   UNL     1       3.441  -0.066  18.326  0.00  0.00    +0.000 HD
ATOM     19  H   UNL     1       1.584   0.850  17.893  0.00  0.00    +0.000 HD
ATOM     20  H   UNL     1       1.546   2.513  17.690  0.00  0.00    +0.000 HD
ATOM     21  H   UNL     1       4.877   2.982  18.250  0.00  0.00    +0.000 HD
ENDBRANCH   1  17
BRANCH  11  22
ATOM     22  N   UNL     1       0.081  10.605  21.901  0.00  0.00    +0.000 N 
ATOM     23  C   UNL     1      -1.004  11.423  21.851  0.00  0.00    +0.000 C 
ATOM     24  N   UNL     1      -1.721  11.773  20.819  0.00  0.00    +0.000 NA
ATOM     25  C   UNL     1      -2.748  12.690  21.358  0.00  0.00    +0.000 C 
ATOM     26  C   UNL     1      -2.717  12.497  22.871  0.00  0.00    +0.000 C 
ATOM     27  N   UNL     1      -1.392  11.931  23.059  0.00  0.00    +0.000 N 
ATOM     28  H   UNL     1       0.714  10.804  22.664  0.00  0.00    +0.000 HD
ATOM     29  H   UNL     1      -1.309  11.294  23.841  0.00  0.00    +0.000 HD
ENDBRANCH  11  22
TORSDOF 2
ENDMDL
MODEL 5
REMARK VINA RESULT:      -8.4      3.479      5.030
REMARK  Name = 
REMARK  2 active torsions:
REMARK  status: ('A' for Active; 'I' for Inactive)
REMARK    1  A    between atoms: N_4  and  C_5
REMARK    2  A    between atoms: C_15  and  N_16
REMARK                            x       y       z     vdW  Elec       q    Type
REMARK                         _______ _______ _______ _____ _____    ______ ____
ROOT
ATOM      1  C   UNL     1       2.626   3.881  19.447  0.00  0.00    +0.000 A 
ATOM      2  C   UNL     1       2.068   4.365  20.651  0.00  0.00    +0.000 A 
ATOM      3  C   UNL     1       1.720   5.712  20.822  0.00  0.00    +0.000 A 
ATOM      4  C   UNL     1       1.942   6.585  19.778  0.00  0.00    +0.000 A 
ATOM      5  C   UNL     1       2.539   6.128  18.587  0.00  0.00    +0.000 A 
ATOM      6  C   UNL     1       2.869   4.793  18.406  0.00  0.00    +0.000 A 
ATOM      7  C   UNL     1       2.722   7.276  17.617  0.00  0.00    +0.000 C 
ATOM      8  C   UNL     1       2.128   8.431  18.392  0.00  0.00    +0.000 A 
ATOM      9  C   UNL     1       2.000   9.746  17.997  0.00  0.00    +0.000 A 
ATOM     10  C   UNL     1       1.395  10.637  18.886  0.00  0.00    +0.000 A 
ATOM     11  C   UNL     1       0.940  10.240  20.164  0.00  0.00    +0.000 A 
ATOM     12  C   UNL     1       1.059   8.888  20.529  0.00  0.00    +0.000 A 
ATOM     13  C   UNL     1       1.667   8.000  19.652  0.00  0.00    +0.000 A 
ENDROOT
BRANCH   1  17
ATOM     14  N   UNL     1       4.113   0.775  18.380  0.00  0.00    +0.000 NA
ATOM     15  C   UNL     1       4.031   1.818  19.136  0.00  0.00    +0.000 C 
ATOM     16  N   UNL     1       5.052   2.195  19.934  0.00  0.00    +0.000 N 
ATOM     17  N   UNL     1       2.872   2.515  19.198  0.00  0.00    +0.000 N 
ATOM     18  H   UNL     1       5.051   0.381  18.447  0.00  0.00    +0.000 HD
ATOM     19  H   UNL     1       5.760   1.493  20.101  0.00  0.00    +0.000 HD
ATOM     20  H   UNL     1       4.737   2.624  20.796  0.00  0.00    +0.000 HD
ATOM     21  H   UNL     1       2.142   2.071  18.654  0.00  0.00    +0.000 HD
ENDBRANCH   1  17
BRANCH  11  22
ATOM     22  N   UNL     1       0.337  11.148  21.068  0.00  0.00    +0.000 N 
ATOM     23  C   UNL     1      -0.851  11.785  20.885  0.00  0.00    +0.000 C 
ATOM     24  N   UNL     1      -1.696  11.677  19.898  0.00  0.00    +0.000 NA
ATOM     25  C   UNL     1      -2.788  12.619  20.223  0.00  0.00    +0.000 C 
ATOM     26  C   UNL     1      -2.599  12.974  21.695  0.00  0.00    +0.000 C 
ATOM     27  N   UNL     1      -1.197  12.644  21.890  0.00  0.00    +0.000 N 
ATOM     28  H   UNL     1       1.001  11.664  21.630  0.00  0.00    +0.000 HD
ATOM     29  H   UNL     1      -0.960  12.334  22.823  0.00  0.00    +0.000 HD
ENDBRANCH  11  22
TORSDOF 2
ENDMDL
MODEL 6
REMARK VINA RESULT:      -8.3      2.527      7.925
REMARK  Name = 
REMARK  2 active torsions:
REMARK  status: ('A' for Active; 'I' for Inactive)
REMARK    1  A    between atoms: N_4  and  C_5
REMARK    2  A    between atoms: C_15  and  N_16
REMARK                            x       y       z     vdW  Elec       q    Type
REMARK                         _______ _______ _______ _____ _____    ______ ____
ROOT
ATOM      1  C   UNL     1       0.752  11.202  19.261  0.00  0.00    +0.000 A 
ATOM      2  C   UNL     1       1.495  10.837  18.117  0.00  0.00    +0.000 A 
ATOM      3  C   UNL     1       2.034   9.554  17.956  0.00  0.00    +0.000 A 
ATOM      4  C   UNL     1       1.834   8.627  18.959  0.00  0.00    +0.000 A 
ATOM      5  C   UNL     1       1.135   8.988  20.127  0.00  0.00    +0.000 A 
ATOM      6  C   UNL     1       0.584  10.251  20.283  0.00  0.00    +0.000 A 
ATOM      7  C   UNL     1       1.091   7.823  21.092  0.00  0.00    +0.000 C 
ATOM      8  C   UNL     1       1.823   6.751  20.316  0.00  0.00    +0.000 A 
ATOM      9  C   UNL     1       2.079   5.450  20.694  0.00  0.00    +0.000 A 
ATOM     10  C   UNL     1       2.764   4.633  19.792  0.00  0.00    +0.000 A 
ATOM     11  C   UNL     1       3.213   5.101  18.536  0.00  0.00    +0.000 A 
ATOM     12  C   UNL     1       2.913   6.424  18.167  0.00  0.00    +0.000 A 
ATOM     13  C   UNL     1       2.240   7.243  19.063  0.00  0.00    +0.000 A 
ENDROOT
BRANCH   1  17
ATOM     14  N   UNL     1      -0.606  14.481  18.634  0.00  0.00    +0.000 NA
ATOM     15  C   UNL     1      -0.568  13.199  18.491  0.00  0.00    +0.000 C 
ATOM     16  N   UNL     1      -1.240  12.577  17.499  0.00  0.00    +0.000 N 
ATOM     17  N   UNL     1       0.092  12.440  19.398  0.00  0.00    +0.000 N 
ATOM     18  H   UNL     1      -1.134  14.891  17.864  0.00  0.00    +0.000 HD
ATOM     19  H   UNL     1      -1.961  13.124  17.048  0.00  0.00    +0.000 HD
ATOM     20  H   UNL     1      -1.576  11.661  17.768  0.00  0.00    +0.000 HD
ATOM     21  H   UNL     1       0.451  13.002  20.161  0.00  0.00    +0.000 HD
ENDBRANCH   1  17
BRANCH  11  22
ATOM     22  N   UNL     1       3.916   4.274  17.627  0.00  0.00    +0.000 N 
ATOM     23  C   UNL     1       5.068   4.598  16.981  0.00  0.00    +0.000 C 
ATOM     24  N   UNL     1       5.786   5.683  17.078  0.00  0.00    +0.000 NA
ATOM     25  C   UNL     1       6.903   5.490  16.129  0.00  0.00    +0.000 C 
ATOM     26  C   UNL     1       6.895   4.004  15.782  0.00  0.00    +0.000 C 
ATOM     27  N   UNL     1       5.530   3.640  16.124  0.00  0.00    +0.000 N 
ATOM     28  H   UNL     1       3.323   3.631  17.119  0.00  0.00    +0.000 HD
ATOM     29  H   UNL     1       5.412   2.685  16.440  0.00  0.00    +0.000 HD
ENDBRANCH  11  22
TORSDOF 2
ENDMDL
MODEL 7
REMARK VINA RESULT:      -8.2      0.781      1.038
REMARK  Name = 
REMARK  2 active torsions:
REMARK  status: ('A' for Active; 'I' for Inactive)
REMARK    1  A    between atoms: N_4  and  C_5
REMARK    2  A    between atoms: C_15  and  N_16
REMARK                            x       y       z     vdW  Elec       q    Type
REMARK                         _______ _______ _______ _____ _____    ______ ____
ROOT
ATOM      1  C   UNL     1       5.365   4.537  15.209  0.00  0.00    +0.000 A 
ATOM      2  C   UNL     1       5.368   5.886  15.626  0.00  0.00    +0.000 A 
ATOM      3  C   UNL     1       4.635   6.325  16.736  0.00  0.00    +0.000 A 
ATOM      4  C   UNL     1       3.881   5.403  17.432  0.00  0.00    +0.000 A 
ATOM      5  C   UNL     1       3.830   4.063  17.002  0.00  0.00    +0.000 A 
ATOM      6  C   UNL     1       4.568   3.620  15.915  0.00  0.00    +0.000 A 
ATOM      7  C   UNL     1       2.904   3.262  17.892  0.00  0.00    +0.000 C 
ATOM      8  C   UNL     1       2.461   4.305  18.895  0.00  0.00    +0.000 A 
ATOM      9  C   UNL     1       1.614   4.147  19.971  0.00  0.00    +0.000 A 
ATOM     10  C   UNL     1       1.365   5.262  20.773  0.00  0.00    +0.000 A 
ATOM     11  C   UNL     1       1.931   6.530  20.504  0.00  0.00    +0.000 A 
ATOM     12  C   UNL     1       2.813   6.654  19.416  0.00  0.00    +0.000 A 
ATOM     13  C   UNL     1       3.056   5.550  18.611  0.00  0.00    +0.000 A 
ENDROOT
BRANCH   1  17
ATOM     14  N   UNL     1       7.425   4.257  12.265  0.00  0.00    +0.000 NA
ATOM     15  C   UNL     1       7.187   4.627  13.478  0.00  0.00    +0.000 C 
ATOM     16  N   UNL     1       7.963   5.535  14.106  0.00  0.00    +0.000 N 
ATOM     17  N   UNL     1       6.186   4.040  14.176  0.00  0.00    +0.000 N 
ATOM     18  H   UNL     1       8.200   4.804  11.891  0.00  0.00    +0.000 HD
ATOM     19  H   UNL     1       8.864   5.710  13.683  0.00  0.00    +0.000 HD
ATOM     20  H   UNL     1       8.041   5.363  15.101  0.00  0.00    +0.000 HD
ATOM     21  H   UNL     1       5.754   3.292  13.648  0.00  0.00    +0.000 HD
ENDBRANCH   1  17
BRANCH  11  22
ATOM     22  N   UNL     1       1.670   7.662  21.313  0.00  0.00    +0.000 N 
ATOM     23  C   UNL     1       1.200   8.861  20.878  0.00  0.00    +0.000 C 
ATOM     24  N   UNL     1       0.854   9.219  19.673  0.00  0.00    +0.000 NA
ATOM     25  C   UNL     1       0.448  10.636  19.793  0.00  0.00    +0.000 C 
ATOM     26  C   UNL     1       0.271  10.885  21.288  0.00  0.00    +0.000 C 
ATOM     27  N   UNL     1       1.068   9.809  21.853  0.00  0.00    +0.000 N 
ATOM     28  H   UNL     1       2.258   7.720  22.133  0.00  0.00    +0.000 HD
ATOM     29  H   UNL     1       0.744   9.465  22.748  0.00  0.00    +0.000 HD
ENDBRANCH  11  22
TORSDOF 2
ENDMDL
MODEL 8
REMARK VINA RESULT:      -8.2      3.160      4.747
REMARK  Name = 
REMARK  2 active torsions:
REMARK  status: ('A' for Active; 'I' for Inactive)
REMARK    1  A    between atoms: N_4  and  C_5
REMARK    2  A    between atoms: C_15  and  N_16
REMARK                            x       y       z     vdW  Elec       q    Type
REMARK                         _______ _______ _______ _____ _____    ______ ____
ROOT
ATOM      1  C   UNL     1       4.922   5.420  18.107  0.00  0.00    +0.000 A 
ATOM      2  C   UNL     1       4.503   6.236  17.033  0.00  0.00    +0.000 A 
ATOM      3  C   UNL     1       3.479   7.182  17.172  0.00  0.00    +0.000 A 
ATOM      4  C   UNL     1       2.860   7.305  18.399  0.00  0.00    +0.000 A 
ATOM      5  C   UNL     1       3.234   6.467  19.467  0.00  0.00    +0.000 A 
ATOM      6  C   UNL     1       4.260   5.542  19.340  0.00  0.00    +0.000 A 
ATOM      7  C   UNL     1       2.383   6.757  20.685  0.00  0.00    +0.000 C 
ATOM      8  C   UNL     1       1.503   7.882  20.185  0.00  0.00    +0.000 A 
ATOM      9  C   UNL     1       0.528   8.571  20.874  0.00  0.00    +0.000 A 
ATOM     10  C   UNL     1      -0.147   9.592  20.200  0.00  0.00    +0.000 A 
ATOM     11  C   UNL     1       0.123   9.915  18.851  0.00  0.00    +0.000 A 
ATOM     12  C   UNL     1       1.141   9.213  18.183  0.00  0.00    +0.000 A 
ATOM     13  C   UNL     1       1.809   8.193  18.845  0.00  0.00    +0.000 A 
ENDROOT
BRANCH   1  17
ATOM     14  N   UNL     1       8.203   4.041  17.535  0.00  0.00    +0.000 NA
ATOM     15  C   UNL     1       7.356   4.788  18.159  0.00  0.00    +0.000 C 
ATOM     16  N   UNL     1       7.758   5.762  19.003  0.00  0.00    +0.000 N 
ATOM     17  N   UNL     1       6.029   4.549  18.035  0.00  0.00    +0.000 N 
ATOM     18  H   UNL     1       9.149   4.365  17.732  0.00  0.00    +0.000 HD
ATOM     19  H   UNL     1       8.719   5.705  19.311  0.00  0.00    +0.000 HD
ATOM     20  H   UNL     1       7.121   5.896  19.778  0.00  0.00    +0.000 HD
ATOM     21  H   UNL     1       5.851   3.722  17.478  0.00  0.00    +0.000 HD
ENDBRANCH   1  17
BRANCH  11  22
ATOM     22  N   UNL     1      -0.570  10.943  18.167  0.00  0.00    +0.000 N 
ATOM     23  C   UNL     1      -1.573  10.766  17.265  0.00  0.00    +0.000 C 
ATOM     24  N   UNL     1      -2.136   9.657  16.871  0.00  0.00    +0.000 NA
ATOM     25  C   UNL     1      -3.140  10.072  15.868  0.00  0.00    +0.000 C 
ATOM     26  C   UNL     1      -3.298  11.579  16.045  0.00  0.00    +0.000 C 
ATOM     27  N   UNL     1      -2.054  11.920  16.713  0.00  0.00    +0.000 N 
ATOM     28  H   UNL     1      -0.015  11.774  18.010  0.00  0.00    +0.000 HD
ATOM     29  H   UNL     1      -2.113  12.708  17.345  0.00  0.00    +0.000 HD
ENDBRANCH  11  22
TORSDOF 2
ENDMDL
MODEL 9
REMARK VINA RESULT:      -8.1      3.562      5.154
REMARK  Name = 
REMARK  2 active torsions:
REMARK  status: ('A' for Active; 'I' for Inactive)
REMARK    1  A    between atoms: N_4  and  C_5
REMARK    2  A    between atoms: C_15  and  N_16
REMARK                            x       y       z     vdW  Elec       q    Type
REMARK                         _______ _______ _______ _____ _____    ______ ____
ROOT
ATOM      1  C   UNL     1       2.606   4.083  19.609  0.00  0.00    +0.000 A 
ATOM      2  C   UNL     1       1.983   4.617  20.759  0.00  0.00    +0.000 A 
ATOM      3  C   UNL     1       1.619   5.967  20.851  0.00  0.00    +0.000 A 
ATOM      4  C   UNL     1       1.891   6.794  19.781  0.00  0.00    +0.000 A 
ATOM      5  C   UNL     1       2.552   6.288  18.645  0.00  0.00    +0.000 A 
ATOM      6  C   UNL     1       2.898   4.950  18.542  0.00  0.00    +0.000 A 
ATOM      7  C   UNL     1       2.779   7.393  17.636  0.00  0.00    +0.000 C 
ATOM      8  C   UNL     1       2.139   8.577  18.325  0.00  0.00    +0.000 A 
ATOM      9  C   UNL     1       2.025   9.872  17.864  0.00  0.00    +0.000 A 
ATOM     10  C   UNL     1       1.370  10.798  18.680  0.00  0.00    +0.000 A 
ATOM     11  C   UNL     1       0.850  10.455  19.949  0.00  0.00    +0.000 A 
ATOM     12  C   UNL     1       0.958   9.121  20.380  0.00  0.00    +0.000 A 
ATOM     13  C   UNL     1       1.615   8.200  19.577  0.00  0.00    +0.000 A 
ENDROOT
BRANCH   1  17
ATOM     14  N   UNL     1       3.988   0.943  18.503  0.00  0.00    +0.000 NA
ATOM     15  C   UNL     1       4.023   2.056  19.155  0.00  0.00    +0.000 C 
ATOM     16  N   UNL     1       5.180   2.555  19.639  0.00  0.00    +0.000 N 
ATOM     17  N   UNL     1       2.871   2.709  19.436  0.00  0.00    +0.000 N 
ATOM     18  H   UNL     1       4.937   0.596  18.373  0.00  0.00    +0.000 HD
ATOM     19  H   UNL     1       5.952   1.904  19.690  0.00  0.00    +0.000 HD
ATOM     20  H   UNL     1       5.056   3.060  20.507  0.00  0.00    +0.000 HD
ATOM     21  H   UNL     1       2.062   2.181  19.132  0.00  0.00    +0.000 HD
ENDBRANCH   1  17
BRANCH  11  22
ATOM     22  N   UNL     1       0.196  11.398  20.778  0.00  0.00    +0.000 N 
ATOM     23  C   UNL     1       0.706  12.591  21.184  0.00  0.00    +0.000 C 
ATOM     24  N   UNL     1       1.848  13.142  20.881  0.00  0.00    +0.000 NA
ATOM     25  C   UNL     1       1.871  14.418  21.629  0.00  0.00    +0.000 C 
ATOM     26  C   UNL     1       0.433  14.652  22.082  0.00  0.00    +0.000 C 
ATOM     27  N   UNL     1      -0.110  13.306  22.016  0.00  0.00    +0.000 N 
ATOM     28  H   UNL     1      -0.456  10.983  21.430  0.00  0.00    +0.000 HD
ATOM     29  H   UNL     1      -1.098  13.257  21.798  0.00  0.00    +0.000 HD
ENDBRANCH  11  22
TORSDOF 2
ENDMDL
