MODEL 1
REMARK VINA RESULT:      -7.9      0.000      0.000
REMARK  Name = 
REMARK  4 active torsions:
REMARK  status: ('A' for Active; 'I' for Inactive)
REMARK    1  A    between atoms: O_1  and  C_2
REMARK    2  A    between atoms: C_2  and  C_3
REMARK    3  A    between atoms: N_5  and  C_6
REMARK    4  A    between atoms: C_6  and  C_7
REMARK                            x       y       z     vdW  Elec       q    Type
REMARK                         _______ _______ _______ _____ _____    ______ ____
ROOT
ATOM      1  C   UNL     1       5.225   4.545  16.074  0.00  0.00    +0.000 C 
ATOM      2  C   UNL     1       4.632   3.492  17.029  0.00  0.00    +0.000 C 
ATOM      3  C   UNL     1       3.727   4.331  17.852  0.00  0.00    +0.000 A 
ATOM      4  C   UNL     1       3.840   5.651  17.452  0.00  0.00    +0.000 A 
ATOM      5  C   UNL     1       3.135   6.665  18.064  0.00  0.00    +0.000 A 
ATOM      6  C   UNL     1       2.284   6.329  19.119  0.00  0.00    +0.000 A 
ATOM      7  C   UNL     1       2.141   4.992  19.544  0.00  0.00    +0.000 A 
ATOM      8  C   UNL     1       1.286   4.657  20.608  0.00  0.00    +0.000 A 
ATOM      9  C   UNL     1       1.149   3.333  21.028  0.00  0.00    +0.000 A 
ATOM     10  C   UNL     1       1.863   2.323  20.389  0.00  0.00    +0.000 A 
ATOM     11  C   UNL     1       2.720   2.634  19.332  0.00  0.00    +0.000 A 
ATOM     12  C   UNL     1       2.875   3.964  18.898  0.00  0.00    +0.000 A 
ATOM     13  O   UNL     1       4.708   5.861  16.419  0.00  0.00    +0.000 OA
ENDROOT
BRANCH   1  14
ATOM     14  C   UNL     1       6.751   4.630  16.124  0.00  0.00    +0.000 C 
BRANCH  14  17
ATOM     15  C   UNL     1       7.875   7.566  17.820  0.00  0.00    +0.000 A 
ATOM     16  C   UNL     1       7.399   6.997  16.657  0.00  0.00    +0.000 A 
ATOM     17  N   UNL     1       7.256   5.682  16.968  0.00  0.00    +0.000 N 
ATOM     18  N   UNL     1       7.657   5.428  18.224  0.00  0.00    +0.000 NA
ATOM     19  N   UNL     1       8.034   6.581  18.762  0.00  0.00    +0.000 NA
BRANCH  15  20
ATOM     20  C   UNL     1       8.193   8.981  18.119  0.00  0.00    +0.000 C 
BRANCH  20  21
ATOM     21  O   UNL     1       9.056   9.103  19.251  0.00  0.00    +0.000 OA
ATOM     22  H   UNL     1       8.507   9.435  19.981  0.00  0.00    +0.000 HD
ENDBRANCH  20  21
ENDBRANCH  15  20
ENDBRANCH  14  17
ENDBRANCH   1  14
TORSDOF 4
ENDMDL
MODEL 2
REMARK VINA RESULT:      -7.7      2.726      4.405
REMARK  Name = 
REMARK  4 active torsions:
REMARK  status: ('A' for Active; 'I' for Inactive)
REMARK    1  A    between atoms: O_1  and  C_2
REMARK    2  A    between atoms: C_2  and  C_3
REMARK    3  A    between atoms: N_5  and  C_6
REMARK    4  A    between atoms: C_6  and  C_7
REMARK                            x       y       z     vdW  Elec       q    Type
REMARK                         _______ _______ _______ _____ _____    ______ ____
ROOT
ATOM      1  C   UNL     1       3.490   5.559  18.857  0.00  0.00    +0.000 C 
ATOM      2  C   UNL     1       2.755   6.062  20.114  0.00  0.00    +0.000 C 
ATOM      3  C   UNL     1       2.185   7.339  19.619  0.00  0.00    +0.000 A 
ATOM      4  C   UNL     1       2.584   7.539  18.309  0.00  0.00    +0.000 A 
ATOM      5  C   UNL     1       2.228   8.665  17.599  0.00  0.00    +0.000 A 
ATOM      6  C   UNL     1       1.438   9.622  18.238  0.00  0.00    +0.000 A 
ATOM      7  C   UNL     1       1.008   9.443  19.569  0.00  0.00    +0.000 A 
ATOM      8  C   UNL     1       0.215  10.409  20.211  0.00  0.00    +0.000 A 
ATOM      9  C   UNL     1      -0.206  10.230  21.530  0.00  0.00    +0.000 A 
ATOM     10  C   UNL     1       0.158   9.081  22.226  0.00  0.00    +0.000 A 
ATOM     11  C   UNL     1       0.947   8.110  21.608  0.00  0.00    +0.000 A 
ATOM     12  C   UNL     1       1.385   8.275  20.281  0.00  0.00    +0.000 A 
ATOM     13  O   UNL     1       3.361   6.542  17.792  0.00  0.00    +0.000 OA
ENDROOT
BRANCH   1  14
ATOM     14  C   UNL     1       4.984   5.316  19.073  0.00  0.00    +0.000 C 
BRANCH  14  17
ATOM     15  C   UNL     1       6.664   5.146  15.925  0.00  0.00    +0.000 A 
ATOM     16  C   UNL     1       5.760   4.582  16.800  0.00  0.00    +0.000 A 
ATOM     17  N   UNL     1       5.776   5.413  17.874  0.00  0.00    +0.000 N 
ATOM     18  N   UNL     1       6.663   6.409  17.711  0.00  0.00    +0.000 NA
ATOM     19  N   UNL     1       7.211   6.260  16.512  0.00  0.00    +0.000 NA
BRANCH  15  20
ATOM     20  C   UNL     1       7.057   4.717  14.563  0.00  0.00    +0.000 C 
BRANCH  20  21
ATOM     21  O   UNL     1       8.042   5.584  13.997  0.00  0.00    +0.000 OA
ATOM     22  H   UNL     1       8.193   5.272  13.090  0.00  0.00    +0.000 HD
ENDBRANCH  20  21
ENDBRANCH  15  20
ENDBRANCH  14  17
ENDBRANCH   1  14
TORSDOF 4
ENDMDL
MODEL 3
REMARK VINA RESULT:      -7.7      1.550      1.680
REMARK  Name = 
REMARK  4 active torsions:
REMARK  status: ('A' for Active; 'I' for Inactive)
REMARK    1  A    between atoms: O_1  and  C_2
REMARK    2  A    between atoms: C_2  and  C_3
REMARK    3  A    between atoms: N_5  and  C_6
REMARK    4  A    between atoms: C_6  and  C_7
REMARK                            x       y       z     vdW  Elec       q    Type
REMARK                         _______ _______ _______ _____ _____    ______ ____
ROOT
ATOM      1  C   UNL     1       5.139   5.285  15.706  0.00  0.00    +0.000 C 
ATOM      2  C   UNL     1       4.524   4.025  16.345  0.00  0.00    +0.000 C 
ATOM      3  C   UNL     1       3.639   4.629  17.370  0.00  0.00    +0.000 A 
ATOM      4  C   UNL     1       3.778   6.005  17.341  0.00  0.00    +0.000 A 
ATOM      5  C   UNL     1       3.096   6.830  18.209  0.00  0.00    +0.000 A 
ATOM      6  C   UNL     1       2.240   6.239  19.140  0.00  0.00    +0.000 A 
ATOM      7  C   UNL     1       2.069   4.839  19.189  0.00  0.00    +0.000 A 
ATOM      8  C   UNL     1       1.209   4.247  20.129  0.00  0.00    +0.000 A 
ATOM      9  C   UNL     1       1.045   2.862  20.177  0.00  0.00    +0.000 A 
ATOM     10  C   UNL     1       1.737   2.047  19.284  0.00  0.00    +0.000 A 
ATOM     11  C   UNL     1       2.598   2.615  18.344  0.00  0.00    +0.000 A 
ATOM     12  C   UNL     1       2.780   4.010  18.284  0.00  0.00    +0.000 A 
ATOM     13  O   UNL     1       4.649   6.469  16.397  0.00  0.00    +0.000 OA
ENDROOT
BRANCH   1  14
ATOM     14  C   UNL     1       6.666   5.323  15.766  0.00  0.00    +0.000 C 
BRANCH  14  17
ATOM     15  C   UNL     1       7.887   5.884  19.076  0.00  0.00    +0.000 A 
ATOM     16  C   UNL     1       7.254   5.036  18.191  0.00  0.00    +0.000 A 
ATOM     17  N   UNL     1       7.196   5.749  17.036  0.00  0.00    +0.000 N 
ATOM     18  N   UNL     1       7.713   6.979  17.191  0.00  0.00    +0.000 NA
ATOM     19  N   UNL     1       8.148   7.072  18.441  0.00  0.00    +0.000 NA
BRANCH  15  20
ATOM     20  C   UNL     1       8.271   5.660  20.488  0.00  0.00    +0.000 C 
BRANCH  20  21
ATOM     21  O   UNL     1       9.358   4.739  20.603  0.00  0.00    +0.000 OA
ATOM     22  H   UNL     1       9.833   4.768  19.756  0.00  0.00    +0.000 HD
ENDBRANCH  20  21
ENDBRANCH  15  20
ENDBRANCH  14  17
ENDBRANCH   1  14
TORSDOF 4
ENDMDL
MODEL 4
REMARK VINA RESULT:      -7.6      2.488      3.945
REMARK  Name = 
REMARK  4 active torsions:
REMARK  status: ('A' for Active; 'I' for Inactive)
REMARK    1  A    between atoms: O_1  and  C_2
REMARK    2  A    between atoms: C_2  and  C_3
REMARK    3  A    between atoms: N_5  and  C_6
REMARK    4  A    between atoms: C_6  and  C_7
REMARK                            x       y       z     vdW  Elec       q    Type
REMARK                         _______ _______ _______ _____ _____    ______ ____
ROOT
ATOM      1  C   UNL     1       4.792   5.213  16.011  0.00  0.00    +0.000 C 
ATOM      2  C   UNL     1       4.192   3.989  16.729  0.00  0.00    +0.000 C 
ATOM      3  C   UNL     1       3.487   4.641  17.860  0.00  0.00    +0.000 A 
ATOM      4  C   UNL     1       3.705   6.006  17.808  0.00  0.00    +0.000 A 
ATOM      5  C   UNL     1       3.194   6.866  18.756  0.00  0.00    +0.000 A 
ATOM      6  C   UNL     1       2.434   6.323  19.793  0.00  0.00    +0.000 A 
ATOM      7  C   UNL     1       2.186   4.937  19.869  0.00  0.00    +0.000 A 
ATOM      8  C   UNL     1       1.422   4.393  20.915  0.00  0.00    +0.000 A 
ATOM      9  C   UNL     1       1.182   3.020  20.989  0.00  0.00    +0.000 A 
ATOM     10  C   UNL     1       1.700   2.170  20.015  0.00  0.00    +0.000 A 
ATOM     11  C   UNL     1       2.463   2.689  18.969  0.00  0.00    +0.000 A 
ATOM     12  C   UNL     1       2.721   4.070  18.881  0.00  0.00    +0.000 A 
ATOM     13  O   UNL     1       4.471   6.421  16.756  0.00  0.00    +0.000 OA
ENDROOT
BRANCH   1  14
ATOM     14  C   UNL     1       6.314   5.158  15.869  0.00  0.00    +0.000 C 
BRANCH  14  17
ATOM     15  C   UNL     1       7.050   3.970  12.581  0.00  0.00    +0.000 A 
ATOM     16  C   UNL     1       6.308   3.832  13.736  0.00  0.00    +0.000 A 
ATOM     17  N   UNL     1       6.771   4.820  14.545  0.00  0.00    +0.000 N 
ATOM     18  N   UNL     1       7.768   5.506  13.963  0.00  0.00    +0.000 NA
ATOM     19  N   UNL     1       7.944   4.997  12.750  0.00  0.00    +0.000 NA
BRANCH  15  20
ATOM     20  C   UNL     1       6.980   3.205  11.315  0.00  0.00    +0.000 C 
BRANCH  20  21
ATOM     21  O   UNL     1       7.056   1.796  11.543  0.00  0.00    +0.000 OA
ATOM     22  H   UNL     1       7.967   1.611  11.824  0.00  0.00    +0.000 HD
ENDBRANCH  20  21
ENDBRANCH  15  20
ENDBRANCH  14  17
ENDBRANCH   1  14
TORSDOF 4
ENDMDL
MODEL 5
REMARK VINA RESULT:      -7.6      1.502      1.634
REMARK  Name = 
REMARK  4 active torsions:
REMARK  status: ('A' for Active; 'I' for Inactive)
REMARK    1  A    between atoms: O_1  and  C_2
REMARK    2  A    between atoms: C_2  and  C_3
REMARK    3  A    between atoms: N_5  and  C_6
REMARK    4  A    between atoms: C_6  and  C_7
REMARK                            x       y       z     vdW  Elec       q    Type
REMARK                         _______ _______ _______ _____ _____    ______ ____
ROOT
ATOM      1  C   UNL     1       4.987   5.568  15.577  0.00  0.00    +0.000 C 
ATOM      2  C   UNL     1       4.406   4.363  16.341  0.00  0.00    +0.000 C 
ATOM      3  C   UNL     1       3.629   5.048  17.403  0.00  0.00    +0.000 A 
ATOM      4  C   UNL     1       3.796   6.415  17.282  0.00  0.00    +0.000 A 
ATOM      5  C   UNL     1       3.212   7.306  18.157  0.00  0.00    +0.000 A 
ATOM      6  C   UNL     1       2.430   6.791  19.192  0.00  0.00    +0.000 A 
ATOM      7  C   UNL     1       2.234   5.402  19.338  0.00  0.00    +0.000 A 
ATOM      8  C   UNL     1       1.449   4.887  20.383  0.00  0.00    +0.000 A 
ATOM      9  C   UNL     1       1.260   3.512  20.526  0.00  0.00    +0.000 A 
ATOM     10  C   UNL     1       1.851   2.630  19.625  0.00  0.00    +0.000 A 
ATOM     11  C   UNL     1       2.636   3.121  18.582  0.00  0.00    +0.000 A 
ATOM     12  C   UNL     1       2.843   4.504  18.424  0.00  0.00    +0.000 A 
ATOM     13  O   UNL     1       4.588   6.802  16.239  0.00  0.00    +0.000 OA
ENDROOT
BRANCH   1  14
ATOM     14  C   UNL     1       6.514   5.569  15.500  0.00  0.00    +0.000 C 
BRANCH  14  17
ATOM     15  C   UNL     1       7.909   5.665  18.788  0.00  0.00    +0.000 A 
ATOM     16  C   UNL     1       7.190   6.309  17.803  0.00  0.00    +0.000 A 
ATOM     17  N   UNL     1       7.170   5.422  16.775  0.00  0.00    +0.000 N 
ATOM     18  N   UNL     1       7.867   4.313  17.069  0.00  0.00    +0.000 NA
ATOM     19  N   UNL     1       8.321   4.447  18.309  0.00  0.00    +0.000 NA
BRANCH  15  20
ATOM     20  C   UNL     1       8.240   6.109  20.161  0.00  0.00    +0.000 C 
BRANCH  20  21
ATOM     21  O   UNL     1       8.559   5.007  21.013  0.00  0.00    +0.000 OA
ATOM     22  H   UNL     1       7.929   4.300  20.794  0.00  0.00    +0.000 HD
ENDBRANCH  20  21
ENDBRANCH  15  20
ENDBRANCH  14  17
ENDBRANCH   1  14
TORSDOF 4
ENDMDL
MODEL 6
REMARK VINA RESULT:      -7.3      3.466      5.156
REMARK  Name = 
REMARK  4 active torsions:
REMARK  status: ('A' for Active; 'I' for Inactive)
REMARK    1  A    between atoms: O_1  and  C_2
REMARK    2  A    between atoms: C_2  and  C_3
REMARK    3  A    between atoms: N_5  and  C_6
REMARK    4  A    between atoms: C_6  and  C_7
REMARK                            x       y       z     vdW  Elec       q    Type
REMARK                         _______ _______ _______ _____ _____    ______ ____
ROOT
ATOM      1  C   UNL     1       2.505   6.032  19.306  0.00  0.00    +0.000 C 
ATOM      2  C   UNL     1       1.854   6.610  20.577  0.00  0.00    +0.000 C 
ATOM      3  C   UNL     1       1.515   7.981  20.125  0.00  0.00    +0.000 A 
ATOM      4  C   UNL     1       1.955   8.155  18.825  0.00  0.00    +0.000 A 
ATOM      5  C   UNL     1       1.803   9.349  18.153  0.00  0.00    +0.000 A 
ATOM      6  C   UNL     1       1.181  10.404  18.822  0.00  0.00    +0.000 A 
ATOM      7  C   UNL     1       0.713  10.255  20.145  0.00  0.00    +0.000 A 
ATOM      8  C   UNL     1       0.090  11.320  20.817  0.00  0.00    +0.000 A 
ATOM      9  C   UNL     1      -0.369  11.170  22.126  0.00  0.00    +0.000 A 
ATOM     10  C   UNL     1      -0.214   9.953  22.784  0.00  0.00    +0.000 A 
ATOM     11  C   UNL     1       0.405   8.883  22.135  0.00  0.00    +0.000 A 
ATOM     12  C   UNL     1       0.879   9.017  20.816  0.00  0.00    +0.000 A 
ATOM     13  O   UNL     1       2.557   7.059  18.276  0.00  0.00    +0.000 OA
ENDROOT
BRANCH   1  14
ATOM     14  C   UNL     1       3.934   5.531  19.520  0.00  0.00    +0.000 C 
BRANCH  14  17
ATOM     15  C   UNL     1       5.870   4.617  16.660  0.00  0.00    +0.000 A 
ATOM     16  C   UNL     1       5.677   5.488  17.711  0.00  0.00    +0.000 A 
ATOM     17  N   UNL     1       4.563   5.016  18.330  0.00  0.00    +0.000 N 
ATOM     18  N   UNL     1       4.059   3.949  17.689  0.00  0.00    +0.000 NA
ATOM     19  N   UNL     1       4.859   3.688  16.663  0.00  0.00    +0.000 NA
BRANCH  15  20
ATOM     20  C   UNL     1       6.945   4.586  15.642  0.00  0.00    +0.000 C 
BRANCH  20  21
ATOM     21  O   UNL     1       7.601   5.851  15.526  0.00  0.00    +0.000 OA
ATOM     22  H   UNL     1       6.908   6.528  15.603  0.00  0.00    +0.000 HD
ENDBRANCH  20  21
ENDBRANCH  15  20
ENDBRANCH  14  17
ENDBRANCH   1  14
TORSDOF 4
ENDMDL
MODEL 7
REMARK VINA RESULT:      -7.2      3.751      5.651
REMARK  Name = 
REMARK  4 active torsions:
REMARK  status: ('A' for Active; 'I' for Inactive)
REMARK    1  A    between atoms: O_1  and  C_2
REMARK    2  A    between atoms: C_2  and  C_3
REMARK    3  A    between atoms: N_5  and  C_6
REMARK    4  A    between atoms: C_6  and  C_7
REMARK                            x       y       z     vdW  Elec       q    Type
REMARK                         _______ _______ _______ _____ _____    ______ ____
ROOT
ATOM      1  C   UNL     1       2.590   7.292  17.993  0.00  0.00    +0.000 C 
ATOM      2  C   UNL     1       2.029   7.304  19.428  0.00  0.00    +0.000 C 
ATOM      3  C   UNL     1       1.508   8.689  19.518  0.00  0.00    +0.000 A 
ATOM      4  C   UNL     1       1.782   9.358  18.339  0.00  0.00    +0.000 A 
ATOM      5  C   UNL     1       1.438  10.680  18.149  0.00  0.00    +0.000 A 
ATOM      6  C   UNL     1       0.793  11.346  19.191  0.00  0.00    +0.000 A 
ATOM      7  C   UNL     1       0.491  10.690  20.403  0.00  0.00    +0.000 A 
ATOM      8  C   UNL     1      -0.157  11.364  21.451  0.00  0.00    +0.000 A 
ATOM      9  C   UNL     1      -0.450  10.712  22.649  0.00  0.00    +0.000 A 
ATOM     10  C   UNL     1      -0.103   9.375  22.817  0.00  0.00    +0.000 A 
ATOM     11  C   UNL     1       0.543   8.687  21.789  0.00  0.00    +0.000 A 
ATOM     12  C   UNL     1       0.852   9.329  20.576  0.00  0.00    +0.000 A 
ATOM     13  O   UNL     1       2.425   8.609  17.396  0.00  0.00    +0.000 OA
ENDROOT
BRANCH   1  14
ATOM     14  C   UNL     1       4.076   6.941  17.916  0.00  0.00    +0.000 C 
BRANCH  14  17
ATOM     15  C   UNL     1       4.421   3.568  19.041  0.00  0.00    +0.000 A 
ATOM     16  C   UNL     1       3.619   4.535  18.472  0.00  0.00    +0.000 A 
ATOM     17  N   UNL     1       4.404   5.643  18.447  0.00  0.00    +0.000 N 
ATOM     18  N   UNL     1       5.604   5.408  19.003  0.00  0.00    +0.000 NA
ATOM     19  N   UNL     1       5.629   4.132  19.366  0.00  0.00    +0.000 NA
BRANCH  15  20
ATOM     20  C   UNL     1       4.138   2.138  19.302  0.00  0.00    +0.000 C 
BRANCH  20  21
ATOM     21  O   UNL     1       5.180   1.522  20.061  0.00  0.00    +0.000 OA
ATOM     22  H   UNL     1       4.823   1.379  20.953  0.00  0.00    +0.000 HD
ENDBRANCH  20  21
ENDBRANCH  15  20
ENDBRANCH  14  17
ENDBRANCH   1  14
TORSDOF 4
ENDMDL
MODEL 8
REMARK VINA RESULT:      -7.2      2.825      4.857
REMARK  Name = 
REMARK  4 active torsions:
REMARK  status: ('A' for Active; 'I' for Inactive)
REMARK    1  A    between atoms: O_1  and  C_2
REMARK    2  A    between atoms: C_2  and  C_3
REMARK    3  A    between atoms: N_5  and  C_6
REMARK    4  A    between atoms: C_6  and  C_7
REMARK                            x       y       z     vdW  Elec       q    Type
REMARK                         _______ _______ _______ _____ _____    ______ ____
ROOT
ATOM      1  C   UNL     1       4.855   5.504  17.539  0.00  0.00    +0.000 C 
ATOM      2  C   UNL     1       4.156   6.839  17.218  0.00  0.00    +0.000 C 
ATOM      3  C   UNL     1       3.259   6.980  18.390  0.00  0.00    +0.000 A 
ATOM      4  C   UNL     1       3.398   5.872  19.207  0.00  0.00    +0.000 A 
ATOM      5  C   UNL     1       2.660   5.714  20.361  0.00  0.00    +0.000 A 
ATOM      6  C   UNL     1       1.750   6.716  20.699  0.00  0.00    +0.000 A 
ATOM      7  C   UNL     1       1.591   7.862  19.892  0.00  0.00    +0.000 A 
ATOM      8  C   UNL     1       0.671   8.868  20.234  0.00  0.00    +0.000 A 
ATOM      9  C   UNL     1       0.515   9.999  19.431  0.00  0.00    +0.000 A 
ATOM     10  C   UNL     1       1.276  10.142  18.274  0.00  0.00    +0.000 A 
ATOM     11  C   UNL     1       2.194   9.154  17.915  0.00  0.00    +0.000 A 
ATOM     12  C   UNL     1       2.362   8.004  18.710  0.00  0.00    +0.000 A 
ATOM     13  O   UNL     1       4.310   4.954  18.771  0.00  0.00    +0.000 OA
ENDROOT
BRANCH   1  14
ATOM     14  C   UNL     1       4.682   4.443  16.452  0.00  0.00    +0.000 C 
BRANCH  14  17
ATOM     15  C   UNL     1       6.720   4.362  13.518  0.00  0.00    +0.000 A 
ATOM     16  C   UNL     1       5.617   3.877  14.190  0.00  0.00    +0.000 A 
ATOM     17  N   UNL     1       5.636   4.539  15.376  0.00  0.00    +0.000 N 
ATOM     18  N   UNL     1       6.701   5.351  15.469  0.00  0.00    +0.000 NA
ATOM     19  N   UNL     1       7.373   5.257  14.328  0.00  0.00    +0.000 NA
BRANCH  15  20
ATOM     20  C   UNL     1       7.211   4.048  12.157  0.00  0.00    +0.000 C 
BRANCH  20  21
ATOM     21  O   UNL     1       6.923   2.697  11.788  0.00  0.00    +0.000 OA
ATOM     22  H   UNL     1       6.298   2.359  12.450  0.00  0.00    +0.000 HD
ENDBRANCH  20  21
ENDBRANCH  15  20
ENDBRANCH  14  17
ENDBRANCH   1  14
TORSDOF 4
ENDMDL
MODEL 9
REMARK VINA RESULT:      -7.2      2.554      4.471
REMARK  Name = 
REMARK  4 active torsions:
REMARK  status: ('A' for Active; 'I' for Inactive)
REMARK    1  A    between atoms: O_1  and  C_2
REMARK    2  A    between atoms: C_2  and  C_3
REMARK    3  A    between atoms: N_5  and  C_6
REMARK    4  A    between atoms: C_6  and  C_7
REMARK                            x       y       z     vdW  Elec       q    Type
REMARK                         _______ _______ _______ _____ _____    ______ ____
ROOT
ATOM      1  C   UNL     1       2.795   4.826  19.304  0.00  0.00    +0.000 C 
ATOM      2  C   UNL     1       2.079   5.647  20.393  0.00  0.00    +0.000 C 
ATOM      3  C   UNL     1       1.969   6.968  19.729  0.00  0.00    +0.000 A 
ATOM      4  C   UNL     1       2.576   6.907  18.487  0.00  0.00    +0.000 A 
ATOM      5  C   UNL     1       2.655   8.002  17.654  0.00  0.00    +0.000 A 
ATOM      6  C   UNL     1       2.097   9.203  18.095  0.00  0.00    +0.000 A 
ATOM      7  C   UNL     1       1.463   9.296  19.352  0.00  0.00    +0.000 A 
ATOM      8  C   UNL     1       0.905  10.507  19.795  0.00  0.00    +0.000 A 
ATOM      9  C   UNL     1       0.283  10.596  21.041  0.00  0.00    +0.000 A 
ATOM     10  C   UNL     1       0.206   9.475  21.863  0.00  0.00    +0.000 A 
ATOM     11  C   UNL     1       0.756   8.263  21.443  0.00  0.00    +0.000 A 
ATOM     12  C   UNL     1       1.393   8.155  20.192  0.00  0.00    +0.000 A 
ATOM     13  O   UNL     1       3.094   5.684  18.167  0.00  0.00    +0.000 OA
ENDROOT
BRANCH   1  14
ATOM     14  C   UNL     1       4.114   4.209  19.767  0.00  0.00    +0.000 C 
BRANCH  14  17
ATOM     15  C   UNL     1       6.439   4.445  17.064  0.00  0.00    +0.000 A 
ATOM     16  C   UNL     1       5.174   4.100  17.492  0.00  0.00    +0.000 A 
ATOM     17  N   UNL     1       5.196   4.355  18.826  0.00  0.00    +0.000 N 
ATOM     18  N   UNL     1       6.404   4.786  19.225  0.00  0.00    +0.000 NA
ATOM     19  N   UNL     1       7.176   4.853  18.148  0.00  0.00    +0.000 NA
BRANCH  15  20
ATOM     20  C   UNL     1       7.015   4.423  15.700  0.00  0.00    +0.000 C 
BRANCH  20  21
ATOM     21  O   UNL     1       7.512   5.706  15.314  0.00  0.00    +0.000 OA
ATOM     22  H   UNL     1       8.248   5.908  15.914  0.00  0.00    +0.000 HD
ENDBRANCH  20  21
ENDBRANCH  15  20
ENDBRANCH  14  17
ENDBRANCH   1  14
TORSDOF 4
ENDMDL
