MODEL 1
REMARK VINA RESULT:      -8.4      0.000      0.000
REMARK  Name = 
REMARK  7 active torsions:
REMARK  status: ('A' for Active; 'I' for Inactive)
REMARK    1  A    between atoms: C_1  and  C_2
REMARK    2  A    between atoms: C_4  and  C_5
REMARK    3  A    between atoms: N_6  and  C_7
REMARK    4  A    between atoms: C_10  and  S_11
REMARK    5  A    between atoms: S_11  and  N_14
REMARK    6  A    between atoms: N_18  and  C_19
REMARK    7  A    between atoms: C_19  and  C_20
REMARK                            x       y       z     vdW  Elec       q    Type
REMARK                         _______ _______ _______ _____ _____    ______ ____
ROOT
ATOM      1  S   UNL     1       0.549  10.825  20.014  0.00  0.00    +0.000 S 
ATOM      2  O   UNL     1       0.197  10.598  21.398  0.00  0.00    +0.000 OA
ATOM      3  O   UNL     1       1.444  11.907  19.665  0.00  0.00    +0.000 OA
ENDROOT
BRANCH   1   4
ATOM      4  N   UNL     1      -0.876  10.932  19.142  0.00  0.00    +0.000 N 
ATOM      5  C   UNL     1      -1.118   9.843  18.178  0.00  0.00    +0.000 C 
ATOM      6  C   UNL     1      -2.440  10.327  17.605  0.00  0.00    +0.000 C 
ATOM      7  O   UNL     1      -3.042   9.751  16.707  0.00  0.00    +0.000 OA
ATOM      8  N   UNL     1      -2.846  11.472  18.252  0.00  0.00    +0.000 N 
ATOM      9  C   UNL     1      -1.913  11.891  19.162  0.00  0.00    +0.000 C 
ATOM     10  S   UNL     1      -2.012  13.267  20.093  0.00  0.00    +0.000 S 
BRANCH   8  11
ATOM     11  C   UNL     1      -4.158  12.055  17.989  0.00  0.00    +0.000 C 
BRANCH  11  12
ATOM     12  C   UNL     1      -5.254  11.541  18.894  0.00  0.00    +0.000 A 
ATOM     13  C   UNL     1      -5.618  12.241  20.054  0.00  0.00    +0.000 A 
ATOM     14  C   UNL     1      -6.673  11.794  20.851  0.00  0.00    +0.000 A 
ATOM     15  C   UNL     1      -7.381  10.648  20.496  0.00  0.00    +0.000 A 
ATOM     16  C   UNL     1      -7.031   9.943  19.347  0.00  0.00    +0.000 A 
ATOM     17  C   UNL     1      -5.974  10.386  18.551  0.00  0.00    +0.000 A 
ENDBRANCH  11  12
ENDBRANCH   8  11
ENDBRANCH   1   4
BRANCH   1  21
ATOM     18  C   UNL     1       2.747   7.097  18.524  0.00  0.00    +0.000 A 
ATOM     19  C   UNL     1       2.526   8.187  17.672  0.00  0.00    +0.000 A 
ATOM     20  C   UNL     1       1.806   9.298  18.113  0.00  0.00    +0.000 A 
ATOM     21  C   UNL     1       1.283   9.318  19.408  0.00  0.00    +0.000 A 
ATOM     22  C   UNL     1       1.455   8.216  20.254  0.00  0.00    +0.000 A 
ATOM     23  C   UNL     1       2.164   7.094  19.801  0.00  0.00    +0.000 A 
BRANCH  18  29
ATOM     24  C   UNL     1       6.855   4.758  17.525  0.00  0.00    +0.000 C 
ATOM     25  C   UNL     1       5.398   4.969  17.694  0.00  0.00    +0.000 A 
ATOM     26  C   UNL     1       4.377   4.007  17.598  0.00  0.00    +0.000 A 
ATOM     27  C   UNL     1       3.203   4.693  17.822  0.00  0.00    +0.000 A 
ATOM     28  C   UNL     1       1.810   4.198  17.670  0.00  0.00    +0.000 C 
ATOM     29  N   UNL     1       3.568   6.004  18.117  0.00  0.00    +0.000 N 
ATOM     30  N   UNL     1       4.905   6.189  17.933  0.00  0.00    +0.000 NA
ENDBRANCH  18  29
ENDBRANCH   1  21
TORSDOF 5
ENDMDL
MODEL 2
REMARK VINA RESULT:      -8.2      3.795     10.202
REMARK  Name = 
REMARK  7 active torsions:
REMARK  status: ('A' for Active; 'I' for Inactive)
REMARK    1  A    between atoms: C_1  and  C_2
REMARK    2  A    between atoms: C_4  and  C_5
REMARK    3  A    between atoms: N_6  and  C_7
REMARK    4  A    between atoms: C_10  and  S_11
REMARK    5  A    between atoms: S_11  and  N_14
REMARK    6  A    between atoms: N_18  and  C_19
REMARK    7  A    between atoms: C_19  and  C_20
REMARK                            x       y       z     vdW  Elec       q    Type
REMARK                         _______ _______ _______ _____ _____    ______ ____
ROOT
ATOM      1  S   UNL     1       2.657   5.603  18.980  0.00  0.00    +0.000 S 
ATOM      2  O   UNL     1       2.987   5.225  20.337  0.00  0.00    +0.000 OA
ATOM      3  O   UNL     1       1.624   4.889  18.264  0.00  0.00    +0.000 OA
ENDROOT
BRANCH   1   4
ATOM      4  N   UNL     1       4.081   5.622  18.102  0.00  0.00    +0.000 N 
ATOM      5  C   UNL     1       4.714   6.944  17.939  0.00  0.00    +0.000 C 
ATOM      6  C   UNL     1       5.905   6.531  17.090  0.00  0.00    +0.000 C 
ATOM      7  O   UNL     1       6.733   7.320  16.653  0.00  0.00    +0.000 OA
ATOM      8  N   UNL     1       5.910   5.166  16.913  0.00  0.00    +0.000 N 
ATOM      9  C   UNL     1       4.808   4.583  17.478  0.00  0.00    +0.000 C 
ATOM     10  S   UNL     1       4.426   2.964  17.419  0.00  0.00    +0.000 S 
BRANCH   8  11
ATOM     11  C   UNL     1       7.032   4.500  16.258  0.00  0.00    +0.000 C 
BRANCH  11  12
ATOM     12  C   UNL     1       6.937   4.470  14.750  0.00  0.00    +0.000 A 
ATOM     13  C   UNL     1       7.784   5.260  13.959  0.00  0.00    +0.000 A 
ATOM     14  C   UNL     1       7.733   5.180  12.566  0.00  0.00    +0.000 A 
ATOM     15  C   UNL     1       6.841   4.307  11.947  0.00  0.00    +0.000 A 
ATOM     16  C   UNL     1       5.994   3.516  12.720  0.00  0.00    +0.000 A 
ATOM     17  C   UNL     1       6.041   3.597  14.113  0.00  0.00    +0.000 A 
ENDBRANCH  11  12
ENDBRANCH   8  11
ENDBRANCH   1   4
BRANCH   1  21
ATOM     18  C   UNL     1       1.118   9.914  18.967  0.00  0.00    +0.000 A 
ATOM     19  C   UNL     1       1.619   9.328  17.797  0.00  0.00    +0.000 A 
ATOM     20  C   UNL     1       2.140   8.033  17.818  0.00  0.00    +0.000 A 
ATOM     21  C   UNL     1       2.181   7.321  19.019  0.00  0.00    +0.000 A 
ATOM     22  C   UNL     1       1.728   7.911  20.204  0.00  0.00    +0.000 A 
ATOM     23  C   UNL     1       1.222   9.218  20.182  0.00  0.00    +0.000 A 
BRANCH  18  29
ATOM     24  C   UNL     1       0.828  14.727  19.274  0.00  0.00    +0.000 C 
ATOM     25  C   UNL     1       0.377  13.332  19.055  0.00  0.00    +0.000 A 
ATOM     26  C   UNL     1      -0.881  12.902  18.597  0.00  0.00    +0.000 A 
ATOM     27  C   UNL     1      -0.812  11.525  18.571  0.00  0.00    +0.000 A 
ATOM     28  C   UNL     1      -1.914  10.558  18.330  0.00  0.00    +0.000 C 
ATOM     29  N   UNL     1       0.491  11.194  18.934  0.00  0.00    +0.000 N 
ATOM     30  N   UNL     1       1.181  12.300  19.330  0.00  0.00    +0.000 NA
ENDBRANCH  18  29
ENDBRANCH   1  21
TORSDOF 5
ENDMDL
MODEL 3
REMARK VINA RESULT:      -8.0      3.773     10.298
REMARK  Name = 
REMARK  7 active torsions:
REMARK  status: ('A' for Active; 'I' for Inactive)
REMARK    1  A    between atoms: C_1  and  C_2
REMARK    2  A    between atoms: C_4  and  C_5
REMARK    3  A    between atoms: N_6  and  C_7
REMARK    4  A    between atoms: C_10  and  S_11
REMARK    5  A    between atoms: S_11  and  N_14
REMARK    6  A    between atoms: N_18  and  C_19
REMARK    7  A    between atoms: C_19  and  C_20
REMARK                            x       y       z     vdW  Elec       q    Type
REMARK                         _______ _______ _______ _____ _____    ______ ____
ROOT
ATOM      1  S   UNL     1       2.580   5.534  18.884  0.00  0.00    +0.000 S 
ATOM      2  O   UNL     1       2.885   5.067  20.219  0.00  0.00    +0.000 OA
ATOM      3  O   UNL     1       1.554   4.875  18.106  0.00  0.00    +0.000 OA
ENDROOT
BRANCH   1   4
ATOM      4  N   UNL     1       4.019   5.600  18.032  0.00  0.00    +0.000 N 
ATOM      5  C   UNL     1       4.614   6.941  17.887  0.00  0.00    +0.000 C 
ATOM      6  C   UNL     1       5.832   6.568  17.057  0.00  0.00    +0.000 C 
ATOM      7  O   UNL     1       6.644   7.384  16.639  0.00  0.00    +0.000 OA
ATOM      8  N   UNL     1       5.881   5.205  16.875  0.00  0.00    +0.000 N 
ATOM      9  C   UNL     1       4.787   4.587  17.417  0.00  0.00    +0.000 C 
ATOM     10  S   UNL     1       4.455   2.957  17.344  0.00  0.00    +0.000 S 
BRANCH   8  11
ATOM     11  C   UNL     1       7.035   4.576  16.238  0.00  0.00    +0.000 C 
BRANCH  11  12
ATOM     12  C   UNL     1       6.950   4.515  14.729  0.00  0.00    +0.000 A 
ATOM     13  C   UNL     1       7.801   5.291  13.928  0.00  0.00    +0.000 A 
ATOM     14  C   UNL     1       7.759   5.183  12.537  0.00  0.00    +0.000 A 
ATOM     15  C   UNL     1       6.873   4.295  11.930  0.00  0.00    +0.000 A 
ATOM     16  C   UNL     1       6.022   3.519  12.714  0.00  0.00    +0.000 A 
ATOM     17  C   UNL     1       6.060   3.628  14.105  0.00  0.00    +0.000 A 
ENDBRANCH  11  12
ENDBRANCH   8  11
ENDBRANCH   1   4
BRANCH   1  21
ATOM     18  C   UNL     1       1.054   9.840  19.170  0.00  0.00    +0.000 A 
ATOM     19  C   UNL     1       1.419   9.290  17.935  0.00  0.00    +0.000 A 
ATOM     20  C   UNL     1       1.937   7.996  17.859  0.00  0.00    +0.000 A 
ATOM     21  C   UNL     1       2.114   7.249  19.026  0.00  0.00    +0.000 A 
ATOM     22  C   UNL     1       1.799   7.803  20.272  0.00  0.00    +0.000 A 
ATOM     23  C   UNL     1       1.295   9.110  20.345  0.00  0.00    +0.000 A 
BRANCH  18  29
ATOM     24  C   UNL     1      -2.451  13.022  20.138  0.00  0.00    +0.000 C 
ATOM     25  C   UNL     1      -1.126  12.525  19.696  0.00  0.00    +0.000 A 
ATOM     26  C   UNL     1      -0.009  13.291  19.318  0.00  0.00    +0.000 A 
ATOM     27  C   UNL     1       0.967  12.377  18.983  0.00  0.00    +0.000 A 
ATOM     28  C   UNL     1       2.288  12.638  18.354  0.00  0.00    +0.000 C 
ATOM     29  N   UNL     1       0.429  11.120  19.246  0.00  0.00    +0.000 N 
ATOM     30  N   UNL     1      -0.887  11.215  19.581  0.00  0.00    +0.000 NA
ENDBRANCH  18  29
ENDBRANCH   1  21
TORSDOF 5
ENDMDL
MODEL 4
REMARK VINA RESULT:      -8.0      0.873      1.958
REMARK  Name = 
REMARK  7 active torsions:
REMARK  status: ('A' for Active; 'I' for Inactive)
REMARK    1  A    between atoms: C_1  and  C_2
REMARK    2  A    between atoms: C_4  and  C_5
REMARK    3  A    between atoms: N_6  and  C_7
REMARK    4  A    between atoms: C_10  and  S_11
REMARK    5  A    between atoms: S_11  and  N_14
REMARK    6  A    between atoms: N_18  and  C_19
REMARK    7  A    between atoms: C_19  and  C_20
REMARK                            x       y       z     vdW  Elec       q    Type
REMARK                         _______ _______ _______ _____ _____    ______ ____
ROOT
ATOM      1  S   UNL     1       0.135  11.125  20.232  0.00  0.00    +0.000 S 
ATOM      2  O   UNL     1      -0.281  10.822  21.584  0.00  0.00    +0.000 OA
ATOM      3  O   UNL     1       0.906  12.320  19.966  0.00  0.00    +0.000 OA
ENDROOT
BRANCH   1   4
ATOM      4  N   UNL     1      -1.227  11.072  19.262  0.00  0.00    +0.000 N 
ATOM      5  C   UNL     1      -1.277   9.962  18.292  0.00  0.00    +0.000 C 
ATOM      6  C   UNL     1      -2.601  10.294  17.623  0.00  0.00    +0.000 C 
ATOM      7  O   UNL     1      -3.069   9.654  16.690  0.00  0.00    +0.000 OA
ATOM      8  N   UNL     1      -3.178  11.386  18.231  0.00  0.00    +0.000 N 
ATOM      9  C   UNL     1      -2.365  11.907  19.201  0.00  0.00    +0.000 C 
ATOM     10  S   UNL     1      -2.683  13.263  20.112  0.00  0.00    +0.000 S 
BRANCH   8  11
ATOM     11  C   UNL     1      -4.525  11.817  17.872  0.00  0.00    +0.000 C 
BRANCH  11  12
ATOM     12  C   UNL     1      -5.606  11.294  18.791  0.00  0.00    +0.000 A 
ATOM     13  C   UNL     1      -6.119   9.998  18.635  0.00  0.00    +0.000 A 
ATOM     14  C   UNL     1      -7.072   9.500  19.525  0.00  0.00    +0.000 A 
ATOM     15  C   UNL     1      -7.519  10.287  20.584  0.00  0.00    +0.000 A 
ATOM     16  C   UNL     1      -7.018  11.576  20.751  0.00  0.00    +0.000 A 
ATOM     17  C   UNL     1      -6.068  12.077  19.860  0.00  0.00    +0.000 A 
ENDBRANCH  11  12
ENDBRANCH   8  11
ENDBRANCH   1   4
BRANCH   1  21
ATOM     18  C   UNL     1       2.303   7.396  18.701  0.00  0.00    +0.000 A 
ATOM     19  C   UNL     1       1.896   7.490  20.038  0.00  0.00    +0.000 A 
ATOM     20  C   UNL     1       1.286   8.652  20.515  0.00  0.00    +0.000 A 
ATOM     21  C   UNL     1       1.097   9.739  19.659  0.00  0.00    +0.000 A 
ATOM     22  C   UNL     1       1.542   9.677  18.333  0.00  0.00    +0.000 A 
ATOM     23  C   UNL     1       2.170   8.515  17.862  0.00  0.00    +0.000 A 
BRANCH  18  29
ATOM     24  C   UNL     1       2.345   2.702  17.555  0.00  0.00    +0.000 C 
ATOM     25  C   UNL     1       2.833   4.098  17.660  0.00  0.00    +0.000 A 
ATOM     26  C   UNL     1       4.007   4.637  17.105  0.00  0.00    +0.000 A 
ATOM     27  C   UNL     1       4.020   5.961  17.489  0.00  0.00    +0.000 A 
ATOM     28  C   UNL     1       5.116   6.952  17.322  0.00  0.00    +0.000 C 
ATOM     29  N   UNL     1       2.832   6.178  18.180  0.00  0.00    +0.000 N 
ATOM     30  N   UNL     1       2.161   5.008  18.371  0.00  0.00    +0.000 NA
ENDBRANCH  18  29
ENDBRANCH   1  21
TORSDOF 5
ENDMDL
MODEL 5
REMARK VINA RESULT:      -8.0      0.625      1.392
REMARK  Name = 
REMARK  7 active torsions:
REMARK  status: ('A' for Active; 'I' for Inactive)
REMARK    1  A    between atoms: C_1  and  C_2
REMARK    2  A    between atoms: C_4  and  C_5
REMARK    3  A    between atoms: N_6  and  C_7
REMARK    4  A    between atoms: C_10  and  S_11
REMARK    5  A    between atoms: S_11  and  N_14
REMARK    6  A    between atoms: N_18  and  C_19
REMARK    7  A    between atoms: C_19  and  C_20
REMARK                            x       y       z     vdW  Elec       q    Type
REMARK                         _______ _______ _______ _____ _____    ______ ____
ROOT
ATOM      1  S   UNL     1       0.204  10.709  20.542  0.00  0.00    +0.000 S 
ATOM      2  O   UNL     1      -0.279  10.161  21.791  0.00  0.00    +0.000 OA
ATOM      3  O   UNL     1       0.951  11.947  20.538  0.00  0.00    +0.000 OA
ENDROOT
BRANCH   1   4
ATOM      4  N   UNL     1      -1.100  10.801  19.497  0.00  0.00    +0.000 N 
ATOM      5  C   UNL     1      -1.195   9.721  18.498  0.00  0.00    +0.000 C 
ATOM      6  C   UNL     1      -2.443  10.188  17.765  0.00  0.00    +0.000 C 
ATOM      7  O   UNL     1      -2.913   9.614  16.791  0.00  0.00    +0.000 OA
ATOM      8  N   UNL     1      -2.951  11.316  18.368  0.00  0.00    +0.000 N 
ATOM      9  C   UNL     1      -2.151  11.740  19.395  0.00  0.00    +0.000 C 
ATOM     10  S   UNL     1      -2.396  13.101  20.321  0.00  0.00    +0.000 S 
BRANCH   8  11
ATOM     11  C   UNL     1      -4.231  11.878  17.946  0.00  0.00    +0.000 C 
BRANCH  11  12
ATOM     12  C   UNL     1      -5.405  11.442  18.792  0.00  0.00    +0.000 A 
ATOM     13  C   UNL     1      -6.037  10.210  18.568  0.00  0.00    +0.000 A 
ATOM     14  C   UNL     1      -7.081   9.787  19.393  0.00  0.00    +0.000 A 
ATOM     15  C   UNL     1      -7.501  10.586  20.455  0.00  0.00    +0.000 A 
ATOM     16  C   UNL     1      -6.882  11.812  20.689  0.00  0.00    +0.000 A 
ATOM     17  C   UNL     1      -5.841  12.238  19.863  0.00  0.00    +0.000 A 
ENDBRANCH  11  12
ENDBRANCH   8  11
ENDBRANCH   1   4
BRANCH   1  21
ATOM     18  C   UNL     1       2.566   7.338  18.542  0.00  0.00    +0.000 A 
ATOM     19  C   UNL     1       2.179   7.242  19.885  0.00  0.00    +0.000 A 
ATOM     20  C   UNL     1       1.508   8.297  20.507  0.00  0.00    +0.000 A 
ATOM     21  C   UNL     1       1.238   9.466  19.793  0.00  0.00    +0.000 A 
ATOM     22  C   UNL     1       1.661   9.594  18.464  0.00  0.00    +0.000 A 
ATOM     23  C   UNL     1       2.350   8.539  17.848  0.00  0.00    +0.000 A 
BRANCH  18  29
ATOM     24  C   UNL     1       5.898   4.965  15.970  0.00  0.00    +0.000 C 
ATOM     25  C   UNL     1       4.652   5.179  16.744  0.00  0.00    +0.000 A 
ATOM     26  C   UNL     1       3.717   4.209  17.145  0.00  0.00    +0.000 A 
ATOM     27  C   UNL     1       2.737   4.902  17.824  0.00  0.00    +0.000 A 
ATOM     28  C   UNL     1       1.429   4.393  18.313  0.00  0.00    +0.000 C 
ATOM     29  N   UNL     1       3.159   6.228  17.870  0.00  0.00    +0.000 N 
ATOM     30  N   UNL     1       4.279   6.408  17.117  0.00  0.00    +0.000 NA
ENDBRANCH  18  29
ENDBRANCH   1  21
TORSDOF 5
ENDMDL
MODEL 6
REMARK VINA RESULT:      -7.9      1.028      1.088
REMARK  Name = 
REMARK  7 active torsions:
REMARK  status: ('A' for Active; 'I' for Inactive)
REMARK    1  A    between atoms: C_1  and  C_2
REMARK    2  A    between atoms: C_4  and  C_5
REMARK    3  A    between atoms: N_6  and  C_7
REMARK    4  A    between atoms: C_10  and  S_11
REMARK    5  A    between atoms: S_11  and  N_14
REMARK    6  A    between atoms: N_18  and  C_19
REMARK    7  A    between atoms: C_19  and  C_20
REMARK                            x       y       z     vdW  Elec       q    Type
REMARK                         _______ _______ _______ _____ _____    ______ ____
ROOT
ATOM      1  S   UNL     1       0.118  11.247  20.336  0.00  0.00    +0.000 S 
ATOM      2  O   UNL     1      -0.234  11.293  21.738  0.00  0.00    +0.000 OA
ATOM      3  O   UNL     1       1.051  12.211  19.794  0.00  0.00    +0.000 OA
ENDROOT
BRANCH   1   4
ATOM      4  N   UNL     1      -1.307  11.245  19.458  0.00  0.00    +0.000 N 
ATOM      5  C   UNL     1      -1.452  10.153  18.479  0.00  0.00    +0.000 C 
ATOM      6  C   UNL     1      -2.808  10.531  17.905  0.00  0.00    +0.000 C 
ATOM      7  O   UNL     1      -3.355   9.919  16.996  0.00  0.00    +0.000 OA
ATOM      8  N   UNL     1      -3.312  11.628  18.565  0.00  0.00    +0.000 N 
ATOM      9  C   UNL     1      -2.423  12.111  19.486  0.00  0.00    +0.000 C 
ATOM     10  S   UNL     1      -2.642  13.461  20.435  0.00  0.00    +0.000 S 
BRANCH   8  11
ATOM     11  C   UNL     1      -4.668  12.101  18.304  0.00  0.00    +0.000 C 
BRANCH  11  12
ATOM     12  C   UNL     1      -5.717  11.504  19.214  0.00  0.00    +0.000 A 
ATOM     13  C   UNL     1      -6.185  12.209  20.333  0.00  0.00    +0.000 A 
ATOM     14  C   UNL     1      -7.198  11.678  21.133  0.00  0.00    +0.000 A 
ATOM     15  C   UNL     1      -7.760  10.442  20.822  0.00  0.00    +0.000 A 
ATOM     16  C   UNL     1      -7.305   9.730  19.715  0.00  0.00    +0.000 A 
ATOM     17  C   UNL     1      -6.289  10.258  18.915  0.00  0.00    +0.000 A 
ENDBRANCH  11  12
ENDBRANCH   8  11
ENDBRANCH   1   4
BRANCH   1  21
ATOM     18  C   UNL     1       2.163   7.219  19.600  0.00  0.00    +0.000 A 
ATOM     19  C   UNL     1       2.095   8.183  18.587  0.00  0.00    +0.000 A 
ATOM     20  C   UNL     1       1.421   9.388  18.797  0.00  0.00    +0.000 A 
ATOM     21  C   UNL     1       0.791   9.627  20.020  0.00  0.00    +0.000 A 
ATOM     22  C   UNL     1       0.810   8.653  21.025  0.00  0.00    +0.000 A 
ATOM     23  C   UNL     1       1.474   7.437  20.804  0.00  0.00    +0.000 A 
BRANCH  18  29
ATOM     24  C   UNL     1       6.016   4.558  18.405  0.00  0.00    +0.000 C 
ATOM     25  C   UNL     1       4.657   4.863  18.914  0.00  0.00    +0.000 A 
ATOM     26  C   UNL     1       3.755   3.975  19.527  0.00  0.00    +0.000 A 
ATOM     27  C   UNL     1       2.634   4.726  19.809  0.00  0.00    +0.000 A 
ATOM     28  C   UNL     1       1.314   4.252  20.301  0.00  0.00    +0.000 C 
ATOM     29  N   UNL     1       2.936   6.032  19.431  0.00  0.00    +0.000 N 
ATOM     30  N   UNL     1       4.135   6.087  18.788  0.00  0.00    +0.000 NA
ENDBRANCH  18  29
ENDBRANCH   1  21
TORSDOF 5
ENDMDL
MODEL 7
REMARK VINA RESULT:      -7.9      3.748      5.211
REMARK  Name = 
REMARK  7 active torsions:
REMARK  status: ('A' for Active; 'I' for Inactive)
REMARK    1  A    between atoms: C_1  and  C_2
REMARK    2  A    between atoms: C_4  and  C_5
REMARK    3  A    between atoms: N_6  and  C_7
REMARK    4  A    between atoms: C_10  and  S_11
REMARK    5  A    between atoms: S_11  and  N_14
REMARK    6  A    between atoms: N_18  and  C_19
REMARK    7  A    between atoms: C_19  and  C_20
REMARK                            x       y       z     vdW  Elec       q    Type
REMARK                         _______ _______ _______ _____ _____    ______ ____
ROOT
ATOM      1  S   UNL     1      -0.140  10.676  19.557  0.00  0.00    +0.000 S 
ATOM      2  O   UNL     1      -1.090  10.707  18.466  0.00  0.00    +0.000 OA
ATOM      3  O   UNL     1      -0.598  10.419  20.905  0.00  0.00    +0.000 OA
ENDROOT
BRANCH   1   4
ATOM      4  N   UNL     1       0.745  12.096  19.494  0.00  0.00    +0.000 N 
ATOM      5  C   UNL     1       1.910  12.082  18.592  0.00  0.00    +0.000 C 
ATOM      6  C   UNL     1       2.426  13.488  18.853  0.00  0.00    +0.000 C 
ATOM      7  O   UNL     1       3.440  13.945  18.341  0.00  0.00    +0.000 OA
ATOM      8  N   UNL     1       1.583  14.148  19.717  0.00  0.00    +0.000 N 
ATOM      9  C   UNL     1       0.575  13.332  20.156  0.00  0.00    +0.000 C 
ATOM     10  S   UNL     1      -0.602  13.747  21.257  0.00  0.00    +0.000 S 
BRANCH   8  11
ATOM     11  C   UNL     1       1.774  15.565  20.013  0.00  0.00    +0.000 C 
BRANCH  11  12
ATOM     12  C   UNL     1       1.169  16.497  18.988  0.00  0.00    +0.000 A 
ATOM     13  C   UNL     1       1.975  17.153  18.047  0.00  0.00    +0.000 A 
ATOM     14  C   UNL     1       1.403  17.963  17.064  0.00  0.00    +0.000 A 
ATOM     15  C   UNL     1       0.020  18.121  17.006  0.00  0.00    +0.000 A 
ATOM     16  C   UNL     1      -0.793  17.475  17.935  0.00  0.00    +0.000 A 
ATOM     17  C   UNL     1      -0.223  16.668  18.920  0.00  0.00    +0.000 A 
ENDBRANCH  11  12
ENDBRANCH   8  11
ENDBRANCH   1   4
BRANCH   1  21
ATOM     18  C   UNL     1       2.697   7.243  18.503  0.00  0.00    +0.000 A 
ATOM     19  C   UNL     1       2.239   7.417  19.816  0.00  0.00    +0.000 A 
ATOM     20  C   UNL     1       1.420   8.499  20.144  0.00  0.00    +0.000 A 
ATOM     21  C   UNL     1       1.068   9.427  19.162  0.00  0.00    +0.000 A 
ATOM     22  C   UNL     1       1.557   9.292  17.858  0.00  0.00    +0.000 A 
ATOM     23  C   UNL     1       2.394   8.214  17.536  0.00  0.00    +0.000 A 
BRANCH  18  29
ATOM     24  C   UNL     1       6.651   4.617  17.601  0.00  0.00    +0.000 C 
ATOM     25  C   UNL     1       5.209   4.926  17.757  0.00  0.00    +0.000 A 
ATOM     26  C   UNL     1       4.131   4.026  17.690  0.00  0.00    +0.000 A 
ATOM     27  C   UNL     1       3.001   4.792  17.886  0.00  0.00    +0.000 A 
ATOM     28  C   UNL     1       1.580   4.380  17.745  0.00  0.00    +0.000 C 
ATOM     29  N   UNL     1       3.448   6.087  18.137  0.00  0.00    +0.000 N 
ATOM     30  N   UNL     1       4.794   6.181  17.952  0.00  0.00    +0.000 NA
ENDBRANCH  18  29
ENDBRANCH   1  21
TORSDOF 5
ENDMDL
MODEL 8
REMARK VINA RESULT:      -7.8      3.887      5.419
REMARK  Name = 
REMARK  7 active torsions:
REMARK  status: ('A' for Active; 'I' for Inactive)
REMARK    1  A    between atoms: C_1  and  C_2
REMARK    2  A    between atoms: C_4  and  C_5
REMARK    3  A    between atoms: N_6  and  C_7
REMARK    4  A    between atoms: C_10  and  S_11
REMARK    5  A    between atoms: S_11  and  N_14
REMARK    6  A    between atoms: N_18  and  C_19
REMARK    7  A    between atoms: C_19  and  C_20
REMARK                            x       y       z     vdW  Elec       q    Type
REMARK                         _______ _______ _______ _____ _____    ______ ____
ROOT
ATOM      1  S   UNL     1      -0.080  10.685  19.992  0.00  0.00    +0.000 S 
ATOM      2  O   UNL     1      -1.194  10.717  19.071  0.00  0.00    +0.000 OA
ATOM      3  O   UNL     1      -0.316  10.480  21.404  0.00  0.00    +0.000 OA
ENDROOT
BRANCH   1   4
ATOM      4  N   UNL     1       0.823  12.071  19.738  0.00  0.00    +0.000 N 
ATOM      5  C   UNL     1       1.894  11.960  18.731  0.00  0.00    +0.000 C 
ATOM      6  C   UNL     1       2.461  13.367  18.835  0.00  0.00    +0.000 C 
ATOM      7  O   UNL     1       3.429  13.757  18.194  0.00  0.00    +0.000 OA
ATOM      8  N   UNL     1       1.721  14.110  19.725  0.00  0.00    +0.000 N 
ATOM      9  C   UNL     1       0.745  13.356  20.319  0.00  0.00    +0.000 C 
ATOM     10  S   UNL     1      -0.309  13.881  21.496  0.00  0.00    +0.000 S 
BRANCH   8  11
ATOM     11  C   UNL     1       1.969  15.539  19.895  0.00  0.00    +0.000 C 
BRANCH  11  12
ATOM     12  C   UNL     1       1.310  16.409  18.849  0.00  0.00    +0.000 A 
ATOM     13  C   UNL     1      -0.085  16.553  18.808  0.00  0.00    +0.000 A 
ATOM     14  C   UNL     1      -0.683  17.406  17.879  0.00  0.00    +0.000 A 
ATOM     15  C   UNL     1       0.104  18.131  16.986  0.00  0.00    +0.000 A 
ATOM     16  C   UNL     1       1.490  17.997  17.016  0.00  0.00    +0.000 A 
ATOM     17  C   UNL     1       2.090  17.142  17.942  0.00  0.00    +0.000 A 
ENDBRANCH  11  12
ENDBRANCH   8  11
ENDBRANCH   1   4
BRANCH   1  21
ATOM     18  C   UNL     1       2.443   7.131  18.595  0.00  0.00    +0.000 A 
ATOM     19  C   UNL     1       2.194   7.341  19.957  0.00  0.00    +0.000 A 
ATOM     20  C   UNL     1       1.472   8.457  20.382  0.00  0.00    +0.000 A 
ATOM     21  C   UNL     1       1.011   9.385  19.446  0.00  0.00    +0.000 A 
ATOM     22  C   UNL     1       1.294   9.213  18.086  0.00  0.00    +0.000 A 
ATOM     23  C   UNL     1       2.034   8.100  17.664  0.00  0.00    +0.000 A 
BRANCH  18  29
ATOM     24  C   UNL     1       2.960   2.401  17.753  0.00  0.00    +0.000 C 
ATOM     25  C   UNL     1       3.301   3.844  17.758  0.00  0.00    +0.000 A 
ATOM     26  C   UNL     1       4.405   4.463  17.147  0.00  0.00    +0.000 A 
ATOM     27  C   UNL     1       4.285   5.804  17.444  0.00  0.00    +0.000 A 
ATOM     28  C   UNL     1       5.270   6.888  17.192  0.00  0.00    +0.000 C 
ATOM     29  N   UNL     1       3.089   5.942  18.143  0.00  0.00    +0.000 N 
ATOM     30  N   UNL     1       2.546   4.725  18.422  0.00  0.00    +0.000 NA
ENDBRANCH  18  29
ENDBRANCH   1  21
TORSDOF 5
ENDMDL
MODEL 9
REMARK VINA RESULT:      -7.8      0.990      1.407
REMARK  Name = 
REMARK  7 active torsions:
REMARK  status: ('A' for Active; 'I' for Inactive)
REMARK    1  A    between atoms: C_1  and  C_2
REMARK    2  A    between atoms: C_4  and  C_5
REMARK    3  A    between atoms: N_6  and  C_7
REMARK    4  A    between atoms: C_10  and  S_11
REMARK    5  A    between atoms: S_11  and  N_14
REMARK    6  A    between atoms: N_18  and  C_19
REMARK    7  A    between atoms: C_19  and  C_20
REMARK                            x       y       z     vdW  Elec       q    Type
REMARK                         _______ _______ _______ _____ _____    ______ ____
ROOT
ATOM      1  S   UNL     1       0.197  11.124  20.207  0.00  0.00    +0.000 S 
ATOM      2  O   UNL     1      -0.163  11.095  21.607  0.00  0.00    +0.000 OA
ATOM      3  O   UNL     1       1.105  12.138  19.716  0.00  0.00    +0.000 OA
ENDROOT
BRANCH   1   4
ATOM      4  N   UNL     1      -1.223  11.123  19.321  0.00  0.00    +0.000 N 
ATOM      5  C   UNL     1      -1.363  10.030  18.341  0.00  0.00    +0.000 C 
ATOM      6  C   UNL     1      -2.716  10.409  17.760  0.00  0.00    +0.000 C 
ATOM      7  O   UNL     1      -3.258   9.797  16.848  0.00  0.00    +0.000 OA
ATOM      8  N   UNL     1      -3.223  11.506  18.418  0.00  0.00    +0.000 N 
ATOM      9  C   UNL     1      -2.338  11.990  19.343  0.00  0.00    +0.000 C 
ATOM     10  S   UNL     1      -2.562  13.340  20.290  0.00  0.00    +0.000 S 
BRANCH   8  11
ATOM     11  C   UNL     1      -4.578  11.980  18.148  0.00  0.00    +0.000 C 
BRANCH  11  12
ATOM     12  C   UNL     1      -5.627  11.411  19.077  0.00  0.00    +0.000 A 
ATOM     13  C   UNL     1      -6.109  12.157  20.162  0.00  0.00    +0.000 A 
ATOM     14  C   UNL     1      -7.122  11.651  20.978  0.00  0.00    +0.000 A 
ATOM     15  C   UNL     1      -7.670  10.397  20.715  0.00  0.00    +0.000 A 
ATOM     16  C   UNL     1      -7.201   9.645  19.640  0.00  0.00    +0.000 A 
ATOM     17  C   UNL     1      -6.186  10.148  18.826  0.00  0.00    +0.000 A 
ENDBRANCH  11  12
ENDBRANCH   8  11
ENDBRANCH   1   4
BRANCH   1  21
ATOM     18  C   UNL     1       2.361   7.199  19.277  0.00  0.00    +0.000 A 
ATOM     19  C   UNL     1       2.201   8.181  18.291  0.00  0.00    +0.000 A 
ATOM     20  C   UNL     1       1.492   9.352  18.562  0.00  0.00    +0.000 A 
ATOM     21  C   UNL     1       0.918   9.540  19.821  0.00  0.00    +0.000 A 
ATOM     22  C   UNL     1       1.028   8.547  20.801  0.00  0.00    +0.000 A 
ATOM     23  C   UNL     1       1.727   7.365  20.519  0.00  0.00    +0.000 A 
BRANCH  18  29
ATOM     24  C   UNL     1       3.928   2.669  19.887  0.00  0.00    +0.000 C 
ATOM     25  C   UNL     1       3.846   4.032  19.308  0.00  0.00    +0.000 A 
ATOM     26  C   UNL     1       4.539   4.528  18.190  0.00  0.00    +0.000 A 
ATOM     27  C   UNL     1       4.135   5.840  18.059  0.00  0.00    +0.000 A 
ATOM     28  C   UNL     1       4.681   6.879  17.149  0.00  0.00    +0.000 C 
ATOM     29  N   UNL     1       3.171   6.049  19.042  0.00  0.00    +0.000 N 
ATOM     30  N   UNL     1       3.077   4.970  19.868  0.00  0.00    +0.000 NA
ENDBRANCH  18  29
ENDBRANCH   1  21
TORSDOF 5
ENDMDL
