MODEL 1
REMARK VINA RESULT:      -8.6      0.000      0.000
REMARK  Name = 
REMARK  9 active torsions:
REMARK  status: ('A' for Active; 'I' for Inactive)
REMARK    1  A    between atoms: C_1  and  C_2
REMARK    2  A    between atoms: C_2  and  N_3
REMARK    3  A    between atoms: N_6  and  C_7
REMARK    4  A    between atoms: C_11  and  C_12
REMARK    5  A    between atoms: C_12  and  C_14
REMARK    6  A    between atoms: C_14  and  C_15
REMARK    7  A    between atoms: C_15  and  C_16
REMARK    8  A    between atoms: C_19  and  C_20
REMARK    9  A    between atoms: C_19  and  O_21
REMARK                            x       y       z     vdW  Elec       q    Type
REMARK                         _______ _______ _______ _____ _____    ______ ____
ROOT
ATOM      1  C   UNL     1       0.630   9.475  20.089  0.00  0.00    +0.000 A 
ATOM      2  C   UNL     1       1.310   8.343  20.601  0.00  0.00    +0.000 A 
ATOM      3  C   UNL     1       2.156   7.614  19.767  0.00  0.00    +0.000 A 
ATOM      4  N   UNL     1       2.960   6.511  19.951  0.00  0.00    +0.000 N 
ATOM      5  C   UNL     1       3.643   6.275  18.778  0.00  0.00    +0.000 A 
ATOM      6  N   UNL     1       3.258   7.125  17.853  0.00  0.00    +0.000 NA
ATOM      7  C   UNL     1       2.355   7.961  18.440  0.00  0.00    +0.000 A 
ATOM      8  C   UNL     1       1.685   9.050  17.898  0.00  0.00    +0.000 A 
ATOM      9  C   UNL     1       0.843   9.805  18.721  0.00  0.00    +0.000 A 
ATOM     10 CL   UNL     1       0.054  11.125  17.909  0.00  0.00    +0.000 Cl
ATOM     11  H   UNL     1       3.090   5.992  20.810  0.00  0.00    +0.000 HD
ENDROOT
BRANCH   1  15
ATOM     12  N   UNL     1      -1.131  11.830  23.234  0.00  0.00    +0.000 NA
ATOM     13  C   UNL     1      -0.659  10.434  23.378  0.00  0.00    +0.000 C 
ATOM     14  C   UNL     1      -0.830   9.564  22.113  0.00  0.00    +0.000 C 
ATOM     15  N   UNL     1      -0.172  10.207  20.963  0.00  0.00    +0.000 N 
ATOM     16  C   UNL     1      -0.468  11.633  20.754  0.00  0.00    +0.000 C 
ATOM     17  C   UNL     1      -0.406  12.427  22.085  0.00  0.00    +0.000 C 
BRANCH  12  19
ATOM     18  C   UNL     1      -3.225  13.044  23.871  0.00  0.00    +0.000 C 
ATOM     19  C   UNL     1      -2.585  11.936  23.039  0.00  0.00    +0.000 C 
ENDBRANCH  12  19
ENDBRANCH   1  15
BRANCH   5  20
ATOM     20  C   UNL     1       4.686   5.271  18.578  0.00  0.00    +0.000 C 
ATOM     21  O   UNL     1       5.861   5.533  18.827  0.00  0.00    +0.000 OA
BRANCH  20  22
ATOM     22  C   UNL     1       4.267   3.908  17.925  0.00  0.00    +0.000 C 
ATOM     23  C   UNL     1       2.793   3.873  17.441  0.00  0.00    +0.000 C 
ATOM     24  C   UNL     1       1.763   3.866  18.568  0.00  0.00    +0.000 C 
ATOM     25  C   UNL     1       1.973   2.704  19.539  0.00  0.00    +0.000 C 
ATOM     26  C   UNL     1       1.005   2.840  20.721  0.00  0.00    +0.000 C 
ATOM     27  C   UNL     1       3.424   2.620  20.029  0.00  0.00    +0.000 C 
ATOM     28  C   UNL     1       4.469   2.727  18.910  0.00  0.00    +0.000 C 
BRANCH  22  29
ATOM     29  C   UNL     1       5.166   3.669  16.666  0.00  0.00    +0.000 C 
ATOM     30  C   UNL     1       5.141   4.767  15.609  0.00  0.00    +0.000 C 
ENDBRANCH  22  29
BRANCH  25  31
ATOM     31  O   UNL     1       1.682   1.477  18.860  0.00  0.00    +0.000 OA
ATOM     32  H   UNL     1       1.237   1.695  18.023  0.00  0.00    +0.000 HD
ENDBRANCH  25  31
ENDBRANCH  20  22
ENDBRANCH   5  20
TORSDOF 6
ENDMDL
MODEL 2
REMARK VINA RESULT:      -8.5      1.878      3.380
REMARK  Name = 
REMARK  9 active torsions:
REMARK  status: ('A' for Active; 'I' for Inactive)
REMARK    1  A    between atoms: C_1  and  C_2
REMARK    2  A    between atoms: C_2  and  N_3
REMARK    3  A    between atoms: N_6  and  C_7
REMARK    4  A    between atoms: C_11  and  C_12
REMARK    5  A    between atoms: C_12  and  C_14
REMARK    6  A    between atoms: C_14  and  C_15
REMARK    7  A    between atoms: C_15  and  C_16
REMARK    8  A    between atoms: C_19  and  C_20
REMARK    9  A    between atoms: C_19  and  O_21
REMARK                            x       y       z     vdW  Elec       q    Type
REMARK                         _______ _______ _______ _____ _____    ______ ____
ROOT
ATOM      1  C   UNL     1       0.873   8.980  20.031  0.00  0.00    +0.000 A 
ATOM      2  C   UNL     1       1.680   7.923  20.519  0.00  0.00    +0.000 A 
ATOM      3  C   UNL     1       2.497   7.218  19.636  0.00  0.00    +0.000 A 
ATOM      4  N   UNL     1       3.395   6.184  19.786  0.00  0.00    +0.000 N 
ATOM      5  C   UNL     1       3.983   5.944  18.562  0.00  0.00    +0.000 A 
ATOM      6  N   UNL     1       3.452   6.722  17.646  0.00  0.00    +0.000 NA
ATOM      7  C   UNL     1       2.547   7.517  18.284  0.00  0.00    +0.000 A 
ATOM      8  C   UNL     1       1.751   8.531  17.767  0.00  0.00    +0.000 A 
ATOM      9  C   UNL     1       0.934   9.261  18.636  0.00  0.00    +0.000 A 
ATOM     10 CL   UNL     1      -0.023  10.485  17.853  0.00  0.00    +0.000 Cl
ATOM     11  H   UNL     1       3.641   5.715  20.647  0.00  0.00    +0.000 HD
ENDROOT
BRANCH   1  15
ATOM     12  N   UNL     1      -0.768  11.295  23.267  0.00  0.00    +0.000 NA
ATOM     13  C   UNL     1      -0.250   9.913  23.386  0.00  0.00    +0.000 C 
ATOM     14  C   UNL     1      -0.470   9.035  22.135  0.00  0.00    +0.000 C 
ATOM     15  N   UNL     1       0.103   9.691  20.948  0.00  0.00    +0.000 N 
ATOM     16  C   UNL     1      -0.245  11.109  20.754  0.00  0.00    +0.000 C 
ATOM     17  C   UNL     1      -0.128  11.908  22.077  0.00  0.00    +0.000 C 
BRANCH  12  19
ATOM     18  C   UNL     1      -2.767  12.785  23.043  0.00  0.00    +0.000 C 
ATOM     19  C   UNL     1      -2.233  11.360  23.157  0.00  0.00    +0.000 C 
ENDBRANCH  12  19
ENDBRANCH   1  15
BRANCH   5  20
ATOM     20  C   UNL     1       5.075   5.007  18.303  0.00  0.00    +0.000 C 
ATOM     21  O   UNL     1       5.005   3.844  18.694  0.00  0.00    +0.000 OA
BRANCH  20  22
ATOM     22  C   UNL     1       6.372   5.572  17.627  0.00  0.00    +0.000 C 
ATOM     23  C   UNL     1       6.092   6.549  16.454  0.00  0.00    +0.000 C 
ATOM     24  C   UNL     1       5.507   5.884  15.211  0.00  0.00    +0.000 C 
ATOM     25  C   UNL     1       6.391   4.752  14.687  0.00  0.00    +0.000 C 
ATOM     26  C   UNL     1       5.678   4.033  13.535  0.00  0.00    +0.000 C 
ATOM     27  C   UNL     1       6.772   3.762  15.795  0.00  0.00    +0.000 C 
ATOM     28  C   UNL     1       7.268   4.428  17.086  0.00  0.00    +0.000 C 
BRANCH  22  29
ATOM     29  C   UNL     1       7.179   6.373  18.704  0.00  0.00    +0.000 C 
ATOM     30  C   UNL     1       8.032   7.523  18.181  0.00  0.00    +0.000 C 
ENDBRANCH  22  29
BRANCH  25  31
ATOM     31  O   UNL     1       7.607   5.313  14.181  0.00  0.00    +0.000 OA
ATOM     32  H   UNL     1       7.414   5.722  13.320  0.00  0.00    +0.000 HD
ENDBRANCH  25  31
ENDBRANCH  20  22
ENDBRANCH   5  20
TORSDOF 6
ENDMDL
MODEL 3
REMARK VINA RESULT:      -8.4      2.506      4.059
REMARK  Name = 
REMARK  9 active torsions:
REMARK  status: ('A' for Active; 'I' for Inactive)
REMARK    1  A    between atoms: C_1  and  C_2
REMARK    2  A    between atoms: C_2  and  N_3
REMARK    3  A    between atoms: N_6  and  C_7
REMARK    4  A    between atoms: C_11  and  C_12
REMARK    5  A    between atoms: C_12  and  C_14
REMARK    6  A    between atoms: C_14  and  C_15
REMARK    7  A    between atoms: C_15  and  C_16
REMARK    8  A    between atoms: C_19  and  C_20
REMARK    9  A    between atoms: C_19  and  O_21
REMARK                            x       y       z     vdW  Elec       q    Type
REMARK                         _______ _______ _______ _____ _____    ______ ____
ROOT
ATOM      1  C   UNL     1       0.861   9.713  19.891  0.00  0.00    +0.000 A 
ATOM      2  C   UNL     1       1.668   9.290  18.807  0.00  0.00    +0.000 A 
ATOM      3  C   UNL     1       2.286   8.041  18.857  0.00  0.00    +0.000 A 
ATOM      4  N   UNL     1       3.091   7.339  17.987  0.00  0.00    +0.000 N 
ATOM      5  C   UNL     1       3.342   6.100  18.537  0.00  0.00    +0.000 A 
ATOM      6  N   UNL     1       2.797   6.018  19.730  0.00  0.00    +0.000 NA
ATOM      7  C   UNL     1       2.137   7.191  19.941  0.00  0.00    +0.000 A 
ATOM      8  C   UNL     1       1.373   7.584  21.032  0.00  0.00    +0.000 A 
ATOM      9  C   UNL     1       0.732   8.827  20.998  0.00  0.00    +0.000 A 
ATOM     10 CL   UNL     1      -0.173   9.200  22.436  0.00  0.00    +0.000 Cl
ATOM     11  H   UNL     1       3.399   7.637  17.071  0.00  0.00    +0.000 HD
ENDROOT
BRANCH   1  15
ATOM     12  N   UNL     1      -0.787  13.533  18.788  0.00  0.00    +0.000 NA
ATOM     13  C   UNL     1       0.648  13.264  19.032  0.00  0.00    +0.000 C 
ATOM     14  C   UNL     1       0.926  12.199  20.116  0.00  0.00    +0.000 C 
ATOM     15  N   UNL     1       0.223  10.947  19.788  0.00  0.00    +0.000 N 
ATOM     16  C   UNL     1      -1.197  11.072  19.421  0.00  0.00    +0.000 C 
ATOM     17  C   UNL     1      -1.426  12.243  18.430  0.00  0.00    +0.000 C 
BRANCH  12  19
ATOM     18  C   UNL     1      -1.028  15.583  20.203  0.00  0.00    +0.000 C 
ATOM     19  C   UNL     1      -1.469  14.147  19.938  0.00  0.00    +0.000 C 
ENDBRANCH  12  19
ENDBRANCH   1  15
BRANCH   5  20
ATOM     20  C   UNL     1       4.058   5.002  17.890  0.00  0.00    +0.000 C 
ATOM     21  O   UNL     1       3.501   3.925  17.691  0.00  0.00    +0.000 OA
BRANCH  20  22
ATOM     22  C   UNL     1       5.581   5.212  17.579  0.00  0.00    +0.000 C 
ATOM     23  C   UNL     1       5.858   6.302  16.510  0.00  0.00    +0.000 C 
ATOM     24  C   UNL     1       5.429   5.916  15.096  0.00  0.00    +0.000 C 
ATOM     25  C   UNL     1       6.078   4.613  14.627  0.00  0.00    +0.000 C 
ATOM     26  C   UNL     1       5.495   4.207  13.269  0.00  0.00    +0.000 C 
ATOM     27  C   UNL     1       5.908   3.485  15.653  0.00  0.00    +0.000 C 
ATOM     28  C   UNL     1       6.242   3.895  17.095  0.00  0.00    +0.000 C 
BRANCH  22  29
ATOM     29  C   UNL     1       6.292   5.674  18.895  0.00  0.00    +0.000 C 
ATOM     30  C   UNL     1       7.706   6.219  18.734  0.00  0.00    +0.000 C 
ENDBRANCH  22  29
BRANCH  25  31
ATOM     31  O   UNL     1       7.484   4.831  14.465  0.00  0.00    +0.000 OA
ATOM     32  H   UNL     1       7.719   4.606  13.548  0.00  0.00    +0.000 HD
ENDBRANCH  25  31
ENDBRANCH  20  22
ENDBRANCH   5  20
TORSDOF 6
ENDMDL
MODEL 4
REMARK VINA RESULT:      -8.4      1.113      1.544
REMARK  Name = 
REMARK  9 active torsions:
REMARK  status: ('A' for Active; 'I' for Inactive)
REMARK    1  A    between atoms: C_1  and  C_2
REMARK    2  A    between atoms: C_2  and  N_3
REMARK    3  A    between atoms: N_6  and  C_7
REMARK    4  A    between atoms: C_11  and  C_12
REMARK    5  A    between atoms: C_12  and  C_14
REMARK    6  A    between atoms: C_14  and  C_15
REMARK    7  A    between atoms: C_15  and  C_16
REMARK    8  A    between atoms: C_19  and  C_20
REMARK    9  A    between atoms: C_19  and  O_21
REMARK                            x       y       z     vdW  Elec       q    Type
REMARK                         _______ _______ _______ _____ _____    ______ ____
ROOT
ATOM      1  C   UNL     1       0.353  10.354  20.481  0.00  0.00    +0.000 A 
ATOM      2  C   UNL     1       1.036   9.251  21.048  0.00  0.00    +0.000 A 
ATOM      3  C   UNL     1       1.694   8.348  20.214  0.00  0.00    +0.000 A 
ATOM      4  N   UNL     1       2.449   7.218  20.438  0.00  0.00    +0.000 N 
ATOM      5  C   UNL     1       2.923   6.769  19.224  0.00  0.00    +0.000 A 
ATOM      6  N   UNL     1       2.449   7.514  18.251  0.00  0.00    +0.000 NA
ATOM      7  C   UNL     1       1.702   8.493  18.836  0.00  0.00    +0.000 A 
ATOM      8  C   UNL     1       1.022   9.549  18.244  0.00  0.00    +0.000 A 
ATOM      9  C   UNL     1       0.367  10.476  19.062  0.00  0.00    +0.000 A 
ATOM     10 CL   UNL     1      -0.460  11.734  18.190  0.00  0.00    +0.000 Cl
ATOM     11  H   UNL     1       2.681   6.812  21.335  0.00  0.00    +0.000 HD
ENDROOT
BRANCH   1  15
ATOM     12  N   UNL     1      -2.240  12.935  22.749  0.00  0.00    +0.000 NA
ATOM     13  C   UNL     1      -1.874  13.132  21.328  0.00  0.00    +0.000 C 
ATOM     14  C   UNL     1      -0.446  12.671  20.963  0.00  0.00    +0.000 C 
ATOM     15  N   UNL     1      -0.255  11.261  21.346  0.00  0.00    +0.000 N 
ATOM     16  C   UNL     1      -0.674  10.892  22.708  0.00  0.00    +0.000 C 
ATOM     17  C   UNL     1      -2.059  11.495  23.058  0.00  0.00    +0.000 C 
BRANCH  12  19
ATOM     18  C   UNL     1      -1.775  15.253  23.571  0.00  0.00    +0.000 C 
ATOM     19  C   UNL     1      -1.453  13.765  23.674  0.00  0.00    +0.000 C 
ENDBRANCH  12  19
ENDBRANCH   1  15
BRANCH   5  20
ATOM     20  C   UNL     1       3.859   5.664  19.023  0.00  0.00    +0.000 C 
ATOM     21  O   UNL     1       5.038   5.776  19.355  0.00  0.00    +0.000 OA
BRANCH  20  22
ATOM     22  C   UNL     1       3.334   4.397  18.264  0.00  0.00    +0.000 C 
ATOM     23  C   UNL     1       1.790   4.245  18.291  0.00  0.00    +0.000 C 
ATOM     24  C   UNL     1       1.220   3.892  19.663  0.00  0.00    +0.000 C 
ATOM     25  C   UNL     1       1.834   2.614  20.237  0.00  0.00    +0.000 C 
ATOM     26  C   UNL     1       1.331   2.400  21.669  0.00  0.00    +0.000 C 
ATOM     27  C   UNL     1       3.367   2.647  20.196  0.00  0.00    +0.000 C 
ATOM     28  C   UNL     1       3.948   3.098  18.848  0.00  0.00    +0.000 C 
BRANCH  22  29
ATOM     29  C   UNL     1       3.753   4.516  16.760  0.00  0.00    +0.000 C 
ATOM     30  C   UNL     1       5.105   3.915  16.394  0.00  0.00    +0.000 C 
ENDBRANCH  22  29
BRANCH  25  31
ATOM     31  O   UNL     1       1.411   1.502  19.441  0.00  0.00    +0.000 OA
ATOM     32  H   UNL     1       1.768   0.691  19.843  0.00  0.00    +0.000 HD
ENDBRANCH  25  31
ENDBRANCH  20  22
ENDBRANCH   5  20
TORSDOF 6
ENDMDL
MODEL 5
REMARK VINA RESULT:      -8.4      1.010      1.137
REMARK  Name = 
REMARK  9 active torsions:
REMARK  status: ('A' for Active; 'I' for Inactive)
REMARK    1  A    between atoms: C_1  and  C_2
REMARK    2  A    between atoms: C_2  and  N_3
REMARK    3  A    between atoms: N_6  and  C_7
REMARK    4  A    between atoms: C_11  and  C_12
REMARK    5  A    between atoms: C_12  and  C_14
REMARK    6  A    between atoms: C_14  and  C_15
REMARK    7  A    between atoms: C_15  and  C_16
REMARK    8  A    between atoms: C_19  and  C_20
REMARK    9  A    between atoms: C_19  and  O_21
REMARK                            x       y       z     vdW  Elec       q    Type
REMARK                         _______ _______ _______ _____ _____    ______ ____
ROOT
ATOM      1  C   UNL     1       0.104  10.273  20.086  0.00  0.00    +0.000 A 
ATOM      2  C   UNL     1       0.582   9.049  20.614  0.00  0.00    +0.000 A 
ATOM      3  C   UNL     1       1.498   8.296  19.882  0.00  0.00    +0.000 A 
ATOM      4  N   UNL     1       2.159   7.109  20.113  0.00  0.00    +0.000 N 
ATOM      5  C   UNL     1       3.019   6.883  19.060  0.00  0.00    +0.000 A 
ATOM      6  N   UNL     1       2.880   7.825  18.154  0.00  0.00    +0.000 NA
ATOM      7  C   UNL     1       1.961   8.705  18.642  0.00  0.00    +0.000 A 
ATOM      8  C   UNL     1       1.495   9.887  18.082  0.00  0.00    +0.000 A 
ATOM      9  C   UNL     1       0.586  10.667  18.806  0.00  0.00    +0.000 A 
ATOM     10 CL   UNL     1       0.071  12.109  17.979  0.00  0.00    +0.000 Cl
ATOM     11  H   UNL     1       2.088   6.526  20.936  0.00  0.00    +0.000 HD
ENDROOT
BRANCH   1  15
ATOM     12  N   UNL     1      -2.051  13.211  22.377  0.00  0.00    +0.000 NA
ATOM     13  C   UNL     1      -0.782  12.573  22.791  0.00  0.00    +0.000 C 
ATOM     14  C   UNL     1      -0.616  11.109  22.326  0.00  0.00    +0.000 C 
ATOM     15  N   UNL     1      -0.776  11.021  20.864  0.00  0.00    +0.000 N 
ATOM     16  C   UNL     1      -1.949  11.703  20.293  0.00  0.00    +0.000 C 
ATOM     17  C   UNL     1      -2.133  13.119  20.898  0.00  0.00    +0.000 C 
BRANCH  12  19
ATOM     18  C   UNL     1      -3.696  13.330  24.260  0.00  0.00    +0.000 C 
ATOM     19  C   UNL     1      -3.238  12.604  22.998  0.00  0.00    +0.000 C 
ENDBRANCH  12  19
ENDBRANCH   1  15
BRANCH   5  20
ATOM     20  C   UNL     1       3.991   5.796  18.963  0.00  0.00    +0.000 C 
ATOM     21  O   UNL     1       5.124   5.928  19.423  0.00  0.00    +0.000 OA
BRANCH  20  22
ATOM     22  C   UNL     1       3.576   4.521  18.150  0.00  0.00    +0.000 C 
ATOM     23  C   UNL     1       2.042   4.320  18.039  0.00  0.00    +0.000 C 
ATOM     24  C   UNL     1       1.364   3.935  19.352  0.00  0.00    +0.000 C 
ATOM     25  C   UNL     1       1.966   2.671  19.967  0.00  0.00    +0.000 C 
ATOM     26  C   UNL     1       1.346   2.426  21.347  0.00  0.00    +0.000 C 
ATOM     27  C   UNL     1       3.495   2.752  20.063  0.00  0.00    +0.000 C 
ATOM     28  C   UNL     1       4.177   3.235  18.776  0.00  0.00    +0.000 C 
BRANCH  22  29
ATOM     29  C   UNL     1       4.123   4.669  16.690  0.00  0.00    +0.000 C 
ATOM     30  C   UNL     1       5.483   4.038  16.418  0.00  0.00    +0.000 C 
ENDBRANCH  22  29
BRANCH  25  31
ATOM     31  O   UNL     1       1.650   1.555  19.129  0.00  0.00    +0.000 OA
ATOM     32  H   UNL     1       2.410   0.948  19.137  0.00  0.00    +0.000 HD
ENDBRANCH  25  31
ENDBRANCH  20  22
ENDBRANCH   5  20
TORSDOF 6
ENDMDL
MODEL 6
REMARK VINA RESULT:      -8.2      2.332      3.874
REMARK  Name = 
REMARK  9 active torsions:
REMARK  status: ('A' for Active; 'I' for Inactive)
REMARK    1  A    between atoms: C_1  and  C_2
REMARK    2  A    between atoms: C_2  and  N_3
REMARK    3  A    between atoms: N_6  and  C_7
REMARK    4  A    between atoms: C_11  and  C_12
REMARK    5  A    between atoms: C_12  and  C_14
REMARK    6  A    between atoms: C_14  and  C_15
REMARK    7  A    between atoms: C_15  and  C_16
REMARK    8  A    between atoms: C_19  and  C_20
REMARK    9  A    between atoms: C_19  and  O_21
REMARK                            x       y       z     vdW  Elec       q    Type
REMARK                         _______ _______ _______ _____ _____    ______ ____
ROOT
ATOM      1  C   UNL     1       0.735   9.887  20.162  0.00  0.00    +0.000 A 
ATOM      2  C   UNL     1       1.507   9.501  19.039  0.00  0.00    +0.000 A 
ATOM      3  C   UNL     1       2.086   8.234  19.007  0.00  0.00    +0.000 A 
ATOM      4  N   UNL     1       2.852   7.557  18.083  0.00  0.00    +0.000 N 
ATOM      5  C   UNL     1       3.075   6.283  18.558  0.00  0.00    +0.000 A 
ATOM      6  N   UNL     1       2.553   6.151  19.757  0.00  0.00    +0.000 NA
ATOM      7  C   UNL     1       1.934   7.330  20.046  0.00  0.00    +0.000 A 
ATOM      8  C   UNL     1       1.204   7.684  21.173  0.00  0.00    +0.000 A 
ATOM      9  C   UNL     1       0.601   8.946  21.222  0.00  0.00    +0.000 A 
ATOM     10 CL   UNL     1      -0.263   9.265  22.697  0.00  0.00    +0.000 Cl
ATOM     11  H   UNL     1       3.151   7.897  17.178  0.00  0.00    +0.000 HD
ENDROOT
BRANCH   1  15
ATOM     12  N   UNL     1      -1.705  13.407  20.597  0.00  0.00    +0.000 NA
ATOM     13  C   UNL     1      -2.081  12.201  19.826  0.00  0.00    +0.000 C 
ATOM     14  C   UNL     1      -0.897  11.479  19.144  0.00  0.00    +0.000 C 
ATOM     15  N   UNL     1       0.134  11.144  20.141  0.00  0.00    +0.000 N 
ATOM     16  C   UNL     1       0.536  12.226  21.054  0.00  0.00    +0.000 C 
ATOM     17  C   UNL     1      -0.694  12.993  21.602  0.00  0.00    +0.000 C 
BRANCH  12  19
ATOM     18  C   UNL     1      -1.184  15.851  20.461  0.00  0.00    +0.000 C 
ATOM     19  C   UNL     1      -1.184  14.496  19.758  0.00  0.00    +0.000 C 
ENDBRANCH  12  19
ENDBRANCH   1  15
BRANCH   5  20
ATOM     20  C   UNL     1       3.744   5.202  17.836  0.00  0.00    +0.000 C 
ATOM     21  O   UNL     1       3.109   4.223  17.450  0.00  0.00    +0.000 OA
BRANCH  20  22
ATOM     22  C   UNL     1       5.303   5.284  17.688  0.00  0.00    +0.000 C 
ATOM     23  C   UNL     1       5.779   6.326  16.641  0.00  0.00    +0.000 C 
ATOM     24  C   UNL     1       5.472   5.946  15.195  0.00  0.00    +0.000 C 
ATOM     25  C   UNL     1       6.059   4.587  14.813  0.00  0.00    +0.000 C 
ATOM     26  C   UNL     1       5.592   4.201  13.406  0.00  0.00    +0.000 C 
ATOM     27  C   UNL     1       5.691   3.497  15.829  0.00  0.00    +0.000 C 
ATOM     28  C   UNL     1       5.902   3.909  17.293  0.00  0.00    +0.000 C 
BRANCH  22  29
ATOM     29  C   UNL     1       5.907   5.715  19.067  0.00  0.00    +0.000 C 
ATOM     30  C   UNL     1       7.428   5.764  19.144  0.00  0.00    +0.000 C 
ENDBRANCH  22  29
BRANCH  25  31
ATOM     31  O   UNL     1       7.487   4.689  14.799  0.00  0.00    +0.000 OA
ATOM     32  H   UNL     1       7.721   5.623  14.661  0.00  0.00    +0.000 HD
ENDBRANCH  25  31
ENDBRANCH  20  22
ENDBRANCH   5  20
TORSDOF 6
ENDMDL
MODEL 7
REMARK VINA RESULT:      -8.2      2.249      3.973
REMARK  Name = 
REMARK  9 active torsions:
REMARK  status: ('A' for Active; 'I' for Inactive)
REMARK    1  A    between atoms: C_1  and  C_2
REMARK    2  A    between atoms: C_2  and  N_3
REMARK    3  A    between atoms: N_6  and  C_7
REMARK    4  A    between atoms: C_11  and  C_12
REMARK    5  A    between atoms: C_12  and  C_14
REMARK    6  A    between atoms: C_14  and  C_15
REMARK    7  A    between atoms: C_15  and  C_16
REMARK    8  A    between atoms: C_19  and  C_20
REMARK    9  A    between atoms: C_19  and  O_21
REMARK                            x       y       z     vdW  Elec       q    Type
REMARK                         _______ _______ _______ _____ _____    ______ ____
ROOT
ATOM      1  C   UNL     1       0.883  10.564  20.000  0.00  0.00    +0.000 A 
ATOM      2  C   UNL     1       1.457   9.859  18.915  0.00  0.00    +0.000 A 
ATOM      3  C   UNL     1       1.754   8.504  19.055  0.00  0.00    +0.000 A 
ATOM      4  N   UNL     1       2.279   7.549  18.212  0.00  0.00    +0.000 N 
ATOM      5  C   UNL     1       2.272   6.340  18.873  0.00  0.00    +0.000 A 
ATOM      6  N   UNL     1       1.840   6.501  20.104  0.00  0.00    +0.000 NA
ATOM      7  C   UNL     1       1.508   7.817  20.233  0.00  0.00    +0.000 A 
ATOM      8  C   UNL     1       0.969   8.482  21.326  0.00  0.00    +0.000 A 
ATOM      9  C   UNL     1       0.649   9.839  21.203  0.00  0.00    +0.000 A 
ATOM     10 CL   UNL     1       0.001  10.550  22.653  0.00  0.00    +0.000 Cl
ATOM     11  H   UNL     1       2.562   7.680  17.250  0.00  0.00    +0.000 HD
ENDROOT
BRANCH   1  15
ATOM     12  N   UNL     1      -0.578  14.611  20.124  0.00  0.00    +0.000 NA
ATOM     13  C   UNL     1      -1.400  13.418  19.818  0.00  0.00    +0.000 C 
ATOM     14  C   UNL     1      -0.650  12.298  19.064  0.00  0.00    +0.000 C 
ATOM     15  N   UNL     1       0.557  11.905  19.810  0.00  0.00    +0.000 N 
ATOM     16  C   UNL     1       1.425  13.000  20.273  0.00  0.00    +0.000 C 
ATOM     17  C   UNL     1       0.598  14.151  20.903  0.00  0.00    +0.000 C 
BRANCH  12  19
ATOM     18  C   UNL     1      -0.672  16.778  18.875  0.00  0.00    +0.000 C 
ATOM     19  C   UNL     1      -0.148  15.346  18.924  0.00  0.00    +0.000 C 
ENDBRANCH  12  19
ENDBRANCH   1  15
BRANCH   5  20
ATOM     20  C   UNL     1       2.636   5.045  18.300  0.00  0.00    +0.000 C 
ATOM     21  O   UNL     1       1.930   4.523  17.439  0.00  0.00    +0.000 OA
BRANCH  20  22
ATOM     22  C   UNL     1       3.876   4.304  18.908  0.00  0.00    +0.000 C 
ATOM     23  C   UNL     1       5.050   5.249  19.281  0.00  0.00    +0.000 C 
ATOM     24  C   UNL     1       5.767   5.861  18.080  0.00  0.00    +0.000 C 
ATOM     25  C   UNL     1       6.299   4.798  17.117  0.00  0.00    +0.000 C 
ATOM     26  C   UNL     1       6.872   5.476  15.868  0.00  0.00    +0.000 C 
ATOM     27  C   UNL     1       5.219   3.777  16.736  0.00  0.00    +0.000 C 
ATOM     28  C   UNL     1       4.425   3.231  17.932  0.00  0.00    +0.000 C 
BRANCH  22  29
ATOM     29  C   UNL     1       3.426   3.595  20.229  0.00  0.00    +0.000 C 
ATOM     30  C   UNL     1       2.384   2.494  20.075  0.00  0.00    +0.000 C 
ENDBRANCH  22  29
BRANCH  25  31
ATOM     31  O   UNL     1       7.355   4.079  17.762  0.00  0.00    +0.000 OA
ATOM     32  H   UNL     1       8.121   4.674  17.839  0.00  0.00    +0.000 HD
ENDBRANCH  25  31
ENDBRANCH  20  22
ENDBRANCH   5  20
TORSDOF 6
ENDMDL
MODEL 8
REMARK VINA RESULT:      -8.2      2.243      4.043
REMARK  Name = 
REMARK  9 active torsions:
REMARK  status: ('A' for Active; 'I' for Inactive)
REMARK    1  A    between atoms: C_1  and  C_2
REMARK    2  A    between atoms: C_2  and  N_3
REMARK    3  A    between atoms: N_6  and  C_7
REMARK    4  A    between atoms: C_11  and  C_12
REMARK    5  A    between atoms: C_12  and  C_14
REMARK    6  A    between atoms: C_14  and  C_15
REMARK    7  A    between atoms: C_15  and  C_16
REMARK    8  A    between atoms: C_19  and  C_20
REMARK    9  A    between atoms: C_19  and  O_21
REMARK                            x       y       z     vdW  Elec       q    Type
REMARK                         _______ _______ _______ _____ _____    ______ ____
ROOT
ATOM      1  C   UNL     1       0.914  10.390  20.064  0.00  0.00    +0.000 A 
ATOM      2  C   UNL     1       1.466   9.691  18.963  0.00  0.00    +0.000 A 
ATOM      3  C   UNL     1       1.773   8.337  19.094  0.00  0.00    +0.000 A 
ATOM      4  N   UNL     1       2.282   7.387  18.236  0.00  0.00    +0.000 N 
ATOM      5  C   UNL     1       2.296   6.176  18.895  0.00  0.00    +0.000 A 
ATOM      6  N   UNL     1       1.891   6.332  20.135  0.00  0.00    +0.000 NA
ATOM      7  C   UNL     1       1.556   7.646  20.275  0.00  0.00    +0.000 A 
ATOM      8  C   UNL     1       1.039   8.306  21.382  0.00  0.00    +0.000 A 
ATOM      9  C   UNL     1       0.710   9.662  21.270  0.00  0.00    +0.000 A 
ATOM     10 CL   UNL     1       0.093  10.367  22.735  0.00  0.00    +0.000 Cl
ATOM     11  H   UNL     1       2.543   7.521  17.268  0.00  0.00    +0.000 HD
ENDROOT
BRANCH   1  15
ATOM     12  N   UNL     1       0.301  14.452  18.778  0.00  0.00    +0.000 NA
ATOM     13  C   UNL     1       1.595  13.886  19.221  0.00  0.00    +0.000 C 
ATOM     14  C   UNL     1       1.481  12.808  20.322  0.00  0.00    +0.000 C 
ATOM     15  N   UNL     1       0.578  11.730  19.884  0.00  0.00    +0.000 N 
ATOM     16  C   UNL     1      -0.715  12.150  19.320  0.00  0.00    +0.000 C 
ATOM     17  C   UNL     1      -0.544  13.322  18.319  0.00  0.00    +0.000 C 
BRANCH  12  19
ATOM     18  C   UNL     1       0.385  16.459  20.271  0.00  0.00    +0.000 C 
ATOM     19  C   UNL     1      -0.388  15.221  19.825  0.00  0.00    +0.000 C 
ENDBRANCH  12  19
ENDBRANCH   1  15
BRANCH   5  20
ATOM     20  C   UNL     1       2.652   4.884  18.310  0.00  0.00    +0.000 C 
ATOM     21  O   UNL     1       1.928   4.360  17.466  0.00  0.00    +0.000 OA
BRANCH  20  22
ATOM     22  C   UNL     1       3.911   4.149  18.886  0.00  0.00    +0.000 C 
ATOM     23  C   UNL     1       5.044   5.107  19.340  0.00  0.00    +0.000 C 
ATOM     24  C   UNL     1       5.754   5.825  18.194  0.00  0.00    +0.000 C 
ATOM     25  C   UNL     1       6.337   4.850  17.170  0.00  0.00    +0.000 C 
ATOM     26  C   UNL     1       6.901   5.632  15.979  0.00  0.00    +0.000 C 
ATOM     27  C   UNL     1       5.301   3.819  16.705  0.00  0.00    +0.000 C 
ATOM     28  C   UNL     1       4.512   3.165  17.848  0.00  0.00    +0.000 C 
BRANCH  22  29
ATOM     29  C   UNL     1       3.470   3.335  20.149  0.00  0.00    +0.000 C 
ATOM     30  C   UNL     1       2.156   2.573  20.027  0.00  0.00    +0.000 C 
ENDBRANCH  22  29
BRANCH  25  31
ATOM     31  O   UNL     1       7.411   4.128  17.782  0.00  0.00    +0.000 OA
ATOM     32  H   UNL     1       7.914   3.683  17.078  0.00  0.00    +0.000 HD
ENDBRANCH  25  31
ENDBRANCH  20  22
ENDBRANCH   5  20
TORSDOF 6
ENDMDL
MODEL 9
REMARK VINA RESULT:      -8.1      3.633      9.437
REMARK  Name = 
REMARK  9 active torsions:
REMARK  status: ('A' for Active; 'I' for Inactive)
REMARK    1  A    between atoms: C_1  and  C_2
REMARK    2  A    between atoms: C_2  and  N_3
REMARK    3  A    between atoms: N_6  and  C_7
REMARK    4  A    between atoms: C_11  and  C_12
REMARK    5  A    between atoms: C_12  and  C_14
REMARK    6  A    between atoms: C_14  and  C_15
REMARK    7  A    between atoms: C_15  and  C_16
REMARK    8  A    between atoms: C_19  and  C_20
REMARK    9  A    between atoms: C_19  and  O_21
REMARK                            x       y       z     vdW  Elec       q    Type
REMARK                         _______ _______ _______ _____ _____    ______ ____
ROOT
ATOM      1  C   UNL     1       3.732   6.309  18.008  0.00  0.00    +0.000 A 
ATOM      2  C   UNL     1       3.181   7.596  17.802  0.00  0.00    +0.000 A 
ATOM      3  C   UNL     1       2.325   8.139  18.759  0.00  0.00    +0.000 A 
ATOM      4  N   UNL     1       1.658   9.339  18.873  0.00  0.00    +0.000 N 
ATOM      5  C   UNL     1       1.013   9.359  20.090  0.00  0.00    +0.000 A 
ATOM      6  N   UNL     1       1.181   8.212  20.710  0.00  0.00    +0.000 NA
ATOM      7  C   UNL     1       1.990   7.454  19.916  0.00  0.00    +0.000 A 
ATOM      8  C   UNL     1       2.493   6.179  20.140  0.00  0.00    +0.000 A 
ATOM      9  C   UNL     1       3.365   5.621  19.200  0.00  0.00    +0.000 A 
ATOM     10 CL   UNL     1       3.902   4.014  19.595  0.00  0.00    +0.000 Cl
ATOM     11  H   UNL     1       1.681  10.110  18.218  0.00  0.00    +0.000 HD
ENDROOT
BRANCH   1  15
ATOM     12  N   UNL     1       6.858   4.428  15.722  0.00  0.00    +0.000 NA
ATOM     13  C   UNL     1       7.046   5.576  16.638  0.00  0.00    +0.000 C 
ATOM     14  C   UNL     1       5.847   6.549  16.703  0.00  0.00    +0.000 C 
ATOM     15  N   UNL     1       4.619   5.816  17.053  0.00  0.00    +0.000 N 
ATOM     16  C   UNL     1       4.352   4.586  16.290  0.00  0.00    +0.000 C 
ATOM     17  C   UNL     1       5.628   3.716  16.150  0.00  0.00    +0.000 C 
BRANCH  12  19
ATOM     18  C   UNL     1       6.186   3.725  13.416  0.00  0.00    +0.000 C 
ATOM     19  C   UNL     1       6.763   4.820  14.308  0.00  0.00    +0.000 C 
ENDBRANCH  12  19
ENDBRANCH   1  15
BRANCH   5  20
ATOM     20  C   UNL     1       0.285  10.493  20.658  0.00  0.00    +0.000 C 
ATOM     21  O   UNL     1       0.380  10.759  21.855  0.00  0.00    +0.000 OA
BRANCH  20  22
ATOM     22  C   UNL     1      -0.702  11.267  19.718  0.00  0.00    +0.000 C 
ATOM     23  C   UNL     1       0.007  12.163  18.666  0.00  0.00    +0.000 C 
ATOM     24  C   UNL     1       0.705  13.387  19.255  0.00  0.00    +0.000 C 
ATOM     25  C   UNL     1      -0.249  14.266  20.064  0.00  0.00    +0.000 C 
ATOM     26  C   UNL     1       0.541  15.389  20.746  0.00  0.00    +0.000 C 
ATOM     27  C   UNL     1      -1.043  13.454  21.095  0.00  0.00    +0.000 C 
ATOM     28  C   UNL     1      -1.665  12.168  20.534  0.00  0.00    +0.000 C 
BRANCH  22  29
ATOM     29  C   UNL     1      -1.550  10.218  18.924  0.00  0.00    +0.000 C 
ATOM     30  C   UNL     1      -1.810  10.540  17.458  0.00  0.00    +0.000 C 
ENDBRANCH  22  29
BRANCH  25  31
ATOM     31  O   UNL     1      -1.195  14.862  19.171  0.00  0.00    +0.000 OA
ATOM     32  H   UNL     1      -0.788  15.657  18.786  0.00  0.00    +0.000 HD
ENDBRANCH  25  31
ENDBRANCH  20  22
ENDBRANCH   5  20
TORSDOF 6
ENDMDL
