MODEL 1
REMARK VINA RESULT:      -7.2      0.000      0.000
REMARK  Name = 
REMARK  5 active torsions:
REMARK  status: ('A' for Active; 'I' for Inactive)
REMARK    1  A    between atoms: C_1  and  C_2
REMARK    2  A    between atoms: C_2  and  C_3
REMARK    3  A    between atoms: C_2  and  C_4
REMARK    4  A    between atoms: C_4  and  N_5
REMARK    5  A    between atoms: C_15  and  N_16
REMARK                            x       y       z     vdW  Elec       q    Type
REMARK                         _______ _______ _______ _____ _____    ______ ____
ROOT
ATOM      1  N   UNL     1       3.919   3.844  17.669  0.00  0.00    +0.000 N 
ATOM      2  C   UNL     1       4.058   2.505  17.936  0.00  0.00    +0.000 A 
ATOM      3  N   UNL     1       3.604   2.191  19.122  0.00  0.00    +0.000 NA
ATOM      4  C   UNL     1       3.104   3.372  19.634  0.00  0.00    +0.000 A 
ATOM      5  C   UNL     1       2.501   3.595  20.889  0.00  0.00    +0.000 A 
ATOM      6  N   UNL     1       2.394   2.603  21.857  0.00  0.00    +0.000 N 
ATOM      7  N   UNL     1       1.984   4.807  21.175  0.00  0.00    +0.000 NA
ATOM      8  C   UNL     1       2.092   5.815  20.299  0.00  0.00    +0.000 A 
ATOM      9  C   UNL     1       1.557   7.039  20.666  0.00  0.00    +0.000 A 
ATOM     10  C   UNL     1       1.638   8.165  19.840  0.00  0.00    +0.000 A 
ATOM     11  C   UNL     1       2.230   8.079  18.584  0.00  0.00    +0.000 A 
ATOM     12  C   UNL     1       2.810   6.867  18.206  0.00  0.00    +0.000 A 
ATOM     13  C   UNL     1       2.727   5.721  19.035  0.00  0.00    +0.000 A 
ATOM     14  C   UNL     1       3.239   4.426  18.721  0.00  0.00    +0.000 A 
ATOM     15  H   UNL     1       2.476   1.669  21.472  0.00  0.00    +0.000 HD
ATOM     16  H   UNL     1       1.638   2.791  22.501  0.00  0.00    +0.000 HD
ENDROOT
BRANCH  11  17
ATOM     17  N   UNL     1       2.450   9.235  17.828  0.00  0.00    +0.000 N 
ATOM     18  H   UNL     1       1.608   9.627  17.417  0.00  0.00    +0.000 HD
ATOM     19  H   UNL     1       3.208   9.163  17.158  0.00  0.00    +0.000 HD
ENDBRANCH  11  17
BRANCH   1  20
ATOM     20  C   UNL     1       4.420   4.441  16.448  0.00  0.00    +0.000 C 
BRANCH  20  22
ATOM     21  C   UNL     1       5.913   4.064  14.466  0.00  0.00    +0.000 C 
ATOM     22  C   UNL     1       5.785   3.896  15.982  0.00  0.00    +0.000 C 
ATOM     23  C   UNL     1       6.986   4.554  16.664  0.00  0.00    +0.000 C 
ENDBRANCH  20  22
ENDBRANCH   1  20
TORSDOF 3
ENDMDL
MODEL 2
REMARK VINA RESULT:      -7.2      2.958      5.336
REMARK  Name = 
REMARK  5 active torsions:
REMARK  status: ('A' for Active; 'I' for Inactive)
REMARK    1  A    between atoms: C_1  and  C_2
REMARK    2  A    between atoms: C_2  and  C_3
REMARK    3  A    between atoms: C_2  and  C_4
REMARK    4  A    between atoms: C_4  and  N_5
REMARK    5  A    between atoms: C_15  and  N_16
REMARK                            x       y       z     vdW  Elec       q    Type
REMARK                         _______ _______ _______ _____ _____    ______ ____
ROOT
ATOM      1  N   UNL     1       6.028   4.060  14.366  0.00  0.00    +0.000 N 
ATOM      2  C   UNL     1       7.078   4.751  13.816  0.00  0.00    +0.000 A 
ATOM      3  N   UNL     1       7.582   5.624  14.651  0.00  0.00    +0.000 NA
ATOM      4  C   UNL     1       6.857   5.461  15.815  0.00  0.00    +0.000 A 
ATOM      5  C   UNL     1       6.989   6.160  17.033  0.00  0.00    +0.000 A 
ATOM      6  N   UNL     1       7.877   7.217  17.199  0.00  0.00    +0.000 N 
ATOM      7  N   UNL     1       6.247   5.792  18.097  0.00  0.00    +0.000 NA
ATOM      8  C   UNL     1       5.345   4.807  17.987  0.00  0.00    +0.000 A 
ATOM      9  C   UNL     1       4.603   4.494  19.114  0.00  0.00    +0.000 A 
ATOM     10  C   UNL     1       3.615   3.503  19.104  0.00  0.00    +0.000 A 
ATOM     11  C   UNL     1       3.373   2.758  17.956  0.00  0.00    +0.000 A 
ATOM     12  C   UNL     1       4.082   3.079  16.796  0.00  0.00    +0.000 A 
ATOM     13  C   UNL     1       5.087   4.077  16.800  0.00  0.00    +0.000 A 
ATOM     14  C   UNL     1       5.901   4.444  15.687  0.00  0.00    +0.000 A 
ATOM     15  H   UNL     1       8.619   7.216  16.510  0.00  0.00    +0.000 HD
ATOM     16  H   UNL     1       8.124   7.345  18.170  0.00  0.00    +0.000 HD
ENDROOT
BRANCH  11  17
ATOM     17  N   UNL     1       2.286   1.880  17.900  0.00  0.00    +0.000 N 
ATOM     18  H   UNL     1       1.433   2.251  18.306  0.00  0.00    +0.000 HD
ATOM     19  H   UNL     1       2.487   0.938  18.220  0.00  0.00    +0.000 HD
ENDBRANCH  11  17
BRANCH   1  20
ATOM     20  C   UNL     1       5.261   3.094  13.606  0.00  0.00    +0.000 C 
BRANCH  20  22
ATOM     21  C   UNL     1       6.126   1.962  11.539  0.00  0.00    +0.000 C 
ATOM     22  C   UNL     1       5.421   3.211  12.077  0.00  0.00    +0.000 C 
ATOM     23  C   UNL     1       4.104   3.408  11.324  0.00  0.00    +0.000 C 
ENDBRANCH  20  22
ENDBRANCH   1  20
TORSDOF 3
ENDMDL
MODEL 3
REMARK VINA RESULT:      -7.1      2.557      5.540
REMARK  Name = 
REMARK  5 active torsions:
REMARK  status: ('A' for Active; 'I' for Inactive)
REMARK    1  A    between atoms: C_1  and  C_2
REMARK    2  A    between atoms: C_2  and  C_3
REMARK    3  A    between atoms: C_2  and  C_4
REMARK    4  A    between atoms: C_4  and  N_5
REMARK    5  A    between atoms: C_15  and  N_16
REMARK                            x       y       z     vdW  Elec       q    Type
REMARK                         _______ _______ _______ _____ _____    ______ ____
ROOT
ATOM      1  N   UNL     1       3.691   4.421  18.154  0.00  0.00    +0.000 N 
ATOM      2  C   UNL     1       3.704   4.770  19.482  0.00  0.00    +0.000 A 
ATOM      3  N   UNL     1       4.896   5.132  19.883  0.00  0.00    +0.000 NA
ATOM      4  C   UNL     1       5.686   5.062  18.753  0.00  0.00    +0.000 A 
ATOM      5  C   UNL     1       7.062   5.344  18.629  0.00  0.00    +0.000 A 
ATOM      6  N   UNL     1       7.860   5.681  19.717  0.00  0.00    +0.000 N 
ATOM      7  N   UNL     1       7.644   5.309  17.413  0.00  0.00    +0.000 NA
ATOM      8  C   UNL     1       6.937   4.951  16.332  0.00  0.00    +0.000 A 
ATOM      9  C   UNL     1       7.602   4.917  15.118  0.00  0.00    +0.000 A 
ATOM     10  C   UNL     1       6.968   4.531  13.932  0.00  0.00    +0.000 A 
ATOM     11  C   UNL     1       5.616   4.206  13.927  0.00  0.00    +0.000 A 
ATOM     12  C   UNL     1       4.932   4.197  15.144  0.00  0.00    +0.000 A 
ATOM     13  C   UNL     1       5.566   4.592  16.348  0.00  0.00    +0.000 A 
ATOM     14  C   UNL     1       4.945   4.667  17.631  0.00  0.00    +0.000 A 
ATOM     15  H   UNL     1       7.323   6.019  20.506  0.00  0.00    +0.000 HD
ATOM     16  H   UNL     1       8.676   6.205  19.432  0.00  0.00    +0.000 HD
ENDROOT
BRANCH  11  17
ATOM     17  N   UNL     1       5.023   3.673  12.778  0.00  0.00    +0.000 N 
ATOM     18  H   UNL     1       4.228   3.070  12.964  0.00  0.00    +0.000 HD
ATOM     19  H   UNL     1       5.675   3.258  12.120  0.00  0.00    +0.000 HD
ENDBRANCH  11  17
BRANCH   1  20
ATOM     20  C   UNL     1       2.500   3.914  17.504  0.00  0.00    +0.000 C 
BRANCH  20  22
ATOM     21  C   UNL     1       3.474   1.694  18.157  0.00  0.00    +0.000 C 
ATOM     22  C   UNL     1       2.180   2.439  17.819  0.00  0.00    +0.000 C 
ATOM     23  C   UNL     1       1.177   2.246  18.959  0.00  0.00    +0.000 C 
ENDBRANCH  20  22
ENDBRANCH   1  20
TORSDOF 3
ENDMDL
MODEL 4
REMARK VINA RESULT:      -7.1      1.894      3.006
REMARK  Name = 
REMARK  5 active torsions:
REMARK  status: ('A' for Active; 'I' for Inactive)
REMARK    1  A    between atoms: C_1  and  C_2
REMARK    2  A    between atoms: C_2  and  C_3
REMARK    3  A    between atoms: C_2  and  C_4
REMARK    4  A    between atoms: C_4  and  N_5
REMARK    5  A    between atoms: C_15  and  N_16
REMARK                            x       y       z     vdW  Elec       q    Type
REMARK                         _______ _______ _______ _____ _____    ______ ____
ROOT
ATOM      1  N   UNL     1       5.381   5.301  17.234  0.00  0.00    +0.000 N 
ATOM      2  C   UNL     1       5.975   4.370  16.419  0.00  0.00    +0.000 A 
ATOM      3  N   UNL     1       5.500   3.167  16.620  0.00  0.00    +0.000 NA
ATOM      4  C   UNL     1       4.518   3.329  17.577  0.00  0.00    +0.000 A 
ATOM      5  C   UNL     1       3.694   2.344  18.159  0.00  0.00    +0.000 A 
ATOM      6  N   UNL     1       3.826   0.990  17.874  0.00  0.00    +0.000 N 
ATOM      7  N   UNL     1       2.719   2.711  19.016  0.00  0.00    +0.000 NA
ATOM      8  C   UNL     1       2.568   3.997  19.361  0.00  0.00    +0.000 A 
ATOM      9  C   UNL     1       1.560   4.301  20.261  0.00  0.00    +0.000 A 
ATOM     10  C   UNL     1       1.331   5.606  20.711  0.00  0.00    +0.000 A 
ATOM     11  C   UNL     1       2.094   6.663  20.228  0.00  0.00    +0.000 A 
ATOM     12  C   UNL     1       3.140   6.379  19.349  0.00  0.00    +0.000 A 
ATOM     13  C   UNL     1       3.373   5.061  18.884  0.00  0.00    +0.000 A 
ATOM     14  C   UNL     1       4.380   4.673  17.949  0.00  0.00    +0.000 A 
ATOM     15  H   UNL     1       4.314   0.820  17.002  0.00  0.00    +0.000 HD
ATOM     16  H   UNL     1       2.967   0.487  18.049  0.00  0.00    +0.000 HD
ENDROOT
BRANCH  11  17
ATOM     17  N   UNL     1       1.970   7.937  20.792  0.00  0.00    +0.000 N 
ATOM     18  H   UNL     1       2.784   8.237  21.320  0.00  0.00    +0.000 HD
ATOM     19  H   UNL     1       1.104   8.093  21.297  0.00  0.00    +0.000 HD
ENDBRANCH  11  17
BRANCH   1  20
ATOM     20  C   UNL     1       5.795   6.689  17.246  0.00  0.00    +0.000 C 
BRANCH  20  22
ATOM     21  C   UNL     1       7.596   8.405  17.585  0.00  0.00    +0.000 C 
ATOM     22  C   UNL     1       7.297   6.905  17.524  0.00  0.00    +0.000 C 
ATOM     23  C   UNL     1       7.797   6.240  18.808  0.00  0.00    +0.000 C 
ENDBRANCH  20  22
ENDBRANCH   1  20
TORSDOF 3
ENDMDL
MODEL 5
REMARK VINA RESULT:      -7.0      2.677      5.627
REMARK  Name = 
REMARK  5 active torsions:
REMARK  status: ('A' for Active; 'I' for Inactive)
REMARK    1  A    between atoms: C_1  and  C_2
REMARK    2  A    between atoms: C_2  and  C_3
REMARK    3  A    between atoms: C_2  and  C_4
REMARK    4  A    between atoms: C_4  and  N_5
REMARK    5  A    between atoms: C_15  and  N_16
REMARK                            x       y       z     vdW  Elec       q    Type
REMARK                         _______ _______ _______ _____ _____    ______ ____
ROOT
ATOM      1  N   UNL     1       4.232   3.417  18.227  0.00  0.00    +0.000 N 
ATOM      2  C   UNL     1       4.274   3.652  19.579  0.00  0.00    +0.000 A 
ATOM      3  N   UNL     1       5.350   4.309  19.930  0.00  0.00    +0.000 NA
ATOM      4  C   UNL     1       6.017   4.554  18.746  0.00  0.00    +0.000 A 
ATOM      5  C   UNL     1       7.242   5.227  18.556  0.00  0.00    +0.000 A 
ATOM      6  N   UNL     1       8.014   5.694  19.614  0.00  0.00    +0.000 N 
ATOM      7  N   UNL     1       7.692   5.453  17.305  0.00  0.00    +0.000 NA
ATOM      8  C   UNL     1       7.013   4.991  16.246  0.00  0.00    +0.000 A 
ATOM      9  C   UNL     1       7.542   5.242  14.991  0.00  0.00    +0.000 A 
ATOM     10  C   UNL     1       6.931   4.783  13.819  0.00  0.00    +0.000 A 
ATOM     11  C   UNL     1       5.729   4.085  13.876  0.00  0.00    +0.000 A 
ATOM     12  C   UNL     1       5.194   3.788  15.130  0.00  0.00    +0.000 A 
ATOM     13  C   UNL     1       5.804   4.255  16.320  0.00  0.00    +0.000 A 
ATOM     14  C   UNL     1       5.312   4.050  17.645  0.00  0.00    +0.000 A 
ATOM     15  H   UNL     1       7.481   5.803  20.469  0.00  0.00    +0.000 HD
ATOM     16  H   UNL     1       8.620   6.450  19.327  0.00  0.00    +0.000 HD
ENDROOT
BRANCH  11  17
ATOM     17  N   UNL     1       5.202   3.494  12.723  0.00  0.00    +0.000 N 
ATOM     18  H   UNL     1       5.606   2.590  12.500  0.00  0.00    +0.000 HD
ATOM     19  H   UNL     1       5.158   4.107  11.916  0.00  0.00    +0.000 HD
ENDBRANCH  11  17
BRANCH   1  20
ATOM     20  C   UNL     1       3.173   2.641  17.614  0.00  0.00    +0.000 C 
BRANCH  20  22
ATOM     21  C   UNL     1       0.962   2.677  18.801  0.00  0.00    +0.000 C 
ATOM     22  C   UNL     1       1.782   3.302  17.669  0.00  0.00    +0.000 C 
ATOM     23  C   UNL     1       1.818   4.821  17.855  0.00  0.00    +0.000 C 
ENDBRANCH  20  22
ENDBRANCH   1  20
TORSDOF 3
ENDMDL
MODEL 6
REMARK VINA RESULT:      -6.8      1.693      4.778
REMARK  Name = 
REMARK  5 active torsions:
REMARK  status: ('A' for Active; 'I' for Inactive)
REMARK    1  A    between atoms: C_1  and  C_2
REMARK    2  A    between atoms: C_2  and  C_3
REMARK    3  A    between atoms: C_2  and  C_4
REMARK    4  A    between atoms: C_4  and  N_5
REMARK    5  A    between atoms: C_15  and  N_16
REMARK                            x       y       z     vdW  Elec       q    Type
REMARK                         _______ _______ _______ _____ _____    ______ ____
ROOT
ATOM      1  N   UNL     1       2.094   5.959  19.805  0.00  0.00    +0.000 N 
ATOM      2  C   UNL     1       1.118   5.318  20.527  0.00  0.00    +0.000 A 
ATOM      3  N   UNL     1       0.986   4.066  20.171  0.00  0.00    +0.000 NA
ATOM      4  C   UNL     1       1.953   3.869  19.205  0.00  0.00    +0.000 A 
ATOM      5  C   UNL     1       2.240   2.692  18.483  0.00  0.00    +0.000 A 
ATOM      6  N   UNL     1       1.489   1.529  18.613  0.00  0.00    +0.000 N 
ATOM      7  N   UNL     1       3.293   2.666  17.641  0.00  0.00    +0.000 NA
ATOM      8  C   UNL     1       4.030   3.767  17.442  0.00  0.00    +0.000 A 
ATOM      9  C   UNL     1       5.084   3.676  16.548  0.00  0.00    +0.000 A 
ATOM     10  C   UNL     1       5.901   4.770  16.245  0.00  0.00    +0.000 A 
ATOM     11  C   UNL     1       5.704   5.994  16.875  0.00  0.00    +0.000 A 
ATOM     12  C   UNL     1       4.626   6.123  17.752  0.00  0.00    +0.000 A 
ATOM     13  C   UNL     1       3.798   5.018  18.068  0.00  0.00    +0.000 A 
ATOM     14  C   UNL     1       2.706   5.030  18.987  0.00  0.00    +0.000 A 
ATOM     15  H   UNL     1       0.958   1.501  19.476  0.00  0.00    +0.000 HD
ATOM     16  H   UNL     1       2.021   0.711  18.350  0.00  0.00    +0.000 HD
ENDROOT
BRANCH  11  17
ATOM     17  N   UNL     1       6.417   7.124  16.459  0.00  0.00    +0.000 N 
ATOM     18  H   UNL     1       6.606   7.790  17.201  0.00  0.00    +0.000 HD
ATOM     19  H   UNL     1       6.052   7.570  15.624  0.00  0.00    +0.000 HD
ENDBRANCH  11  17
BRANCH   1  20
ATOM     20  C   UNL     1       2.370   7.372  19.970  0.00  0.00    +0.000 C 
BRANCH  20  22
ATOM     21  C   UNL     1       0.955   9.445  19.943  0.00  0.00    +0.000 C 
ATOM     22  C   UNL     1       1.505   8.298  19.091  0.00  0.00    +0.000 C 
ATOM     23  C   UNL     1       2.241   8.879  17.882  0.00  0.00    +0.000 C 
ENDBRANCH  20  22
ENDBRANCH   1  20
TORSDOF 3
ENDMDL
MODEL 7
REMARK VINA RESULT:      -6.8      2.929      5.989
REMARK  Name = 
REMARK  5 active torsions:
REMARK  status: ('A' for Active; 'I' for Inactive)
REMARK    1  A    between atoms: C_1  and  C_2
REMARK    2  A    between atoms: C_2  and  C_3
REMARK    3  A    between atoms: C_2  and  C_4
REMARK    4  A    between atoms: C_4  and  N_5
REMARK    5  A    between atoms: C_15  and  N_16
REMARK                            x       y       z     vdW  Elec       q    Type
REMARK                         _______ _______ _______ _____ _____    ______ ____
ROOT
ATOM      1  N   UNL     1       4.585   4.040  18.140  0.00  0.00    +0.000 N 
ATOM      2  C   UNL     1       4.652   4.573  19.403  0.00  0.00    +0.000 A 
ATOM      3  N   UNL     1       5.666   5.389  19.538  0.00  0.00    +0.000 NA
ATOM      4  C   UNL     1       6.260   5.426  18.292  0.00  0.00    +0.000 A 
ATOM      5  C   UNL     1       7.399   6.151  17.887  0.00  0.00    +0.000 A 
ATOM      6  N   UNL     1       8.157   6.913  18.769  0.00  0.00    +0.000 N 
ATOM      7  N   UNL     1       7.776   6.133  16.592  0.00  0.00    +0.000 NA
ATOM      8  C   UNL     1       7.111   5.386  15.701  0.00  0.00    +0.000 A 
ATOM      9  C   UNL     1       7.564   5.398  14.393  0.00  0.00    +0.000 A 
ATOM     10  C   UNL     1       6.961   4.634  13.388  0.00  0.00    +0.000 A 
ATOM     11  C   UNL     1       5.841   3.858  13.666  0.00  0.00    +0.000 A 
ATOM     12  C   UNL     1       5.387   3.799  14.985  0.00  0.00    +0.000 A 
ATOM     13  C   UNL     1       5.989   4.574  16.007  0.00  0.00    +0.000 A 
ATOM     14  C   UNL     1       5.571   4.625  17.370  0.00  0.00    +0.000 A 
ATOM     15  H   UNL     1       7.648   7.159  19.610  0.00  0.00    +0.000 HD
ATOM     16  H   UNL     1       8.670   7.639  18.289  0.00  0.00    +0.000 HD
ENDROOT
BRANCH  11  17
ATOM     17  N   UNL     1       5.336   2.978  12.704  0.00  0.00    +0.000 N 
ATOM     18  H   UNL     1       5.564   3.234  11.749  0.00  0.00    +0.000 HD
ATOM     19  H   UNL     1       4.355   2.746  12.817  0.00  0.00    +0.000 HD
ENDBRANCH  11  17
BRANCH   1  20
ATOM     20  C   UNL     1       3.591   3.051  17.775  0.00  0.00    +0.000 C 
BRANCH  20  22
ATOM     21  C   UNL     1       1.419   4.301  17.628  0.00  0.00    +0.000 C 
ATOM     22  C   UNL     1       2.210   3.261  18.427  0.00  0.00    +0.000 C 
ATOM     23  C   UNL     1       1.377   1.984  18.552  0.00  0.00    +0.000 C 
ENDBRANCH  20  22
ENDBRANCH   1  20
TORSDOF 3
ENDMDL
MODEL 8
REMARK VINA RESULT:      -6.8      2.016      5.115
REMARK  Name = 
REMARK  5 active torsions:
REMARK  status: ('A' for Active; 'I' for Inactive)
REMARK    1  A    between atoms: C_1  and  C_2
REMARK    2  A    between atoms: C_2  and  C_3
REMARK    3  A    between atoms: C_2  and  C_4
REMARK    4  A    between atoms: C_4  and  N_5
REMARK    5  A    between atoms: C_15  and  N_16
REMARK                            x       y       z     vdW  Elec       q    Type
REMARK                         _______ _______ _______ _____ _____    ______ ____
ROOT
ATOM      1  N   UNL     1       3.647   6.896  17.605  0.00  0.00    +0.000 N 
ATOM      2  C   UNL     1       4.710   7.497  16.979  0.00  0.00    +0.000 A 
ATOM      3  N   UNL     1       5.830   6.852  17.185  0.00  0.00    +0.000 NA
ATOM      4  C   UNL     1       5.472   5.754  17.942  0.00  0.00    +0.000 A 
ATOM      5  C   UNL     1       6.302   4.730  18.445  0.00  0.00    +0.000 A 
ATOM      6  N   UNL     1       7.684   4.741  18.290  0.00  0.00    +0.000 N 
ATOM      7  N   UNL     1       5.752   3.681  19.088  0.00  0.00    +0.000 NA
ATOM      8  C   UNL     1       4.430   3.634  19.304  0.00  0.00    +0.000 A 
ATOM      9  C   UNL     1       3.935   2.537  19.989  0.00  0.00    +0.000 A 
ATOM     10  C   UNL     1       2.576   2.400  20.293  0.00  0.00    +0.000 A 
ATOM     11  C   UNL     1       1.658   3.355  19.871  0.00  0.00    +0.000 A 
ATOM     12  C   UNL     1       2.136   4.489  19.211  0.00  0.00    +0.000 A 
ATOM     13  C   UNL     1       3.510   4.631  18.895  0.00  0.00    +0.000 A 
ATOM     14  C   UNL     1       4.092   5.722  18.181  0.00  0.00    +0.000 A 
ATOM     15  H   UNL     1       7.988   5.340  17.532  0.00  0.00    +0.000 HD
ATOM     16  H   UNL     1       8.072   3.810  18.351  0.00  0.00    +0.000 HD
ENDROOT
BRANCH  11  17
ATOM     17  N   UNL     1       0.330   3.298  20.307  0.00  0.00    +0.000 N 
ATOM     18  H   UNL     1      -0.354   3.427  19.567  0.00  0.00    +0.000 HD
ATOM     19  H   UNL     1       0.128   3.867  21.122  0.00  0.00    +0.000 HD
ENDBRANCH  11  17
BRANCH   1  20
ATOM     20  C   UNL     1       2.317   7.470  17.584  0.00  0.00    +0.000 C 
BRANCH  20  22
ATOM     21  C   UNL     1       0.995   9.544  18.084  0.00  0.00    +0.000 C 
ATOM     22  C   UNL     1       2.099   8.615  18.594  0.00  0.00    +0.000 C 
ATOM     23  C   UNL     1       1.745   8.143  20.007  0.00  0.00    +0.000 C 
ENDBRANCH  20  22
ENDBRANCH   1  20
TORSDOF 3
ENDMDL
MODEL 9
REMARK VINA RESULT:      -6.7      1.580      4.725
REMARK  Name = 
REMARK  5 active torsions:
REMARK  status: ('A' for Active; 'I' for Inactive)
REMARK    1  A    between atoms: C_1  and  C_2
REMARK    2  A    between atoms: C_2  and  C_3
REMARK    3  A    between atoms: C_2  and  C_4
REMARK    4  A    between atoms: C_4  and  N_5
REMARK    5  A    between atoms: C_15  and  N_16
REMARK                            x       y       z     vdW  Elec       q    Type
REMARK                         _______ _______ _______ _____ _____    ______ ____
ROOT
ATOM      1  N   UNL     1       2.815   4.301  20.059  0.00  0.00    +0.000 N 
ATOM      2  C   UNL     1       1.844   4.788  20.899  0.00  0.00    +0.000 A 
ATOM      3  N   UNL     1       1.564   6.041  20.650  0.00  0.00    +0.000 NA
ATOM      4  C   UNL     1       2.355   6.373  19.568  0.00  0.00    +0.000 A 
ATOM      5  C   UNL     1       2.447   7.611  18.899  0.00  0.00    +0.000 A 
ATOM      6  N   UNL     1       1.759   8.744  19.320  0.00  0.00    +0.000 N 
ATOM      7  N   UNL     1       3.212   7.718  17.794  0.00  0.00    +0.000 NA
ATOM      8  C   UNL     1       3.930   6.672  17.363  0.00  0.00    +0.000 A 
ATOM      9  C   UNL     1       4.710   6.857  16.233  0.00  0.00    +0.000 A 
ATOM     10  C   UNL     1       5.520   5.842  15.713  0.00  0.00    +0.000 A 
ATOM     11  C   UNL     1       5.535   4.580  16.298  0.00  0.00    +0.000 A 
ATOM     12  C   UNL     1       4.787   4.379  17.459  0.00  0.00    +0.000 A 
ATOM     13  C   UNL     1       3.960   5.401  17.988  0.00  0.00    +0.000 A 
ATOM     14  C   UNL     1       3.119   5.282  19.135  0.00  0.00    +0.000 A 
ATOM     15  H   UNL     1       0.967   8.524  19.913  0.00  0.00    +0.000 HD
ATOM     16  H   UNL     1       1.623   9.400  18.562  0.00  0.00    +0.000 HD
ENDROOT
BRANCH  11  17
ATOM     17  N   UNL     1       6.457   3.618  15.875  0.00  0.00    +0.000 N 
ATOM     18  H   UNL     1       6.810   3.767  14.934  0.00  0.00    +0.000 HD
ATOM     19  H   UNL     1       6.168   2.658  16.030  0.00  0.00    +0.000 HD
ENDBRANCH  11  17
BRANCH   1  20
ATOM     20  C   UNL     1       3.345   2.959  20.192  0.00  0.00    +0.000 C 
BRANCH  20  22
ATOM     21  C   UNL     1       1.386   2.507  18.689  0.00  0.00    +0.000 C 
ATOM     22  C   UNL     1       2.656   1.907  19.300  0.00  0.00    +0.000 C 
ATOM     23  C   UNL     1       3.543   1.362  18.178  0.00  0.00    +0.000 C 
ENDBRANCH  20  22
ENDBRANCH   1  20
TORSDOF 3
ENDMDL
