MODEL 1
REMARK VINA RESULT:      -9.8      0.000      0.000
REMARK  Name = 
REMARK  3 active torsions:
REMARK  status: ('A' for Active; 'I' for Inactive)
REMARK    1  A    between atoms: C_2  and  C_3
REMARK    2  A    between atoms: C_11  and  C_12
REMARK    3  A    between atoms: C_11  and  C_19
REMARK                            x       y       z     vdW  Elec       q    Type
REMARK                         _______ _______ _______ _____ _____    ______ ____
ROOT
ATOM      1  C   UNL     1       5.805   5.483  16.172  0.00  0.00    +0.000 A 
ATOM      2  C   UNL     1       5.144   6.691  16.419  0.00  0.00    +0.000 A 
ATOM      3  C   UNL     1       4.357   6.704  17.553  0.00  0.00    +0.000 A 
ATOM      4  C   UNL     1       4.574   5.813  18.557  0.00  0.00    +0.000 A 
ATOM      5  C   UNL     1       4.911   4.530  18.195  0.00  0.00    +0.000 A 
ATOM      6  C   UNL     1       5.476   4.362  16.939  0.00  0.00    +0.000 A 
ATOM      7  F   UNL     1       5.655   3.122  16.464  0.00  0.00    +0.000 F 
ATOM      8  O   UNL     1       3.918   6.244  19.677  0.00  0.00    +0.000 OA
ATOM      9  C   UNL     1       2.673   6.653  19.034  0.00  0.00    +0.000 C 
ATOM     10  O   UNL     1       3.095   7.232  17.731  0.00  0.00    +0.000 OA
ENDROOT
BRANCH   1  12
ATOM     11  O   UNL     1       7.943   5.934  15.390  0.00  0.00    +0.000 OA
ATOM     12  C   UNL     1       6.903   5.309  15.205  0.00  0.00    +0.000 C 
ATOM     13  N   UNL     1       6.636   4.544  14.056  0.00  0.00    +0.000 N 
ATOM     14  C   UNL     1       7.654   4.486  13.006  0.00  0.00    +0.000 C 
ATOM     15  C   UNL     1       7.038   4.534  11.607  0.00  0.00    +0.000 C 
ATOM     16  C   UNL     1       5.961   3.469  11.429  0.00  0.00    +0.000 C 
ATOM     17  C   UNL     1       4.911   3.585  12.527  0.00  0.00    +0.000 C 
ATOM     18  C   UNL     1       5.539   3.580  13.921  0.00  0.00    +0.000 C 
ENDBRANCH   1  12
BRANCH   9  19
ATOM     19  C   UNL     1       1.884   7.750  19.751  0.00  0.00    +0.000 A 
ATOM     20  C   UNL     1       1.493   7.595  21.091  0.00  0.00    +0.000 A 
ATOM     21  C   UNL     1       0.724   8.585  21.731  0.00  0.00    +0.000 A 
ATOM     22  C   UNL     1       0.335   9.732  21.039  0.00  0.00    +0.000 A 
ATOM     23 CL   UNL     1      -0.598  10.932  21.834  0.00  0.00    +0.000 Cl
ATOM     24  C   UNL     1       0.707   9.903  19.711  0.00  0.00    +0.000 A 
ATOM     25  C   UNL     1       1.468   8.924  19.069  0.00  0.00    +0.000 A 
ATOM     26 CL   UNL     1       1.848   9.236  17.410  0.00  0.00    +0.000 Cl
ENDBRANCH   9  19
BRANCH   9  27
ATOM     27  C   UNL     1       1.930   5.266  19.207  0.00  0.00    +0.000 A 
ATOM     28  C   UNL     1       1.981   4.674  20.510  0.00  0.00    +0.000 A 
ATOM     29  C   UNL     1       1.766   3.305  20.696  0.00  0.00    +0.000 A 
ATOM     30  C   UNL     1       1.356   2.546  19.618  0.00  0.00    +0.000 A 
ATOM     31  F   UNL     1       1.194   1.226  19.775  0.00  0.00    +0.000 F 
ATOM     32  C   UNL     1       1.143   3.130  18.369  0.00  0.00    +0.000 A 
ATOM     33  C   UNL     1       1.440   4.483  18.145  0.00  0.00    +0.000 A 
ENDBRANCH   9  27
TORSDOF 3
ENDMDL
MODEL 2
REMARK VINA RESULT:      -9.6      6.836     11.987
REMARK  Name = 
REMARK  3 active torsions:
REMARK  status: ('A' for Active; 'I' for Inactive)
REMARK    1  A    between atoms: C_2  and  C_3
REMARK    2  A    between atoms: C_11  and  C_12
REMARK    3  A    between atoms: C_11  and  C_19
REMARK                            x       y       z     vdW  Elec       q    Type
REMARK                         _______ _______ _______ _____ _____    ______ ____
ROOT
ATOM      1  C   UNL     1      -2.788  13.181  22.682  0.00  0.00    +0.000 A 
ATOM      2  C   UNL     1      -2.604  11.902  22.146  0.00  0.00    +0.000 A 
ATOM      3  C   UNL     1      -1.354  11.671  21.607  0.00  0.00    +0.000 A 
ATOM      4  C   UNL     1      -0.289  12.429  21.978  0.00  0.00    +0.000 A 
ATOM      5  C   UNL     1      -0.510  13.772  22.169  0.00  0.00    +0.000 A 
ATOM      6  C   UNL     1      -1.812  14.156  22.459  0.00  0.00    +0.000 A 
ATOM      7  F   UNL     1      -2.119  15.460  22.476  0.00  0.00    +0.000 F 
ATOM      8  O   UNL     1       0.859  11.796  21.585  0.00  0.00    +0.000 OA
ATOM      9  C   UNL     1       0.414  11.383  20.257  0.00  0.00    +0.000 C 
ATOM     10  O   UNL     1      -1.018  11.024  20.435  0.00  0.00    +0.000 OA
ENDROOT
BRANCH   1  12
ATOM     11  O   UNL     1      -3.664  13.886  24.711  0.00  0.00    +0.000 OA
ATOM     12  C   UNL     1      -3.911  13.574  23.550  0.00  0.00    +0.000 C 
ATOM     13  N   UNL     1      -5.210  13.430  23.031  0.00  0.00    +0.000 N 
ATOM     14  C   UNL     1      -6.347  13.662  23.924  0.00  0.00    +0.000 C 
ATOM     15  C   UNL     1      -7.477  12.660  23.685  0.00  0.00    +0.000 C 
ATOM     16  C   UNL     1      -7.892  12.618  22.218  0.00  0.00    +0.000 C 
ATOM     17  C   UNL     1      -6.683  12.349  21.331  0.00  0.00    +0.000 C 
ATOM     18  C   UNL     1      -5.542  13.328  21.606  0.00  0.00    +0.000 C 
ENDBRANCH   1  12
BRANCH   9  19
ATOM     19  C   UNL     1       1.096  10.138  19.686  0.00  0.00    +0.000 A 
ATOM     20  C   UNL     1       1.466  10.079  18.332  0.00  0.00    +0.000 A 
ATOM     21  C   UNL     1       2.048   8.913  17.800  0.00  0.00    +0.000 A 
ATOM     22  C   UNL     1       2.259   7.797  18.611  0.00  0.00    +0.000 A 
ATOM     23 CL   UNL     1       2.973   6.385  17.948  0.00  0.00    +0.000 Cl
ATOM     24  C   UNL     1       1.897   7.834  19.951  0.00  0.00    +0.000 A 
ATOM     25  C   UNL     1       1.317   8.987  20.486  0.00  0.00    +0.000 A 
ATOM     26 CL   UNL     1       0.886   8.903  22.160  0.00  0.00    +0.000 Cl
ENDBRANCH   9  19
BRANCH   9  27
ATOM     27  C   UNL     1       0.936  12.669  19.496  0.00  0.00    +0.000 A 
ATOM     28  C   UNL     1       2.249  13.125  19.840  0.00  0.00    +0.000 A 
ATOM     29  C   UNL     1       2.650  14.441  19.593  0.00  0.00    +0.000 A 
ATOM     30  C   UNL     1       1.809  15.266  18.874  0.00  0.00    +0.000 A 
ATOM     31  F   UNL     1       2.163  16.542  18.674  0.00  0.00    +0.000 F 
ATOM     32  C   UNL     1       0.588  14.798  18.387  0.00  0.00    +0.000 A 
ATOM     33  C   UNL     1       0.132  13.510  18.703  0.00  0.00    +0.000 A 
ENDBRANCH   9  27
TORSDOF 3
ENDMDL
MODEL 3
REMARK VINA RESULT:      -9.2      6.390     10.554
REMARK  Name = 
REMARK  3 active torsions:
REMARK  status: ('A' for Active; 'I' for Inactive)
REMARK    1  A    between atoms: C_2  and  C_3
REMARK    2  A    between atoms: C_11  and  C_12
REMARK    3  A    between atoms: C_11  and  C_19
REMARK                            x       y       z     vdW  Elec       q    Type
REMARK                         _______ _______ _______ _____ _____    ______ ____
ROOT
ATOM      1  C   UNL     1       1.753  15.076  19.790  0.00  0.00    +0.000 A 
ATOM      2  C   UNL     1       2.240  13.962  20.481  0.00  0.00    +0.000 A 
ATOM      3  C   UNL     1       1.827  12.742  19.984  0.00  0.00    +0.000 A 
ATOM      4  C   UNL     1       1.391  12.628  18.701  0.00  0.00    +0.000 A 
ATOM      5  C   UNL     1       0.624  13.656  18.207  0.00  0.00    +0.000 A 
ATOM      6  C   UNL     1       0.763  14.893  18.820  0.00  0.00    +0.000 A 
ATOM      7  F   UNL     1      -0.085  15.879  18.501  0.00  0.00    +0.000 F 
ATOM      8  O   UNL     1       1.376  11.305  18.358  0.00  0.00    +0.000 OA
ATOM      9  C   UNL     1       0.805  10.783  19.597  0.00  0.00    +0.000 C 
ATOM     10  O   UNL     1       1.405  11.621  20.669  0.00  0.00    +0.000 OA
ENDROOT
BRANCH   1  12
ATOM     11  O   UNL     1       3.056  16.870  19.107  0.00  0.00    +0.000 OA
ATOM     12  C   UNL     1       2.264  16.450  19.944  0.00  0.00    +0.000 C 
ATOM     13  N   UNL     1       1.917  17.140  21.119  0.00  0.00    +0.000 N 
ATOM     14  C   UNL     1       2.536  18.442  21.371  0.00  0.00    +0.000 C 
ATOM     15  C   UNL     1       2.897  18.629  22.845  0.00  0.00    +0.000 C 
ATOM     16  C   UNL     1       1.700  18.372  23.754  0.00  0.00    +0.000 C 
ATOM     17  C   UNL     1       1.105  16.997  23.475  0.00  0.00    +0.000 C 
ATOM     18  C   UNL     1       0.787  16.802  21.992  0.00  0.00    +0.000 C 
ENDBRANCH   1  12
BRANCH   9  19
ATOM     19  C   UNL     1       1.165   9.336  19.937  0.00  0.00    +0.000 A 
ATOM     20  C   UNL     1       1.962   8.571  19.069  0.00  0.00    +0.000 A 
ATOM     21  C   UNL     1       2.249   7.224  19.362  0.00  0.00    +0.000 A 
ATOM     22  C   UNL     1       1.739   6.630  20.518  0.00  0.00    +0.000 A 
ATOM     23 CL   UNL     1       2.102   4.989  20.863  0.00  0.00    +0.000 Cl
ATOM     24  C   UNL     1       0.946   7.368  21.387  0.00  0.00    +0.000 A 
ATOM     25  C   UNL     1       0.655   8.704  21.101  0.00  0.00    +0.000 A 
ATOM     26 CL   UNL     1      -0.364   9.511  22.244  0.00  0.00    +0.000 Cl
ENDBRANCH   9  19
BRANCH   9  27
ATOM     27  C   UNL     1      -0.706  10.858  19.131  0.00  0.00    +0.000 A 
ATOM     28  C   UNL     1      -1.030  10.189  17.907  0.00  0.00    +0.000 A 
ATOM     29  C   UNL     1      -2.170  10.528  17.173  0.00  0.00    +0.000 A 
ATOM     30  C   UNL     1      -3.069  11.422  17.719  0.00  0.00    +0.000 A 
ATOM     31  F   UNL     1      -4.139  11.789  17.002  0.00  0.00    +0.000 F 
ATOM     32  C   UNL     1      -2.857  11.969  18.984  0.00  0.00    +0.000 A 
ATOM     33  C   UNL     1      -1.675  11.710  19.694  0.00  0.00    +0.000 A 
ENDBRANCH   9  27
TORSDOF 3
ENDMDL
MODEL 4
REMARK VINA RESULT:      -9.1      7.935      9.948
REMARK  Name = 
REMARK  3 active torsions:
REMARK  status: ('A' for Active; 'I' for Inactive)
REMARK    1  A    between atoms: C_2  and  C_3
REMARK    2  A    between atoms: C_11  and  C_12
REMARK    3  A    between atoms: C_11  and  C_19
REMARK                            x       y       z     vdW  Elec       q    Type
REMARK                         _______ _______ _______ _____ _____    ______ ____
ROOT
ATOM      1  C   UNL     1       2.556  14.264  19.222  0.00  0.00    +0.000 A 
ATOM      2  C   UNL     1       1.446  14.128  18.381  0.00  0.00    +0.000 A 
ATOM      3  C   UNL     1       0.310  13.636  18.991  0.00  0.00    +0.000 A 
ATOM      4  C   UNL     1       0.154  13.724  20.338  0.00  0.00    +0.000 A 
ATOM      5  C   UNL     1       1.269  13.514  21.114  0.00  0.00    +0.000 A 
ATOM      6  C   UNL     1       2.500  13.724  20.510  0.00  0.00    +0.000 A 
ATOM      7  F   UNL     1       3.615  13.363  21.158  0.00  0.00    +0.000 F 
ATOM      8  O   UNL     1      -1.160  13.495  20.644  0.00  0.00    +0.000 OA
ATOM      9  C   UNL     1      -1.382  12.368  19.742  0.00  0.00    +0.000 C 
ATOM     10  O   UNL     1      -0.590  12.699  18.527  0.00  0.00    +0.000 OA
ENDROOT
BRANCH   1  12
ATOM     11  O   UNL     1       4.630  14.463  18.202  0.00  0.00    +0.000 OA
ATOM     12  C   UNL     1       3.777  15.018  18.887  0.00  0.00    +0.000 C 
ATOM     13  N   UNL     1       3.946  16.276  19.492  0.00  0.00    +0.000 N 
ATOM     14  C   UNL     1       5.218  16.975  19.300  0.00  0.00    +0.000 C 
ATOM     15  C   UNL     1       5.681  17.679  20.576  0.00  0.00    +0.000 C 
ATOM     16  C   UNL     1       4.598  18.592  21.141  0.00  0.00    +0.000 C 
ATOM     17  C   UNL     1       3.302  17.817  21.347  0.00  0.00    +0.000 C 
ATOM     18  C   UNL     1       2.869  17.080  20.079  0.00  0.00    +0.000 C 
ENDBRANCH   1  12
BRANCH   9  19
ATOM     19  C   UNL     1      -2.823  12.169  19.270  0.00  0.00    +0.000 A 
ATOM     20  C   UNL     1      -3.878  12.883  19.862  0.00  0.00    +0.000 A 
ATOM     21  C   UNL     1      -5.208  12.659  19.458  0.00  0.00    +0.000 A 
ATOM     22  C   UNL     1      -5.495  11.720  18.466  0.00  0.00    +0.000 A 
ATOM     23 CL   UNL     1      -7.120  11.462  17.982  0.00  0.00    +0.000 Cl
ATOM     24  C   UNL     1      -4.467  11.001  17.870  0.00  0.00    +0.000 A 
ATOM     25  C   UNL     1      -3.145  11.216  18.268  0.00  0.00    +0.000 A 
ATOM     26 CL   UNL     1      -1.954  10.244  17.473  0.00  0.00    +0.000 Cl
ENDBRANCH   9  19
BRANCH   9  27
ATOM     27  C   UNL     1      -1.005  11.239  20.785  0.00  0.00    +0.000 A 
ATOM     28  C   UNL     1      -1.560  11.374  22.098  0.00  0.00    +0.000 A 
ATOM     29  C   UNL     1      -0.987  10.732  23.200  0.00  0.00    +0.000 A 
ATOM     30  C   UNL     1       0.044   9.840  22.984  0.00  0.00    +0.000 A 
ATOM     31  F   UNL     1       0.631   9.256  24.037  0.00  0.00    +0.000 F 
ATOM     32  C   UNL     1       0.500   9.568  21.694  0.00  0.00    +0.000 A 
ATOM     33  C   UNL     1      -0.003  10.270  20.588  0.00  0.00    +0.000 A 
ENDBRANCH   9  27
TORSDOF 3
ENDMDL
MODEL 5
REMARK VINA RESULT:      -9.1      5.521      9.030
REMARK  Name = 
REMARK  3 active torsions:
REMARK  status: ('A' for Active; 'I' for Inactive)
REMARK    1  A    between atoms: C_2  and  C_3
REMARK    2  A    between atoms: C_11  and  C_12
REMARK    3  A    between atoms: C_11  and  C_19
REMARK                            x       y       z     vdW  Elec       q    Type
REMARK                         _______ _______ _______ _____ _____    ______ ____
ROOT
ATOM      1  C   UNL     1       1.044  10.116  18.995  0.00  0.00    +0.000 A 
ATOM      2  C   UNL     1      -0.031   9.824  19.843  0.00  0.00    +0.000 A 
ATOM      3  C   UNL     1      -0.835  10.902  20.156  0.00  0.00    +0.000 A 
ATOM      4  C   UNL     1      -0.856  12.004  19.361  0.00  0.00    +0.000 A 
ATOM      5  C   UNL     1       0.341  12.413  18.823  0.00  0.00    +0.000 A 
ATOM      6  C   UNL     1       1.335  11.451  18.707  0.00  0.00    +0.000 A 
ATOM      7  F   UNL     1       2.573  11.831  18.360  0.00  0.00    +0.000 F 
ATOM      8  O   UNL     1      -1.953  12.755  19.680  0.00  0.00    +0.000 OA
ATOM      9  C   UNL     1      -1.856  12.644  21.133  0.00  0.00    +0.000 C 
ATOM     10  O   UNL     1      -1.383  11.254  21.372  0.00  0.00    +0.000 OA
ENDROOT
BRANCH   1  12
ATOM     11  O   UNL     1       2.184   9.324  17.137  0.00  0.00    +0.000 OA
ATOM     12  C   UNL     1       1.863   9.107  18.301  0.00  0.00    +0.000 C 
ATOM     13  N   UNL     1       2.106   7.897  18.974  0.00  0.00    +0.000 N 
ATOM     14  C   UNL     1       2.781   6.819  18.248  0.00  0.00    +0.000 C 
ATOM     15  C   UNL     1       2.188   5.449  18.576  0.00  0.00    +0.000 C 
ATOM     16  C   UNL     1       2.147   5.198  20.080  0.00  0.00    +0.000 C 
ATOM     17  C   UNL     1       1.414   6.329  20.789  0.00  0.00    +0.000 C 
ATOM     18  C   UNL     1       1.985   7.699  20.423  0.00  0.00    +0.000 C 
ENDBRANCH   1  12
BRANCH   9  19
ATOM     19  C   UNL     1      -3.173  12.782  21.899  0.00  0.00    +0.000 A 
ATOM     20  C   UNL     1      -3.179  12.920  23.297  0.00  0.00    +0.000 A 
ATOM     21  C   UNL     1      -4.395  12.997  24.003  0.00  0.00    +0.000 A 
ATOM     22  C   UNL     1      -5.611  12.931  23.321  0.00  0.00    +0.000 A 
ATOM     23 CL   UNL     1      -7.084  13.031  24.195  0.00  0.00    +0.000 Cl
ATOM     24  C   UNL     1      -5.627  12.792  21.939  0.00  0.00    +0.000 A 
ATOM     25  C   UNL     1      -4.424  12.713  21.233  0.00  0.00    +0.000 A 
ATOM     26 CL   UNL     1      -4.571  12.514  19.519  0.00  0.00    +0.000 Cl
ENDBRANCH   9  19
BRANCH   9  27
ATOM     27  C   UNL     1      -0.980  13.945  21.344  0.00  0.00    +0.000 A 
ATOM     28  C   UNL     1      -1.373  15.105  20.603  0.00  0.00    +0.000 A 
ATOM     29  C   UNL     1      -0.475  16.148  20.355  0.00  0.00    +0.000 A 
ATOM     30  C   UNL     1       0.764  16.114  20.961  0.00  0.00    +0.000 A 
ATOM     31  F   UNL     1       1.648  17.083  20.691  0.00  0.00    +0.000 F 
ATOM     32  C   UNL     1       1.115  15.071  21.819  0.00  0.00    +0.000 A 
ATOM     33  C   UNL     1       0.262  13.974  22.007  0.00  0.00    +0.000 A 
ENDBRANCH   9  27
TORSDOF 3
ENDMDL
MODEL 6
REMARK VINA RESULT:      -9.0      7.819      9.770
REMARK  Name = 
REMARK  3 active torsions:
REMARK  status: ('A' for Active; 'I' for Inactive)
REMARK    1  A    between atoms: C_2  and  C_3
REMARK    2  A    between atoms: C_11  and  C_12
REMARK    3  A    between atoms: C_11  and  C_19
REMARK                            x       y       z     vdW  Elec       q    Type
REMARK                         _______ _______ _______ _____ _____    ______ ____
ROOT
ATOM      1  C   UNL     1       3.109  14.340  19.052  0.00  0.00    +0.000 A 
ATOM      2  C   UNL     1       2.040  14.011  18.212  0.00  0.00    +0.000 A 
ATOM      3  C   UNL     1       0.885  13.623  18.863  0.00  0.00    +0.000 A 
ATOM      4  C   UNL     1       0.669  13.974  20.158  0.00  0.00    +0.000 A 
ATOM      5  C   UNL     1       1.752  13.950  21.003  0.00  0.00    +0.000 A 
ATOM      6  C   UNL     1       3.005  14.066  20.419  0.00  0.00    +0.000 A 
ATOM      7  F   UNL     1       4.097  13.868  21.170  0.00  0.00    +0.000 F 
ATOM      8  O   UNL     1      -0.653  13.779  20.451  0.00  0.00    +0.000 OA
ATOM      9  C   UNL     1      -0.817  12.490  19.785  0.00  0.00    +0.000 C 
ATOM     10  O   UNL     1       0.021  12.591  18.560  0.00  0.00    +0.000 OA
ENDROOT
BRANCH   1  12
ATOM     11  O   UNL     1       5.107  14.447  17.879  0.00  0.00    +0.000 OA
ATOM     12  C   UNL     1       4.331  15.040  18.621  0.00  0.00    +0.000 C 
ATOM     13  N   UNL     1       4.596  16.293  19.203  0.00  0.00    +0.000 N 
ATOM     14  C   UNL     1       5.878  16.938  18.912  0.00  0.00    +0.000 C 
ATOM     15  C   UNL     1       6.464  17.628  20.145  0.00  0.00    +0.000 C 
ATOM     16  C   UNL     1       5.464  18.587  20.782  0.00  0.00    +0.000 C 
ATOM     17  C   UNL     1       4.157  17.866  21.090  0.00  0.00    +0.000 C 
ATOM     18  C   UNL     1       3.600  17.144  19.863  0.00  0.00    +0.000 C 
ENDBRANCH   1  12
BRANCH   9  19
ATOM     19  C   UNL     1      -2.233  12.166  19.305  0.00  0.00    +0.000 A 
ATOM     20  C   UNL     1      -3.343  12.848  19.829  0.00  0.00    +0.000 A 
ATOM     21  C   UNL     1      -4.648  12.511  19.421  0.00  0.00    +0.000 A 
ATOM     22  C   UNL     1      -4.854  11.490  18.493  0.00  0.00    +0.000 A 
ATOM     23 CL   UNL     1      -6.450  11.094  18.003  0.00  0.00    +0.000 Cl
ATOM     24  C   UNL     1      -3.770  10.800  17.965  0.00  0.00    +0.000 A 
ATOM     25  C   UNL     1      -2.473  11.127  18.367  0.00  0.00    +0.000 A 
ATOM     26 CL   UNL     1      -1.207  10.182  17.661  0.00  0.00    +0.000 Cl
ENDBRANCH   9  19
BRANCH   9  27
ATOM     27  C   UNL     1      -0.469  11.602  21.047  0.00  0.00    +0.000 A 
ATOM     28  C   UNL     1       0.370  10.465  20.815  0.00  0.00    +0.000 A 
ATOM     29  C   UNL     1       0.397   9.386  21.704  0.00  0.00    +0.000 A 
ATOM     30  C   UNL     1      -0.292   9.492  22.895  0.00  0.00    +0.000 A 
ATOM     31  F   UNL     1      -0.312   8.446  23.731  0.00  0.00    +0.000 F 
ATOM     32  C   UNL     1      -0.989  10.656  23.219  0.00  0.00    +0.000 A 
ATOM     33  C   UNL     1      -1.100  11.710  22.301  0.00  0.00    +0.000 A 
ENDBRANCH   9  27
TORSDOF 3
ENDMDL
MODEL 7
REMARK VINA RESULT:      -9.0      6.913     12.109
REMARK  Name = 
REMARK  3 active torsions:
REMARK  status: ('A' for Active; 'I' for Inactive)
REMARK    1  A    between atoms: C_2  and  C_3
REMARK    2  A    between atoms: C_11  and  C_12
REMARK    3  A    between atoms: C_11  and  C_19
REMARK                            x       y       z     vdW  Elec       q    Type
REMARK                         _______ _______ _______ _____ _____    ______ ____
ROOT
ATOM      1  C   UNL     1      -4.137  13.238  20.099  0.00  0.00    +0.000 A 
ATOM      2  C   UNL     1      -3.680  12.075  19.470  0.00  0.00    +0.000 A 
ATOM      3  C   UNL     1      -2.383  11.717  19.778  0.00  0.00    +0.000 A 
ATOM      4  C   UNL     1      -1.789  12.172  20.913  0.00  0.00    +0.000 A 
ATOM      5  C   UNL     1      -2.051  13.470  21.281  0.00  0.00    +0.000 A 
ATOM      6  C   UNL     1      -3.224  14.032  20.798  0.00  0.00    +0.000 A 
ATOM      7  F   UNL     1      -3.440  15.343  20.974  0.00  0.00    +0.000 F 
ATOM      8  O   UNL     1      -0.674  11.419  21.157  0.00  0.00    +0.000 OA
ATOM      9  C   UNL     1      -0.168  11.362  19.789  0.00  0.00    +0.000 C 
ATOM     10  O   UNL     1      -1.386  11.256  18.942  0.00  0.00    +0.000 OA
ENDROOT
BRANCH   1  12
ATOM     11  O   UNL     1      -6.026  14.213  19.171  0.00  0.00    +0.000 OA
ATOM     12  C   UNL     1      -5.546  13.663  20.158  0.00  0.00    +0.000 C 
ATOM     13  N   UNL     1      -6.209  13.537  21.392  0.00  0.00    +0.000 N 
ATOM     14  C   UNL     1      -7.556  14.096  21.519  0.00  0.00    +0.000 C 
ATOM     15  C   UNL     1      -7.772  14.763  22.878  0.00  0.00    +0.000 C 
ATOM     16  C   UNL     1      -7.423  13.825  24.028  0.00  0.00    +0.000 C 
ATOM     17  C   UNL     1      -6.006  13.289  23.867  0.00  0.00    +0.000 C 
ATOM     18  C   UNL     1      -5.785  12.662  22.490  0.00  0.00    +0.000 C 
ENDBRANCH   1  12
BRANCH   9  19
ATOM     19  C   UNL     1       0.693  10.143  19.449  0.00  0.00    +0.000 A 
ATOM     20  C   UNL     1       1.114   9.906  18.130  0.00  0.00    +0.000 A 
ATOM     21  C   UNL     1       1.864   8.757  17.815  0.00  0.00    +0.000 A 
ATOM     22  C   UNL     1       2.193   7.835  18.809  0.00  0.00    +0.000 A 
ATOM     23 CL   UNL     1       3.110   6.442  18.409  0.00  0.00    +0.000 Cl
ATOM     24  C   UNL     1       1.782   8.048  20.119  0.00  0.00    +0.000 A 
ATOM     25  C   UNL     1       1.036   9.185  20.439  0.00  0.00    +0.000 A 
ATOM     26 CL   UNL     1       0.561   9.329  22.097  0.00  0.00    +0.000 Cl
ENDBRANCH   9  19
BRANCH   9  27
ATOM     27  C   UNL     1       0.750  12.646  19.894  0.00  0.00    +0.000 A 
ATOM     28  C   UNL     1       0.737  13.533  18.769  0.00  0.00    +0.000 A 
ATOM     29  C   UNL     1       1.784  14.430  18.538  0.00  0.00    +0.000 A 
ATOM     30  C   UNL     1       2.771  14.558  19.494  0.00  0.00    +0.000 A 
ATOM     31  F   UNL     1       3.802  15.379  19.259  0.00  0.00    +0.000 F 
ATOM     32  C   UNL     1       2.724  13.820  20.677  0.00  0.00    +0.000 A 
ATOM     33  C   UNL     1       1.731  12.850  20.883  0.00  0.00    +0.000 A 
ENDBRANCH   9  27
TORSDOF 3
ENDMDL
MODEL 8
REMARK VINA RESULT:      -8.9      4.131      7.246
REMARK  Name = 
REMARK  3 active torsions:
REMARK  status: ('A' for Active; 'I' for Inactive)
REMARK    1  A    between atoms: C_2  and  C_3
REMARK    2  A    between atoms: C_11  and  C_12
REMARK    3  A    between atoms: C_11  and  C_19
REMARK                            x       y       z     vdW  Elec       q    Type
REMARK                         _______ _______ _______ _____ _____    ______ ____
ROOT
ATOM      1  C   UNL     1       2.509   7.542  19.034  0.00  0.00    +0.000 A 
ATOM      2  C   UNL     1       1.712   7.774  20.160  0.00  0.00    +0.000 A 
ATOM      3  C   UNL     1       0.947   8.922  20.107  0.00  0.00    +0.000 A 
ATOM      4  C   UNL     1       0.649   9.501  18.914  0.00  0.00    +0.000 A 
ATOM      5  C   UNL     1       1.637   9.512  17.958  0.00  0.00    +0.000 A 
ATOM      6  C   UNL     1       2.627   8.547  18.070  0.00  0.00    +0.000 A 
ATOM      7  F   UNL     1       3.705   8.623  17.279  0.00  0.00    +0.000 F 
ATOM      8  O   UNL     1      -0.375  10.388  19.099  0.00  0.00    +0.000 OA
ATOM      9  C   UNL     1       0.102  10.987  20.342  0.00  0.00    +0.000 C 
ATOM     10  O   UNL     1       0.710   9.857  21.094  0.00  0.00    +0.000 OA
ENDROOT
BRANCH   1  12
ATOM     11  O   UNL     1       4.073   6.271  17.885  0.00  0.00    +0.000 OA
ATOM     12  C   UNL     1       3.184   6.268  18.731  0.00  0.00    +0.000 C 
ATOM     13  N   UNL     1       2.670   5.105  19.332  0.00  0.00    +0.000 N 
ATOM     14  C   UNL     1       3.221   3.811  18.927  0.00  0.00    +0.000 C 
ATOM     15  C   UNL     1       2.137   2.738  18.813  0.00  0.00    +0.000 C 
ATOM     16  C   UNL     1       1.305   2.641  20.088  0.00  0.00    +0.000 C 
ATOM     17  C   UNL     1       0.732   4.004  20.455  0.00  0.00    +0.000 C 
ATOM     18  C   UNL     1       1.816   5.080  20.525  0.00  0.00    +0.000 C 
ENDBRANCH   1  12
BRANCH   9  19
ATOM     19  C   UNL     1      -0.978  11.572  21.255  0.00  0.00    +0.000 A 
ATOM     20  C   UNL     1      -0.808  11.589  22.649  0.00  0.00    +0.000 A 
ATOM     21  C   UNL     1      -1.825  12.083  23.488  0.00  0.00    +0.000 A 
ATOM     22  C   UNL     1      -3.020  12.556  22.943  0.00  0.00    +0.000 A 
ATOM     23 CL   UNL     1      -4.248  13.158  23.978  0.00  0.00    +0.000 Cl
ATOM     24  C   UNL     1      -3.209  12.544  21.567  0.00  0.00    +0.000 A 
ATOM     25  C   UNL     1      -2.205  12.054  20.729  0.00  0.00    +0.000 A 
ATOM     26 CL   UNL     1      -2.567  12.066  19.037  0.00  0.00    +0.000 Cl
ENDBRANCH   9  19
BRANCH   9  27
ATOM     27  C   UNL     1       0.915  12.162  19.663  0.00  0.00    +0.000 A 
ATOM     28  C   UNL     1       2.083  12.614  20.359  0.00  0.00    +0.000 A 
ATOM     29  C   UNL     1       2.624  13.881  20.123  0.00  0.00    +0.000 A 
ATOM     30  C   UNL     1       2.104  14.644  19.098  0.00  0.00    +0.000 A 
ATOM     31  F   UNL     1       2.584  15.878  18.896  0.00  0.00    +0.000 F 
ATOM     32  C   UNL     1       1.069  14.161  18.298  0.00  0.00    +0.000 A 
ATOM     33  C   UNL     1       0.454  12.931  18.578  0.00  0.00    +0.000 A 
ENDBRANCH   9  27
TORSDOF 3
ENDMDL
MODEL 9
REMARK VINA RESULT:      -8.9      6.548     11.649
REMARK  Name = 
REMARK  3 active torsions:
REMARK  status: ('A' for Active; 'I' for Inactive)
REMARK    1  A    between atoms: C_2  and  C_3
REMARK    2  A    between atoms: C_11  and  C_12
REMARK    3  A    between atoms: C_11  and  C_19
REMARK                            x       y       z     vdW  Elec       q    Type
REMARK                         _______ _______ _______ _____ _____    ______ ____
ROOT
ATOM      1  C   UNL     1      -2.480  12.956  22.934  0.00  0.00    +0.000 A 
ATOM      2  C   UNL     1      -1.563  11.900  22.951  0.00  0.00    +0.000 A 
ATOM      3  C   UNL     1      -1.020  11.580  21.722  0.00  0.00    +0.000 A 
ATOM      4  C   UNL     1      -1.019  12.485  20.708  0.00  0.00    +0.000 A 
ATOM      5  C   UNL     1      -2.135  13.276  20.572  0.00  0.00    +0.000 A 
ATOM      6  C   UNL     1      -2.919  13.452  21.703  0.00  0.00    +0.000 A 
ATOM      7  F   UNL     1      -4.107  14.060  21.585  0.00  0.00    +0.000 F 
ATOM      8  O   UNL     1      -0.141  12.066  19.747  0.00  0.00    +0.000 OA
ATOM      9  C   UNL     1      -0.506  10.652  19.746  0.00  0.00    +0.000 C 
ATOM     10  O   UNL     1      -0.788  10.336  21.171  0.00  0.00    +0.000 OA
ENDROOT
BRANCH   1  12
ATOM     11  O   UNL     1      -3.961  13.210  24.702  0.00  0.00    +0.000 OA
ATOM     12  C   UNL     1      -2.972  13.661  24.130  0.00  0.00    +0.000 C 
ATOM     13  N   UNL     1      -2.360  14.884  24.458  0.00  0.00    +0.000 N 
ATOM     14  C   UNL     1      -2.932  15.679  25.546  0.00  0.00    +0.000 C 
ATOM     15  C   UNL     1      -2.916  17.175  25.230  0.00  0.00    +0.000 C 
ATOM     16  C   UNL     1      -1.523  17.653  24.833  0.00  0.00    +0.000 C 
ATOM     17  C   UNL     1      -0.980  16.814  23.683  0.00  0.00    +0.000 C 
ATOM     18  C   UNL     1      -1.040  15.317  23.989  0.00  0.00    +0.000 C 
ENDBRANCH   1  12
BRANCH   9  19
ATOM     19  C   UNL     1       0.592   9.682  19.305  0.00  0.00    +0.000 A 
ATOM     20  C   UNL     1       1.088   9.708  17.991  0.00  0.00    +0.000 A 
ATOM     21  C   UNL     1       2.063   8.781  17.577  0.00  0.00    +0.000 A 
ATOM     22  C   UNL     1       2.545   7.820  18.466  0.00  0.00    +0.000 A 
ATOM     23 CL   UNL     1       3.736   6.700  17.947  0.00  0.00    +0.000 Cl
ATOM     24  C   UNL     1       2.065   7.775  19.769  0.00  0.00    +0.000 A 
ATOM     25  C   UNL     1       1.096   8.690  20.186  0.00  0.00    +0.000 A 
ATOM     26 CL   UNL     1       0.557   8.519  21.822  0.00  0.00    +0.000 Cl
ENDBRANCH   9  19
BRANCH   9  27
ATOM     27  C   UNL     1      -1.604  10.761  18.611  0.00  0.00    +0.000 A 
ATOM     28  C   UNL     1      -2.585   9.719  18.571  0.00  0.00    +0.000 A 
ATOM     29  C   UNL     1      -3.314   9.450  17.408  0.00  0.00    +0.000 A 
ATOM     30  C   UNL     1      -3.181  10.302  16.331  0.00  0.00    +0.000 A 
ATOM     31  F   UNL     1      -3.839  10.026  15.198  0.00  0.00    +0.000 F 
ATOM     32  C   UNL     1      -2.350  11.420  16.399  0.00  0.00    +0.000 A 
ATOM     33  C   UNL     1      -1.544  11.653  17.524  0.00  0.00    +0.000 A 
ENDBRANCH   9  27
TORSDOF 3
ENDMDL
