MODEL 1
REMARK VINA RESULT:      -8.2      0.000      0.000
REMARK  Name = 
REMARK  10 active torsions:
REMARK  status: ('A' for Active; 'I' for Inactive)
REMARK    1  A    between atoms: C_1  and  C_2
REMARK    2  A    between atoms: C_2  and  C_3
REMARK    3  A    between atoms: C_2  and  C_4
REMARK    4  A    between atoms: C_4  and  N_5
REMARK    5  A    between atoms: C_6  and  C_8
REMARK    6  A    between atoms: N_14  and  C_15
REMARK    7  A    between atoms: C_15  and  C_16
REMARK    8  A    between atoms: C_19  and  C_20
REMARK    9  A    between atoms: C_20  and  C_21
REMARK   10  A    between atoms: C_20  and  C_22
REMARK                            x       y       z     vdW  Elec       q    Type
REMARK                         _______ _______ _______ _____ _____    ______ ____
ROOT
ATOM      1  C   UNL     1       6.995   4.853  15.434  0.00  0.00    +0.000 C 
ATOM      2  N   UNL     1       7.709   4.268  16.336  0.00  0.00    +0.000 NA
ATOM      3  O   UNL     1       7.092   4.566  17.577  0.00  0.00    +0.000 OA
ATOM      4  C   UNL     1       5.768   5.088  17.312  0.00  0.00    +0.000 C 
ATOM      5  C   UNL     1       5.429   6.143  18.348  0.00  0.00    +0.000 C 
ATOM      6  C   UNL     1       4.937   5.300  19.510  0.00  0.00    +0.000 C 
ATOM      7  N   UNL     1       4.124   4.234  18.905  0.00  0.00    +0.000 NA
ATOM      8  C   UNL     1       4.723   3.983  17.562  0.00  0.00    +0.000 C 
ATOM      9  C   UNL     1       5.835   5.636  15.906  0.00  0.00    +0.000 C 
ENDROOT
BRANCH   1  11
ATOM     10  N   UNL     1       6.667   3.820  13.259  0.00  0.00    +0.000 N 
ATOM     11  C   UNL     1       7.314   4.808  13.962  0.00  0.00    +0.000 C 
ATOM     12  O   UNL     1       8.096   5.620  13.503  0.00  0.00    +0.000 OA
ATOM     13  H   UNL     1       6.119   3.151  13.791  0.00  0.00    +0.000 HD
BRANCH  10  14
ATOM     14  C   UNL     1       6.853   3.656  11.830  0.00  0.00    +0.000 C 
BRANCH  14  16
ATOM     15  C   UNL     1       6.039   1.314  11.370  0.00  0.00    +0.000 C 
ATOM     16  C   UNL     1       5.748   2.804  11.192  0.00  0.00    +0.000 C 
ATOM     17  C   UNL     1       4.390   3.146  11.808  0.00  0.00    +0.000 C 
ENDBRANCH  14  16
ENDBRANCH  10  14
ENDBRANCH   1  11
BRANCH   7  18
ATOM     18  C   UNL     1       2.695   4.567  18.781  0.00  0.00    +0.000 C 
BRANCH  18  19
ATOM     19  C   UNL     1       2.322   5.994  19.145  0.00  0.00    +0.000 A 
ATOM     20  C   UNL     1       2.362   7.016  18.188  0.00  0.00    +0.000 A 
ATOM     21  C   UNL     1       1.926   8.313  18.501  0.00  0.00    +0.000 A 
ATOM     22  C   UNL     1       1.410   8.610  19.772  0.00  0.00    +0.000 A 
ATOM     23  C   UNL     1       1.404   7.592  20.735  0.00  0.00    +0.000 A 
ATOM     24  C   UNL     1       1.864   6.305  20.433  0.00  0.00    +0.000 A 
BRANCH  22  25
ATOM     25  C   UNL     1       0.843   9.992  20.076  0.00  0.00    +0.000 C 
ATOM     26  C   UNL     1      -0.573  10.159  19.511  0.00  0.00    +0.000 C 
ATOM     27  C   UNL     1       0.839  10.307  21.575  0.00  0.00    +0.000 C 
ENDBRANCH  22  25
ENDBRANCH  18  19
ENDBRANCH   7  18
TORSDOF 6
ENDMDL
MODEL 2
REMARK VINA RESULT:      -8.0      0.510      1.173
REMARK  Name = 
REMARK  10 active torsions:
REMARK  status: ('A' for Active; 'I' for Inactive)
REMARK    1  A    between atoms: C_1  and  C_2
REMARK    2  A    between atoms: C_2  and  C_3
REMARK    3  A    between atoms: C_2  and  C_4
REMARK    4  A    between atoms: C_4  and  N_5
REMARK    5  A    between atoms: C_6  and  C_8
REMARK    6  A    between atoms: N_14  and  C_15
REMARK    7  A    between atoms: C_15  and  C_16
REMARK    8  A    between atoms: C_19  and  C_20
REMARK    9  A    between atoms: C_20  and  C_21
REMARK   10  A    between atoms: C_20  and  C_22
REMARK                            x       y       z     vdW  Elec       q    Type
REMARK                         _______ _______ _______ _____ _____    ______ ____
ROOT
ATOM      1  C   UNL     1       6.989   4.878  15.435  0.00  0.00    +0.000 C 
ATOM      2  N   UNL     1       7.760   4.381  16.342  0.00  0.00    +0.000 NA
ATOM      3  O   UNL     1       7.130   4.656  17.583  0.00  0.00    +0.000 OA
ATOM      4  C   UNL     1       5.764   5.055  17.320  0.00  0.00    +0.000 C 
ATOM      5  C   UNL     1       5.345   6.104  18.334  0.00  0.00    +0.000 C 
ATOM      6  C   UNL     1       4.938   5.252  19.521  0.00  0.00    +0.000 C 
ATOM      7  N   UNL     1       4.214   4.105  18.952  0.00  0.00    +0.000 NA
ATOM      8  C   UNL     1       4.820   3.871  17.610  0.00  0.00    +0.000 C 
ATOM      9  C   UNL     1       5.770   5.570  15.900  0.00  0.00    +0.000 C 
ENDROOT
BRANCH   1  11
ATOM     10  N   UNL     1       6.643   3.832  13.268  0.00  0.00    +0.000 N 
ATOM     11  C   UNL     1       7.297   4.823  13.961  0.00  0.00    +0.000 C 
ATOM     12  O   UNL     1       8.079   5.630  13.491  0.00  0.00    +0.000 OA
ATOM     13  H   UNL     1       6.097   3.169  13.809  0.00  0.00    +0.000 HD
BRANCH  10  14
ATOM     14  C   UNL     1       6.818   3.658  11.840  0.00  0.00    +0.000 C 
BRANCH  14  16
ATOM     15  C   UNL     1       5.972   1.314  11.450  0.00  0.00    +0.000 C 
ATOM     16  C   UNL     1       5.708   2.802  11.216  0.00  0.00    +0.000 C 
ATOM     17  C   UNL     1       4.348   3.186  11.800  0.00  0.00    +0.000 C 
ENDBRANCH  14  16
ENDBRANCH  10  14
ENDBRANCH   1  11
BRANCH   7  18
ATOM     18  C   UNL     1       2.761   4.310  18.837  0.00  0.00    +0.000 C 
BRANCH  18  19
ATOM     19  C   UNL     1       2.288   5.744  19.002  0.00  0.00    +0.000 A 
ATOM     20  C   UNL     1       1.946   6.250  20.263  0.00  0.00    +0.000 A 
ATOM     21  C   UNL     1       1.602   7.602  20.427  0.00  0.00    +0.000 A 
ATOM     22  C   UNL     1       1.622   8.486  19.337  0.00  0.00    +0.000 A 
ATOM     23  C   UNL     1       1.933   7.967  18.073  0.00  0.00    +0.000 A 
ATOM     24  C   UNL     1       2.249   6.613  17.902  0.00  0.00    +0.000 A 
BRANCH  22  25
ATOM     25  C   UNL     1       1.348   9.971  19.537  0.00  0.00    +0.000 C 
ATOM     26  C   UNL     1       1.769  10.795  18.314  0.00  0.00    +0.000 C 
ATOM     27  C   UNL     1      -0.120  10.258  19.869  0.00  0.00    +0.000 C 
ENDBRANCH  22  25
ENDBRANCH  18  19
ENDBRANCH   7  18
TORSDOF 6
ENDMDL
MODEL 3
REMARK VINA RESULT:      -8.0      0.648      1.119
REMARK  Name = 
REMARK  10 active torsions:
REMARK  status: ('A' for Active; 'I' for Inactive)
REMARK    1  A    between atoms: C_1  and  C_2
REMARK    2  A    between atoms: C_2  and  C_3
REMARK    3  A    between atoms: C_2  and  C_4
REMARK    4  A    between atoms: C_4  and  N_5
REMARK    5  A    between atoms: C_6  and  C_8
REMARK    6  A    between atoms: N_14  and  C_15
REMARK    7  A    between atoms: C_15  and  C_16
REMARK    8  A    between atoms: C_19  and  C_20
REMARK    9  A    between atoms: C_20  and  C_21
REMARK   10  A    between atoms: C_20  and  C_22
REMARK                            x       y       z     vdW  Elec       q    Type
REMARK                         _______ _______ _______ _____ _____    ______ ____
ROOT
ATOM      1  C   UNL     1       6.862   4.811  15.582  0.00  0.00    +0.000 C 
ATOM      2  N   UNL     1       7.626   4.309  16.493  0.00  0.00    +0.000 NA
ATOM      3  O   UNL     1       7.061   4.697  17.734  0.00  0.00    +0.000 OA
ATOM      4  C   UNL     1       5.718   5.179  17.491  0.00  0.00    +0.000 C 
ATOM      5  C   UNL     1       5.410   6.310  18.455  0.00  0.00    +0.000 C 
ATOM      6  C   UNL     1       4.986   5.556  19.702  0.00  0.00    +0.000 C 
ATOM      7  N   UNL     1       4.163   4.434  19.222  0.00  0.00    +0.000 NA
ATOM      8  C   UNL     1       4.704   4.084  17.877  0.00  0.00    +0.000 C 
ATOM      9  C   UNL     1       5.712   5.614  16.044  0.00  0.00    +0.000 C 
ENDROOT
BRANCH   1  11
ATOM     10  N   UNL     1       6.433   3.618  13.508  0.00  0.00    +0.000 N 
ATOM     11  C   UNL     1       7.114   4.652  14.105  0.00  0.00    +0.000 C 
ATOM     12  O   UNL     1       7.878   5.422  13.551  0.00  0.00    +0.000 OA
ATOM     13  H   UNL     1       5.908   2.996  14.113  0.00  0.00    +0.000 HD
BRANCH  10  14
ATOM     14  C   UNL     1       6.554   3.345  12.089  0.00  0.00    +0.000 C 
BRANCH  14  16
ATOM     15  C   UNL     1       4.372   2.857  10.923  0.00  0.00    +0.000 C 
ATOM     16  C   UNL     1       5.588   2.249  11.622  0.00  0.00    +0.000 C 
ATOM     17  C   UNL     1       6.300   1.279  10.677  0.00  0.00    +0.000 C 
ENDBRANCH  14  16
ENDBRANCH  10  14
ENDBRANCH   1  11
BRANCH   7  18
ATOM     18  C   UNL     1       2.724   4.738  19.139  0.00  0.00    +0.000 C 
BRANCH  18  19
ATOM     19  C   UNL     1       2.362   6.211  19.210  0.00  0.00    +0.000 A 
ATOM     20  C   UNL     1       2.318   6.999  18.052  0.00  0.00    +0.000 A 
ATOM     21  C   UNL     1       1.889   8.335  18.107  0.00  0.00    +0.000 A 
ATOM     22  C   UNL     1       1.467   8.905  19.319  0.00  0.00    +0.000 A 
ATOM     23  C   UNL     1       1.546   8.122  20.478  0.00  0.00    +0.000 A 
ATOM     24  C   UNL     1       1.999   6.798  20.430  0.00  0.00    +0.000 A 
BRANCH  22  25
ATOM     25  C   UNL     1       0.907  10.322  19.356  0.00  0.00    +0.000 C 
ATOM     26  C   UNL     1       0.796  10.849  20.792  0.00  0.00    +0.000 C 
ATOM     27  C   UNL     1       1.730  11.301  18.512  0.00  0.00    +0.000 C 
ENDBRANCH  22  25
ENDBRANCH  18  19
ENDBRANCH   7  18
TORSDOF 6
ENDMDL
MODEL 4
REMARK VINA RESULT:      -7.8      3.686      7.914
REMARK  Name = 
REMARK  10 active torsions:
REMARK  status: ('A' for Active; 'I' for Inactive)
REMARK    1  A    between atoms: C_1  and  C_2
REMARK    2  A    between atoms: C_2  and  C_3
REMARK    3  A    between atoms: C_2  and  C_4
REMARK    4  A    between atoms: C_4  and  N_5
REMARK    5  A    between atoms: C_6  and  C_8
REMARK    6  A    between atoms: N_14  and  C_15
REMARK    7  A    between atoms: C_15  and  C_16
REMARK    8  A    between atoms: C_19  and  C_20
REMARK    9  A    between atoms: C_20  and  C_21
REMARK   10  A    between atoms: C_20  and  C_22
REMARK                            x       y       z     vdW  Elec       q    Type
REMARK                         _______ _______ _______ _____ _____    ______ ____
ROOT
ATOM      1  C   UNL     1       2.043   6.923  20.048  0.00  0.00    +0.000 C 
ATOM      2  N   UNL     1       1.905   5.864  20.773  0.00  0.00    +0.000 NA
ATOM      3  O   UNL     1       2.479   4.803  20.028  0.00  0.00    +0.000 OA
ATOM      4  C   UNL     1       3.269   5.375  18.957  0.00  0.00    +0.000 C 
ATOM      5  C   UNL     1       3.180   4.479  17.736  0.00  0.00    +0.000 C 
ATOM      6  C   UNL     1       4.230   3.427  18.039  0.00  0.00    +0.000 C 
ATOM      7  N   UNL     1       5.362   4.158  18.629  0.00  0.00    +0.000 NA
ATOM      8  C   UNL     1       4.761   5.324  19.339  0.00  0.00    +0.000 C 
ATOM      9  C   UNL     1       2.686   6.750  18.730  0.00  0.00    +0.000 C 
ENDROOT
BRANCH   1  11
ATOM     10  N   UNL     1       1.222   9.124  19.423  0.00  0.00    +0.000 N 
ATOM     11  C   UNL     1       1.547   8.284  20.462  0.00  0.00    +0.000 C 
ATOM     12  O   UNL     1       1.468   8.547  21.648  0.00  0.00    +0.000 OA
ATOM     13  H   UNL     1       1.433   8.805  18.483  0.00  0.00    +0.000 HD
BRANCH  10  14
ATOM     14  C   UNL     1       0.713  10.462  19.656  0.00  0.00    +0.000 C 
BRANCH  14  16
ATOM     15  C   UNL     1      -1.337  11.890  19.999  0.00  0.00    +0.000 C 
ATOM     16  C   UNL     1      -0.812  10.538  19.514  0.00  0.00    +0.000 C 
ATOM     17  C   UNL     1      -1.224  10.313  18.058  0.00  0.00    +0.000 C 
ENDBRANCH  14  16
ENDBRANCH  10  14
ENDBRANCH   1  11
BRANCH   7  18
ATOM     18  C   UNL     1       6.362   4.609  17.646  0.00  0.00    +0.000 C 
BRANCH  18  19
ATOM     19  C   UNL     1       6.939   5.993  17.888  0.00  0.00    +0.000 A 
ATOM     20  C   UNL     1       7.927   6.203  18.858  0.00  0.00    +0.000 A 
ATOM     21  C   UNL     1       8.528   7.463  19.014  0.00  0.00    +0.000 A 
ATOM     22  C   UNL     1       8.173   8.535  18.181  0.00  0.00    +0.000 A 
ATOM     23  C   UNL     1       7.160   8.328  17.235  0.00  0.00    +0.000 A 
ATOM     24  C   UNL     1       6.541   7.080  17.097  0.00  0.00    +0.000 A 
BRANCH  22  25
ATOM     25  C   UNL     1       8.898   9.871  18.285  0.00  0.00    +0.000 C 
ATOM     26  C   UNL     1       8.077  11.011  17.670  0.00  0.00    +0.000 C 
ATOM     27  C   UNL     1       9.270  10.226  19.728  0.00  0.00    +0.000 C 
ENDBRANCH  22  25
ENDBRANCH  18  19
ENDBRANCH   7  18
TORSDOF 6
ENDMDL
MODEL 5
REMARK VINA RESULT:      -7.8      1.699      2.630
REMARK  Name = 
REMARK  10 active torsions:
REMARK  status: ('A' for Active; 'I' for Inactive)
REMARK    1  A    between atoms: C_1  and  C_2
REMARK    2  A    between atoms: C_2  and  C_3
REMARK    3  A    between atoms: C_2  and  C_4
REMARK    4  A    between atoms: C_4  and  N_5
REMARK    5  A    between atoms: C_6  and  C_8
REMARK    6  A    between atoms: N_14  and  C_15
REMARK    7  A    between atoms: C_15  and  C_16
REMARK    8  A    between atoms: C_19  and  C_20
REMARK    9  A    between atoms: C_20  and  C_21
REMARK   10  A    between atoms: C_20  and  C_22
REMARK                            x       y       z     vdW  Elec       q    Type
REMARK                         _______ _______ _______ _____ _____    ______ ____
ROOT
ATOM      1  C   UNL     1       5.295   4.250  16.454  0.00  0.00    +0.000 C 
ATOM      2  N   UNL     1       4.258   3.493  16.328  0.00  0.00    +0.000 NA
ATOM      3  O   UNL     1       3.513   3.648  17.525  0.00  0.00    +0.000 OA
ATOM      4  C   UNL     1       4.015   4.811  18.225  0.00  0.00    +0.000 C 
ATOM      5  C   UNL     1       3.939   4.567  19.721  0.00  0.00    +0.000 C 
ATOM      6  C   UNL     1       2.496   4.923  20.026  0.00  0.00    +0.000 C 
ATOM      7  N   UNL     1       2.206   6.118  19.218  0.00  0.00    +0.000 NA
ATOM      8  C   UNL     1       3.056   5.997  17.999  0.00  0.00    +0.000 C 
ATOM      9  C   UNL     1       5.429   4.993  17.724  0.00  0.00    +0.000 C 
ENDROOT
BRANCH   1  11
ATOM     10  N   UNL     1       6.023   3.897  14.162  0.00  0.00    +0.000 N 
ATOM     11  C   UNL     1       6.370   4.370  15.405  0.00  0.00    +0.000 C 
ATOM     12  O   UNL     1       7.441   4.862  15.711  0.00  0.00    +0.000 OA
ATOM     13  H   UNL     1       5.130   3.422  14.077  0.00  0.00    +0.000 HD
BRANCH  10  14
ATOM     14  C   UNL     1       6.940   3.957  13.041  0.00  0.00    +0.000 C 
BRANCH  14  16
ATOM     15  C   UNL     1       6.927   2.079  11.358  0.00  0.00    +0.000 C 
ATOM     16  C   UNL     1       6.313   3.424  11.746  0.00  0.00    +0.000 C 
ATOM     17  C   UNL     1       4.799   3.276  11.909  0.00  0.00    +0.000 C 
ENDBRANCH  14  16
ENDBRANCH  10  14
ENDBRANCH   1  11
BRANCH   7  18
ATOM     18  C   UNL     1       2.473   7.390  19.912  0.00  0.00    +0.000 C 
BRANCH  18  19
ATOM     19  C   UNL     1       1.515   8.524  19.592  0.00  0.00    +0.000 A 
ATOM     20  C   UNL     1       1.422   9.045  18.295  0.00  0.00    +0.000 A 
ATOM     21  C   UNL     1       0.469  10.026  17.980  0.00  0.00    +0.000 A 
ATOM     22  C   UNL     1      -0.435  10.487  18.950  0.00  0.00    +0.000 A 
ATOM     23  C   UNL     1      -0.316   9.986  20.253  0.00  0.00    +0.000 A 
ATOM     24  C   UNL     1       0.653   9.028  20.576  0.00  0.00    +0.000 A 
BRANCH  22  25
ATOM     25  C   UNL     1      -1.534  11.476  18.579  0.00  0.00    +0.000 C 
ATOM     26  C   UNL     1      -0.998  12.909  18.484  0.00  0.00    +0.000 C 
ATOM     27  C   UNL     1      -2.241  11.104  17.272  0.00  0.00    +0.000 C 
ENDBRANCH  22  25
ENDBRANCH  18  19
ENDBRANCH   7  18
TORSDOF 6
ENDMDL
MODEL 6
REMARK VINA RESULT:      -7.7      1.537      2.463
REMARK  Name = 
REMARK  10 active torsions:
REMARK  status: ('A' for Active; 'I' for Inactive)
REMARK    1  A    between atoms: C_1  and  C_2
REMARK    2  A    between atoms: C_2  and  C_3
REMARK    3  A    between atoms: C_2  and  C_4
REMARK    4  A    between atoms: C_4  and  N_5
REMARK    5  A    between atoms: C_6  and  C_8
REMARK    6  A    between atoms: N_14  and  C_15
REMARK    7  A    between atoms: C_15  and  C_16
REMARK    8  A    between atoms: C_19  and  C_20
REMARK    9  A    between atoms: C_20  and  C_21
REMARK   10  A    between atoms: C_20  and  C_22
REMARK                            x       y       z     vdW  Elec       q    Type
REMARK                         _______ _______ _______ _____ _____    ______ ____
ROOT
ATOM      1  C   UNL     1       5.569   4.376  15.994  0.00  0.00    +0.000 C 
ATOM      2  N   UNL     1       4.650   3.487  16.165  0.00  0.00    +0.000 NA
ATOM      3  O   UNL     1       4.093   3.741  17.444  0.00  0.00    +0.000 OA
ATOM      4  C   UNL     1       4.521   5.055  17.873  0.00  0.00    +0.000 C 
ATOM      5  C   UNL     1       4.724   5.050  19.377  0.00  0.00    +0.000 C 
ATOM      6  C   UNL     1       3.312   5.270  19.887  0.00  0.00    +0.000 C 
ATOM      7  N   UNL     1       2.721   6.274  18.988  0.00  0.00    +0.000 NA
ATOM      8  C   UNL     1       3.373   6.062  17.663  0.00  0.00    +0.000 C 
ATOM      9  C   UNL     1       5.793   5.325  17.103  0.00  0.00    +0.000 C 
ENDROOT
BRANCH   1  11
ATOM     10  N   UNL     1       6.043   3.635  13.729  0.00  0.00    +0.000 N 
ATOM     11  C   UNL     1       6.431   4.455  14.761  0.00  0.00    +0.000 C 
ATOM     12  O   UNL     1       7.383   5.214  14.755  0.00  0.00    +0.000 OA
ATOM     13  H   UNL     1       5.288   2.982  13.911  0.00  0.00    +0.000 HD
BRANCH  10  14
ATOM     14  C   UNL     1       6.758   3.607  12.468  0.00  0.00    +0.000 C 
BRANCH  14  16
ATOM     15  C   UNL     1       6.201   1.411  11.361  0.00  0.00    +0.000 C 
ATOM     16  C   UNL     1       5.955   2.920  11.357  0.00  0.00    +0.000 C 
ATOM     17  C   UNL     1       4.461   3.202  11.527  0.00  0.00    +0.000 C 
ENDBRANCH  14  16
ENDBRANCH  10  14
ENDBRANCH   1  11
BRANCH   7  18
ATOM     18  C   UNL     1       2.904   7.664  19.439  0.00  0.00    +0.000 C 
BRANCH  18  19
ATOM     19  C   UNL     1       1.666   8.542  19.370  0.00  0.00    +0.000 A 
ATOM     20  C   UNL     1       0.954   8.876  20.529  0.00  0.00    +0.000 A 
ATOM     21  C   UNL     1      -0.132   9.764  20.476  0.00  0.00    +0.000 A 
ATOM     22  C   UNL     1      -0.511  10.363  19.265  0.00  0.00    +0.000 A 
ATOM     23  C   UNL     1       0.184  10.000  18.104  0.00  0.00    +0.000 A 
ATOM     24  C   UNL     1       1.249   9.092  18.150  0.00  0.00    +0.000 A 
BRANCH  22  25
ATOM     25  C   UNL     1      -1.624  11.404  19.229  0.00  0.00    +0.000 C 
ATOM     26  C   UNL     1      -1.839  12.051  20.603  0.00  0.00    +0.000 C 
ATOM     27  C   UNL     1      -1.373  12.494  18.182  0.00  0.00    +0.000 C 
ENDBRANCH  22  25
ENDBRANCH  18  19
ENDBRANCH   7  18
TORSDOF 6
ENDMDL
MODEL 7
REMARK VINA RESULT:      -7.6      1.986      3.614
REMARK  Name = 
REMARK  10 active torsions:
REMARK  status: ('A' for Active; 'I' for Inactive)
REMARK    1  A    between atoms: C_1  and  C_2
REMARK    2  A    between atoms: C_2  and  C_3
REMARK    3  A    between atoms: C_2  and  C_4
REMARK    4  A    between atoms: C_4  and  N_5
REMARK    5  A    between atoms: C_6  and  C_8
REMARK    6  A    between atoms: N_14  and  C_15
REMARK    7  A    between atoms: C_15  and  C_16
REMARK    8  A    between atoms: C_19  and  C_20
REMARK    9  A    between atoms: C_20  and  C_21
REMARK   10  A    between atoms: C_20  and  C_22
REMARK                            x       y       z     vdW  Elec       q    Type
REMARK                         _______ _______ _______ _____ _____    ______ ____
ROOT
ATOM      1  C   UNL     1       4.646   4.405  17.463  0.00  0.00    +0.000 C 
ATOM      2  N   UNL     1       3.508   3.940  17.070  0.00  0.00    +0.000 NA
ATOM      3  O   UNL     1       2.622   4.097  18.166  0.00  0.00    +0.000 OA
ATOM      4  C   UNL     1       3.233   4.999  19.119  0.00  0.00    +0.000 C 
ATOM      5  C   UNL     1       2.854   4.574  20.525  0.00  0.00    +0.000 C 
ATOM      6  C   UNL     1       1.489   5.214  20.693  0.00  0.00    +0.000 C 
ATOM      7  N   UNL     1       1.600   6.545  20.075  0.00  0.00    +0.000 NA
ATOM      8  C   UNL     1       2.600   6.398  18.978  0.00  0.00    +0.000 C 
ATOM      9  C   UNL     1       4.717   4.909  18.850  0.00  0.00    +0.000 C 
ENDROOT
BRANCH   1  11
ATOM     10  N   UNL     1       5.649   4.416  15.250  0.00  0.00    +0.000 N 
ATOM     11  C   UNL     1       5.883   4.413  16.604  0.00  0.00    +0.000 C 
ATOM     12  O   UNL     1       6.975   4.417  17.143  0.00  0.00    +0.000 OA
ATOM     13  H   UNL     1       4.687   4.311  14.943  0.00  0.00    +0.000 HD
BRANCH  10  14
ATOM     14  C   UNL     1       6.734   4.441  14.289  0.00  0.00    +0.000 C 
BRANCH  14  16
ATOM     15  C   UNL     1       4.920   3.570  12.769  0.00  0.00    +0.000 C 
ATOM     16  C   UNL     1       6.425   3.609  13.038  0.00  0.00    +0.000 C 
ATOM     17  C   UNL     1       7.155   4.184  11.822  0.00  0.00    +0.000 C 
ENDBRANCH  14  16
ENDBRANCH  10  14
ENDBRANCH   1  11
BRANCH   7  18
ATOM     18  C   UNL     1       2.010   7.607  21.010  0.00  0.00    +0.000 C 
BRANCH  18  19
ATOM     19  C   UNL     1       0.987   8.706  21.240  0.00  0.00    +0.000 A 
ATOM     20  C   UNL     1       0.544   9.021  22.531  0.00  0.00    +0.000 A 
ATOM     21  C   UNL     1      -0.328  10.100  22.750  0.00  0.00    +0.000 A 
ATOM     22  C   UNL     1      -0.753  10.907  21.684  0.00  0.00    +0.000 A 
ATOM     23  C   UNL     1      -0.334  10.567  20.391  0.00  0.00    +0.000 A 
ATOM     24  C   UNL     1       0.513   9.475  20.167  0.00  0.00    +0.000 A 
BRANCH  22  25
ATOM     25  C   UNL     1      -1.616  12.137  21.938  0.00  0.00    +0.000 C 
ATOM     26  C   UNL     1      -2.455  12.505  20.709  0.00  0.00    +0.000 C 
ATOM     27  C   UNL     1      -2.534  11.969  23.154  0.00  0.00    +0.000 C 
ENDBRANCH  22  25
ENDBRANCH  18  19
ENDBRANCH   7  18
TORSDOF 6
ENDMDL
MODEL 8
REMARK VINA RESULT:      -7.5      3.702      8.197
REMARK  Name = 
REMARK  10 active torsions:
REMARK  status: ('A' for Active; 'I' for Inactive)
REMARK    1  A    between atoms: C_1  and  C_2
REMARK    2  A    between atoms: C_2  and  C_3
REMARK    3  A    between atoms: C_2  and  C_4
REMARK    4  A    between atoms: C_4  and  N_5
REMARK    5  A    between atoms: C_6  and  C_8
REMARK    6  A    between atoms: N_14  and  C_15
REMARK    7  A    between atoms: C_15  and  C_16
REMARK    8  A    between atoms: C_19  and  C_20
REMARK    9  A    between atoms: C_20  and  C_21
REMARK   10  A    between atoms: C_20  and  C_22
REMARK                            x       y       z     vdW  Elec       q    Type
REMARK                         _______ _______ _______ _____ _____    ______ ____
ROOT
ATOM      1  C   UNL     1       2.128   7.071  19.535  0.00  0.00    +0.000 C 
ATOM      2  N   UNL     1       1.844   6.061  20.287  0.00  0.00    +0.000 NA
ATOM      3  O   UNL     1       2.465   4.938  19.685  0.00  0.00    +0.000 OA
ATOM      4  C   UNL     1       3.419   5.417  18.708  0.00  0.00    +0.000 C 
ATOM      5  C   UNL     1       3.457   4.456  17.533  0.00  0.00    +0.000 C 
ATOM      6  C   UNL     1       4.407   3.383  18.033  0.00  0.00    +0.000 C 
ATOM      7  N   UNL     1       5.480   4.104  18.736  0.00  0.00    +0.000 NA
ATOM      8  C   UNL     1       4.842   5.330  19.296  0.00  0.00    +0.000 C 
ATOM      9  C   UNL     1       2.937   6.798  18.330  0.00  0.00    +0.000 C 
ENDROOT
BRANCH   1  11
ATOM     10  N   UNL     1       1.500   8.790  21.135  0.00  0.00    +0.000 N 
ATOM     11  C   UNL     1       1.644   8.471  19.805  0.00  0.00    +0.000 C 
ATOM     12  O   UNL     1       1.418   9.209  18.863  0.00  0.00    +0.000 OA
ATOM     13  H   UNL     1       1.629   8.042  21.809  0.00  0.00    +0.000 HD
BRANCH  10  14
ATOM     14  C   UNL     1       1.060  10.104  21.560  0.00  0.00    +0.000 C 
BRANCH  14  16
ATOM     15  C   UNL     1      -0.835  10.105  23.225  0.00  0.00    +0.000 C 
ATOM     16  C   UNL     1      -0.462  10.178  21.744  0.00  0.00    +0.000 C 
ATOM     17  C   UNL     1      -1.010  11.469  21.133  0.00  0.00    +0.000 C 
ENDBRANCH  14  16
ENDBRANCH  10  14
ENDBRANCH   1  11
BRANCH   7  18
ATOM     18  C   UNL     1       6.624   4.459  17.881  0.00  0.00    +0.000 C 
BRANCH  18  19
ATOM     19  C   UNL     1       7.129   5.884  18.022  0.00  0.00    +0.000 A 
ATOM     20  C   UNL     1       8.039   6.231  19.030  0.00  0.00    +0.000 A 
ATOM     21  C   UNL     1       8.578   7.525  19.099  0.00  0.00    +0.000 A 
ATOM     22  C   UNL     1       8.241   8.496  18.143  0.00  0.00    +0.000 A 
ATOM     23  C   UNL     1       7.305   8.153  17.157  0.00  0.00    +0.000 A 
ATOM     24  C   UNL     1       6.746   6.871  17.103  0.00  0.00    +0.000 A 
BRANCH  22  25
ATOM     25  C   UNL     1       8.905   9.867  18.161  0.00  0.00    +0.000 C 
ATOM     26  C   UNL     1       7.986  10.950  17.585  0.00  0.00    +0.000 C 
ATOM     27  C   UNL     1       9.365  10.277  19.564  0.00  0.00    +0.000 C 
ENDBRANCH  22  25
ENDBRANCH  18  19
ENDBRANCH   7  18
TORSDOF 6
ENDMDL
MODEL 9
REMARK VINA RESULT:      -7.3      2.113      3.850
REMARK  Name = 
REMARK  10 active torsions:
REMARK  status: ('A' for Active; 'I' for Inactive)
REMARK    1  A    between atoms: C_1  and  C_2
REMARK    2  A    between atoms: C_2  and  C_3
REMARK    3  A    between atoms: C_2  and  C_4
REMARK    4  A    between atoms: C_4  and  N_5
REMARK    5  A    between atoms: C_6  and  C_8
REMARK    6  A    between atoms: N_14  and  C_15
REMARK    7  A    between atoms: C_15  and  C_16
REMARK    8  A    between atoms: C_19  and  C_20
REMARK    9  A    between atoms: C_20  and  C_21
REMARK   10  A    between atoms: C_20  and  C_22
REMARK                            x       y       z     vdW  Elec       q    Type
REMARK                         _______ _______ _______ _____ _____    ______ ____
ROOT
ATOM      1  C   UNL     1       4.634   4.660  17.791  0.00  0.00    +0.000 C 
ATOM      2  N   UNL     1       3.508   4.300  17.274  0.00  0.00    +0.000 NA
ATOM      3  O   UNL     1       2.540   4.458  18.298  0.00  0.00    +0.000 OA
ATOM      4  C   UNL     1       3.122   5.258  19.354  0.00  0.00    +0.000 C 
ATOM      5  C   UNL     1       2.592   4.781  20.694  0.00  0.00    +0.000 C 
ATOM      6  C   UNL     1       1.263   5.507  20.785  0.00  0.00    +0.000 C 
ATOM      7  N   UNL     1       1.517   6.860  20.264  0.00  0.00    +0.000 NA
ATOM      8  C   UNL     1       2.598   6.704  19.249  0.00  0.00    +0.000 C 
ATOM      9  C   UNL     1       4.615   5.079  19.207  0.00  0.00    +0.000 C 
ENDROOT
BRANCH   1  11
ATOM     10  N   UNL     1       5.837   4.326  15.705  0.00  0.00    +0.000 N 
ATOM     11  C   UNL     1       5.941   4.629  17.042  0.00  0.00    +0.000 C 
ATOM     12  O   UNL     1       6.972   4.866  17.645  0.00  0.00    +0.000 OA
ATOM     13  H   UNL     1       4.922   4.053  15.360  0.00  0.00    +0.000 HD
BRANCH  10  14
ATOM     14  C   UNL     1       7.001   4.274  14.843  0.00  0.00    +0.000 C 
BRANCH  14  16
ATOM     15  C   UNL     1       7.893   5.247  12.694  0.00  0.00    +0.000 C 
ATOM     16  C   UNL     1       6.670   4.654  13.393  0.00  0.00    +0.000 C 
ATOM     17  C   UNL     1       6.173   3.430  12.622  0.00  0.00    +0.000 C 
ENDBRANCH  14  16
ENDBRANCH  10  14
ENDBRANCH   1  11
BRANCH   7  18
ATOM     18  C   UNL     1       1.910   7.835  21.295  0.00  0.00    +0.000 C 
BRANCH  18  19
ATOM     19  C   UNL     1       0.966   9.010  21.478  0.00  0.00    +0.000 A 
ATOM     20  C   UNL     1       0.555   9.782  20.384  0.00  0.00    +0.000 A 
ATOM     21  C   UNL     1      -0.393  10.807  20.541  0.00  0.00    +0.000 A 
ATOM     22  C   UNL     1      -0.973  11.063  21.793  0.00  0.00    +0.000 A 
ATOM     23  C   UNL     1      -0.533  10.310  22.890  0.00  0.00    +0.000 A 
ATOM     24  C   UNL     1       0.432   9.306  22.740  0.00  0.00    +0.000 A 
BRANCH  22  25
ATOM     25  C   UNL     1      -2.074  12.106  21.939  0.00  0.00    +0.000 C 
ATOM     26  C   UNL     1      -2.643  12.133  23.363  0.00  0.00    +0.000 C 
ATOM     27  C   UNL     1      -1.608  13.511  21.546  0.00  0.00    +0.000 C 
ENDBRANCH  22  25
ENDBRANCH  18  19
ENDBRANCH   7  18
TORSDOF 6
ENDMDL
