MODEL 1
REMARK VINA RESULT:      -7.7      0.000      0.000
REMARK  Name = 
REMARK  5 active torsions:
REMARK  status: ('A' for Active; 'I' for Inactive)
REMARK    1  A    between atoms: N_4  and  C_5
REMARK    2  A    between atoms: C_5  and  C_6
REMARK    3  A    between atoms: C_6  and  O_7
REMARK    4  A    between atoms: C_9  and  O_10
REMARK    5  A    between atoms: C_13  and  C_14
REMARK                            x       y       z     vdW  Elec       q    Type
REMARK                         _______ _______ _______ _____ _____    ______ ____
ROOT
ATOM      1  O   UNL     1       3.301   6.638  19.594  0.00  0.00    +0.000 OA
ATOM      2  C   UNL     1       3.522   5.507  19.184  0.00  0.00    +0.000 C 
ATOM      3  C   UNL     1       3.097   4.284  19.994  0.00  0.00    +0.000 C 
ATOM      4  N   UNL     1       2.507   4.502  21.121  0.00  0.00    +0.000 NA
ATOM      5  C   UNL     1       3.412   2.958  19.395  0.00  0.00    +0.000 C 
ATOM      6  C   UNL     1       4.034   2.846  18.217  0.00  0.00    +0.000 C 
ATOM      7  C   UNL     1       4.449   4.020  17.429  0.00  0.00    +0.000 A 
ATOM      8  N   UNL     1       5.075   3.791  16.244  0.00  0.00    +0.000 NA
ATOM      9  C   UNL     1       5.470   4.858  15.499  0.00  0.00    +0.000 A 
ATOM     10  C   UNL     1       5.265   6.166  15.937  0.00  0.00    +0.000 A 
ATOM     11  C   UNL     1       4.620   6.394  17.146  0.00  0.00    +0.000 A 
ATOM     12  C   UNL     1       4.205   5.302  17.900  0.00  0.00    +0.000 A 
ENDROOT
BRANCH   9  13
ATOM     13  C   UNL     1       6.163   4.575  14.226  0.00  0.00    +0.000 A 
ATOM     14  C   UNL     1       5.665   3.611  13.327  0.00  0.00    +0.000 A 
ATOM     15  C   UNL     1       6.233   3.421  12.067  0.00  0.00    +0.000 A 
ATOM     16  C   UNL     1       7.338   4.174  11.687  0.00  0.00    +0.000 A 
ATOM     17  C   UNL     1       7.886   5.096  12.577  0.00  0.00    +0.000 A 
ATOM     18  C   UNL     1       7.307   5.292  13.835  0.00  0.00    +0.000 A 
ENDBRANCH   9  13
BRANCH   6  19
ATOM     19  O   UNL     1       4.331   1.608  17.671  0.00  0.00    +0.000 OA
ATOM     20  H   UNL     1       4.063   0.900  18.274  0.00  0.00    +0.000 HD
ENDBRANCH   6  19
BRANCH   4  21
ATOM     21  C   UNL     1       2.077   3.359  21.933  0.00  0.00    +0.000 C 
BRANCH  21  22
ATOM     22  C   UNL     1       0.973   2.601  21.198  0.00  0.00    +0.000 C 
BRANCH  22  23
ATOM     23  O   UNL     1       0.225   3.489  20.372  0.00  0.00    +0.000 OA
ATOM     24  H   UNL     1      -0.349   2.906  19.837  0.00  0.00    +0.000 HD
ENDBRANCH  22  23
ENDBRANCH  21  22
ENDBRANCH   4  21
TORSDOF 5
ENDMDL
MODEL 2
REMARK VINA RESULT:      -7.6      4.938      6.821
REMARK  Name = 
REMARK  5 active torsions:
REMARK  status: ('A' for Active; 'I' for Inactive)
REMARK    1  A    between atoms: N_4  and  C_5
REMARK    2  A    between atoms: C_5  and  C_6
REMARK    3  A    between atoms: C_6  and  O_7
REMARK    4  A    between atoms: C_9  and  O_10
REMARK    5  A    between atoms: C_13  and  C_14
REMARK                            x       y       z     vdW  Elec       q    Type
REMARK                         _______ _______ _______ _____ _____    ______ ____
ROOT
ATOM      1  O   UNL     1       0.132   8.859  22.298  0.00  0.00    +0.000 OA
ATOM      2  C   UNL     1       0.529   9.272  21.216  0.00  0.00    +0.000 C 
ATOM      3  C   UNL     1       0.218  10.697  20.763  0.00  0.00    +0.000 C 
ATOM      4  N   UNL     1      -0.480  11.429  21.562  0.00  0.00    +0.000 NA
ATOM      5  C   UNL     1       0.757  11.094  19.432  0.00  0.00    +0.000 C 
ATOM      6  C   UNL     1       1.468  10.249  18.678  0.00  0.00    +0.000 C 
ATOM      7  C   UNL     1       1.771   8.873  19.108  0.00  0.00    +0.000 A 
ATOM      8  N   UNL     1       2.503   8.098  18.262  0.00  0.00    +0.000 NA
ATOM      9  C   UNL     1       2.795   6.824  18.634  0.00  0.00    +0.000 A 
ATOM     10  C   UNL     1       2.341   6.298  19.844  0.00  0.00    +0.000 A 
ATOM     11  C   UNL     1       1.599   7.095  20.706  0.00  0.00    +0.000 A 
ATOM     12  C   UNL     1       1.313   8.403  20.330  0.00  0.00    +0.000 A 
ENDROOT
BRANCH   9  13
ATOM     13  C   UNL     1       3.576   6.004  17.686  0.00  0.00    +0.000 A 
ATOM     14  C   UNL     1       4.531   6.593  16.834  0.00  0.00    +0.000 A 
ATOM     15  C   UNL     1       5.365   5.820  16.024  0.00  0.00    +0.000 A 
ATOM     16  C   UNL     1       5.241   4.436  16.026  0.00  0.00    +0.000 A 
ATOM     17  C   UNL     1       4.267   3.829  16.818  0.00  0.00    +0.000 A 
ATOM     18  C   UNL     1       3.440   4.606  17.637  0.00  0.00    +0.000 A 
ENDBRANCH   9  13
BRANCH   6  19
ATOM     19  O   UNL     1       1.957  10.625  17.438  0.00  0.00    +0.000 OA
ATOM     20  H   UNL     1       2.137  11.575  17.419  0.00  0.00    +0.000 HD
ENDBRANCH   6  19
BRANCH   4  21
ATOM     21  C   UNL     1      -0.801  12.806  21.172  0.00  0.00    +0.000 C 
BRANCH  21  22
ATOM     22  C   UNL     1      -0.319  13.767  22.257  0.00  0.00    +0.000 C 
BRANCH  22  23
ATOM     23  O   UNL     1       1.074  14.027  22.107  0.00  0.00    +0.000 OA
ATOM     24  H   UNL     1       1.310  14.570  22.884  0.00  0.00    +0.000 HD
ENDBRANCH  22  23
ENDBRANCH  21  22
ENDBRANCH   4  21
TORSDOF 5
ENDMDL
MODEL 3
REMARK VINA RESULT:      -7.6      4.877      6.525
REMARK  Name = 
REMARK  5 active torsions:
REMARK  status: ('A' for Active; 'I' for Inactive)
REMARK    1  A    between atoms: N_4  and  C_5
REMARK    2  A    between atoms: C_5  and  C_6
REMARK    3  A    between atoms: C_6  and  O_7
REMARK    4  A    between atoms: C_9  and  O_10
REMARK    5  A    between atoms: C_13  and  C_14
REMARK                            x       y       z     vdW  Elec       q    Type
REMARK                         _______ _______ _______ _____ _____    ______ ____
ROOT
ATOM      1  O   UNL     1       0.106   8.595  22.206  0.00  0.00    +0.000 OA
ATOM      2  C   UNL     1       0.500   9.040  21.136  0.00  0.00    +0.000 C 
ATOM      3  C   UNL     1       0.114  10.446  20.684  0.00  0.00    +0.000 C 
ATOM      4  N   UNL     1      -0.645  11.130  21.473  0.00  0.00    +0.000 NA
ATOM      5  C   UNL     1       0.656  10.885  19.368  0.00  0.00    +0.000 C 
ATOM      6  C   UNL     1       1.432  10.090  18.624  0.00  0.00    +0.000 C 
ATOM      7  C   UNL     1       1.809   8.732  19.053  0.00  0.00    +0.000 A 
ATOM      8  N   UNL     1       2.604   8.009  18.219  0.00  0.00    +0.000 NA
ATOM      9  C   UNL     1       2.964   6.752  18.589  0.00  0.00    +0.000 A 
ATOM     10  C   UNL     1       2.518   6.191  19.786  0.00  0.00    +0.000 A 
ATOM     11  C   UNL     1       1.711   6.935  20.635  0.00  0.00    +0.000 A 
ATOM     12  C   UNL     1       1.354   8.226  20.262  0.00  0.00    +0.000 A 
ENDROOT
BRANCH   9  13
ATOM     13  C   UNL     1       3.813   5.987  17.653  0.00  0.00    +0.000 A 
ATOM     14  C   UNL     1       3.747   4.581  17.596  0.00  0.00    +0.000 A 
ATOM     15  C   UNL     1       4.447   3.853  16.634  0.00  0.00    +0.000 A 
ATOM     16  C   UNL     1       5.258   4.516  15.722  0.00  0.00    +0.000 A 
ATOM     17  C   UNL     1       5.388   5.902  15.789  0.00  0.00    +0.000 A 
ATOM     18  C   UNL     1       4.675   6.630  16.748  0.00  0.00    +0.000 A 
ENDBRANCH   9  13
BRANCH   6  19
ATOM     19  O   UNL     1       1.924  10.504  17.398  0.00  0.00    +0.000 OA
ATOM     20  H   UNL     1       1.321  11.141  16.989  0.00  0.00    +0.000 HD
ENDBRANCH   6  19
BRANCH   4  21
ATOM     21  C   UNL     1      -1.040  12.487  21.084  0.00  0.00    +0.000 C 
BRANCH  21  22
ATOM     22  C   UNL     1      -2.488  12.475  20.599  0.00  0.00    +0.000 C 
BRANCH  22  23
ATOM     23  O   UNL     1      -2.622  13.258  19.416  0.00  0.00    +0.000 OA
ATOM     24  H   UNL     1      -2.395  12.648  18.687  0.00  0.00    +0.000 HD
ENDBRANCH  22  23
ENDBRANCH  21  22
ENDBRANCH   4  21
TORSDOF 5
ENDMDL
MODEL 4
REMARK VINA RESULT:      -7.5      0.110      1.032
REMARK  Name = 
REMARK  5 active torsions:
REMARK  status: ('A' for Active; 'I' for Inactive)
REMARK    1  A    between atoms: N_4  and  C_5
REMARK    2  A    between atoms: C_5  and  C_6
REMARK    3  A    between atoms: C_6  and  O_7
REMARK    4  A    between atoms: C_9  and  O_10
REMARK    5  A    between atoms: C_13  and  C_14
REMARK                            x       y       z     vdW  Elec       q    Type
REMARK                         _______ _______ _______ _____ _____    ______ ____
ROOT
ATOM      1  O   UNL     1       3.300   6.662  19.599  0.00  0.00    +0.000 OA
ATOM      2  C   UNL     1       3.514   5.534  19.174  0.00  0.00    +0.000 C 
ATOM      3  C   UNL     1       3.115   4.305  19.986  0.00  0.00    +0.000 C 
ATOM      4  N   UNL     1       2.557   4.511  21.131  0.00  0.00    +0.000 NA
ATOM      5  C   UNL     1       3.417   2.983  19.368  0.00  0.00    +0.000 C 
ATOM      6  C   UNL     1       4.006   2.882  18.173  0.00  0.00    +0.000 C 
ATOM      7  C   UNL     1       4.394   4.064  17.382  0.00  0.00    +0.000 A 
ATOM      8  N   UNL     1       4.987   3.846  16.178  0.00  0.00    +0.000 NA
ATOM      9  C   UNL     1       5.357   4.919  15.430  0.00  0.00    +0.000 A 
ATOM     10  C   UNL     1       5.161   6.223  15.884  0.00  0.00    +0.000 A 
ATOM     11  C   UNL     1       4.550   6.440  17.112  0.00  0.00    +0.000 A 
ATOM     12  C   UNL     1       4.160   5.341  17.870  0.00  0.00    +0.000 A 
ENDROOT
BRANCH   9  13
ATOM     13  C   UNL     1       6.014   4.648  14.135  0.00  0.00    +0.000 A 
ATOM     14  C   UNL     1       7.194   5.324  13.765  0.00  0.00    +0.000 A 
ATOM     15  C   UNL     1       7.895   4.991  12.605  0.00  0.00    +0.000 A 
ATOM     16  C   UNL     1       7.414   3.990  11.771  0.00  0.00    +0.000 A 
ATOM     17  C   UNL     1       6.221   3.342  12.083  0.00  0.00    +0.000 A 
ATOM     18  C   UNL     1       5.526   3.670  13.252  0.00  0.00    +0.000 A 
ENDBRANCH   9  13
BRANCH   6  19
ATOM     19  O   UNL     1       4.291   1.649  17.610  0.00  0.00    +0.000 OA
ATOM     20  H   UNL     1       4.900   1.152  18.174  0.00  0.00    +0.000 HD
ENDBRANCH   6  19
BRANCH   4  21
ATOM     21  C   UNL     1       2.154   3.362  21.947  0.00  0.00    +0.000 C 
BRANCH  21  22
ATOM     22  C   UNL     1       1.082   2.565  21.206  0.00  0.00    +0.000 C 
BRANCH  22  23
ATOM     23  O   UNL     1       0.248   3.438  20.448  0.00  0.00    +0.000 OA
ATOM     24  H   UNL     1       0.612   3.404  19.542  0.00  0.00    +0.000 HD
ENDBRANCH  22  23
ENDBRANCH  21  22
ENDBRANCH   4  21
TORSDOF 5
ENDMDL
MODEL 5
REMARK VINA RESULT:      -7.5      4.119      8.244
REMARK  Name = 
REMARK  5 active torsions:
REMARK  status: ('A' for Active; 'I' for Inactive)
REMARK    1  A    between atoms: N_4  and  C_5
REMARK    2  A    between atoms: C_5  and  C_6
REMARK    3  A    between atoms: C_6  and  O_7
REMARK    4  A    between atoms: C_9  and  O_10
REMARK    5  A    between atoms: C_13  and  C_14
REMARK                            x       y       z     vdW  Elec       q    Type
REMARK                         _______ _______ _______ _____ _____    ______ ____
ROOT
ATOM      1  O   UNL     1       3.371   3.631  19.424  0.00  0.00    +0.000 OA
ATOM      2  C   UNL     1       3.362   4.744  18.915  0.00  0.00    +0.000 C 
ATOM      3  C   UNL     1       4.141   5.022  17.631  0.00  0.00    +0.000 C 
ATOM      4  N   UNL     1       4.806   4.041  17.122  0.00  0.00    +0.000 NA
ATOM      5  C   UNL     1       4.053   6.411  17.098  0.00  0.00    +0.000 C 
ATOM      6  C   UNL     1       3.336   7.358  17.712  0.00  0.00    +0.000 C 
ATOM      7  C   UNL     1       2.582   7.097  18.951  0.00  0.00    +0.000 A 
ATOM      8  N   UNL     1       1.886   8.133  19.491  0.00  0.00    +0.000 NA
ATOM      9  C   UNL     1       1.184   7.920  20.636  0.00  0.00    +0.000 A 
ATOM     10  C   UNL     1       1.186   6.676  21.268  0.00  0.00    +0.000 A 
ATOM     11  C   UNL     1       1.894   5.621  20.709  0.00  0.00    +0.000 A 
ATOM     12  C   UNL     1       2.600   5.837  19.531  0.00  0.00    +0.000 A 
ENDROOT
BRANCH   9  13
ATOM     13  C   UNL     1       0.453   9.069  21.206  0.00  0.00    +0.000 A 
ATOM     14  C   UNL     1      -0.124   8.998  22.490  0.00  0.00    +0.000 A 
ATOM     15  C   UNL     1      -0.707  10.113  23.094  0.00  0.00    +0.000 A 
ATOM     16  C   UNL     1      -0.755  11.322  22.411  0.00  0.00    +0.000 A 
ATOM     17  C   UNL     1      -0.242  11.408  21.118  0.00  0.00    +0.000 A 
ATOM     18  C   UNL     1       0.352  10.291  20.520  0.00  0.00    +0.000 A 
ENDBRANCH   9  13
BRANCH   6  19
ATOM     19  O   UNL     1       3.267   8.648  17.214  0.00  0.00    +0.000 OA
ATOM     20  H   UNL     1       3.039   8.636  16.273  0.00  0.00    +0.000 HD
ENDBRANCH   6  19
BRANCH   4  21
ATOM     21  C   UNL     1       5.567   4.259  15.888  0.00  0.00    +0.000 C 
BRANCH  21  22
ATOM     22  C   UNL     1       7.038   4.486  16.231  0.00  0.00    +0.000 C 
BRANCH  22  23
ATOM     23  O   UNL     1       7.525   5.657  15.583  0.00  0.00    +0.000 OA
ATOM     24  H   UNL     1       8.474   5.691  15.811  0.00  0.00    +0.000 HD
ENDBRANCH  22  23
ENDBRANCH  21  22
ENDBRANCH   4  21
TORSDOF 5
ENDMDL
MODEL 6
REMARK VINA RESULT:      -7.5      4.507      8.335
REMARK  Name = 
REMARK  5 active torsions:
REMARK  status: ('A' for Active; 'I' for Inactive)
REMARK    1  A    between atoms: N_4  and  C_5
REMARK    2  A    between atoms: C_5  and  C_6
REMARK    3  A    between atoms: C_6  and  O_7
REMARK    4  A    between atoms: C_9  and  O_10
REMARK    5  A    between atoms: C_13  and  C_14
REMARK                            x       y       z     vdW  Elec       q    Type
REMARK                         _______ _______ _______ _____ _____    ______ ____
ROOT
ATOM      1  O   UNL     1       3.766   7.858  16.110  0.00  0.00    +0.000 OA
ATOM      2  C   UNL     1       3.525   7.342  17.194  0.00  0.00    +0.000 C 
ATOM      3  C   UNL     1       4.131   5.992  17.568  0.00  0.00    +0.000 C 
ATOM      4  N   UNL     1       4.892   5.425  16.694  0.00  0.00    +0.000 NA
ATOM      5  C   UNL     1       3.774   5.463  18.914  0.00  0.00    +0.000 C 
ATOM      6  C   UNL     1       2.966   6.132  19.744  0.00  0.00    +0.000 C 
ATOM      7  C   UNL     1       2.378   7.436  19.390  0.00  0.00    +0.000 A 
ATOM      8  N   UNL     1       1.570   8.030  20.309  0.00  0.00    +0.000 NA
ATOM      9  C   UNL     1       1.012   9.232  20.006  0.00  0.00    +0.000 A 
ATOM     10  C   UNL     1       1.235   9.846  18.774  0.00  0.00    +0.000 A 
ATOM     11  C   UNL     1       2.064   9.237  17.841  0.00  0.00    +0.000 A 
ATOM     12  C   UNL     1       2.645   8.014  18.158  0.00  0.00    +0.000 A 
ENDROOT
BRANCH   9  13
ATOM     13  C   UNL     1       0.127   9.842  21.019  0.00  0.00    +0.000 A 
ATOM     14  C   UNL     1      -0.020   9.265  22.296  0.00  0.00    +0.000 A 
ATOM     15  C   UNL     1      -0.751   9.895  23.304  0.00  0.00    +0.000 A 
ATOM     16  C   UNL     1      -1.380  11.106  23.047  0.00  0.00    +0.000 A 
ATOM     17  C   UNL     1      -1.299  11.673  21.776  0.00  0.00    +0.000 A 
ATOM     18  C   UNL     1      -0.556  11.045  20.771  0.00  0.00    +0.000 A 
ENDBRANCH   9  13
BRANCH   6  19
ATOM     19  O   UNL     1       2.633   5.628  20.990  0.00  0.00    +0.000 OA
ATOM     20  H   UNL     1       3.409   5.614  21.568  0.00  0.00    +0.000 HD
ENDBRANCH   6  19
BRANCH   4  21
ATOM     21  C   UNL     1       5.499   4.129  17.010  0.00  0.00    +0.000 C 
BRANCH  21  22
ATOM     22  C   UNL     1       7.020   4.269  17.020  0.00  0.00    +0.000 C 
BRANCH  22  23
ATOM     23  O   UNL     1       7.487   4.530  18.340  0.00  0.00    +0.000 OA
ATOM     24  H   UNL     1       8.448   4.674  18.240  0.00  0.00    +0.000 HD
ENDBRANCH  22  23
ENDBRANCH  21  22
ENDBRANCH   4  21
TORSDOF 5
ENDMDL
MODEL 7
REMARK VINA RESULT:      -7.4      5.445      9.262
REMARK  Name = 
REMARK  5 active torsions:
REMARK  status: ('A' for Active; 'I' for Inactive)
REMARK    1  A    between atoms: N_4  and  C_5
REMARK    2  A    between atoms: C_5  and  C_6
REMARK    3  A    between atoms: C_6  and  O_7
REMARK    4  A    between atoms: C_9  and  O_10
REMARK    5  A    between atoms: C_13  and  C_14
REMARK                            x       y       z     vdW  Elec       q    Type
REMARK                         _______ _______ _______ _____ _____    ______ ____
ROOT
ATOM      1  O   UNL     1       2.798   5.557  20.241  0.00  0.00    +0.000 OA
ATOM      2  C   UNL     1       2.638   6.568  19.570  0.00  0.00    +0.000 C 
ATOM      3  C   UNL     1       3.335   6.729  18.221  0.00  0.00    +0.000 C 
ATOM      4  N   UNL     1       4.096   5.762  17.833  0.00  0.00    +0.000 NA
ATOM      5  C   UNL     1       3.063   7.997  17.488  0.00  0.00    +0.000 C 
ATOM      6  C   UNL     1       2.257   8.941  17.987  0.00  0.00    +0.000 C 
ATOM      7  C   UNL     1       1.581   8.793  19.288  0.00  0.00    +0.000 A 
ATOM      8  N   UNL     1       0.783   9.815  19.700  0.00  0.00    +0.000 NA
ATOM      9  C   UNL     1       0.150   9.705  20.898  0.00  0.00    +0.000 A 
ATOM     10  C   UNL     1       0.323   8.585  21.711  0.00  0.00    +0.000 A 
ATOM     11  C   UNL     1       1.135   7.543  21.283  0.00  0.00    +0.000 A 
ATOM     12  C   UNL     1       1.771   7.650  20.051  0.00  0.00    +0.000 A 
ENDROOT
BRANCH   9  13
ATOM     13  C   UNL     1      -0.695  10.839  21.323  0.00  0.00    +0.000 A 
ATOM     14  C   UNL     1      -1.276  11.706  20.377  0.00  0.00    +0.000 A 
ATOM     15  C   UNL     1      -2.177  12.703  20.753  0.00  0.00    +0.000 A 
ATOM     16  C   UNL     1      -2.495  12.876  22.094  0.00  0.00    +0.000 A 
ATOM     17  C   UNL     1      -1.894  12.069  23.059  0.00  0.00    +0.000 A 
ATOM     18  C   UNL     1      -0.999  11.063  22.677  0.00  0.00    +0.000 A 
ENDBRANCH   9  13
BRANCH   6  19
ATOM     19  O   UNL     1       2.017  10.120  17.303  0.00  0.00    +0.000 OA
ATOM     20  H   UNL     1       1.090  10.384  17.398  0.00  0.00    +0.000 HD
ENDBRANCH   6  19
BRANCH   4  21
ATOM     21  C   UNL     1       4.784   5.870  16.543  0.00  0.00    +0.000 C 
BRANCH  21  22
ATOM     22  C   UNL     1       6.292   5.939  16.775  0.00  0.00    +0.000 C 
BRANCH  22  23
ATOM     23  O   UNL     1       6.736   7.292  16.760  0.00  0.00    +0.000 OA
ATOM     24  H   UNL     1       6.909   7.508  17.698  0.00  0.00    +0.000 HD
ENDBRANCH  22  23
ENDBRANCH  21  22
ENDBRANCH   4  21
TORSDOF 5
ENDMDL
MODEL 8
REMARK VINA RESULT:      -7.4      5.338      9.149
REMARK  Name = 
REMARK  5 active torsions:
REMARK  status: ('A' for Active; 'I' for Inactive)
REMARK    1  A    between atoms: N_4  and  C_5
REMARK    2  A    between atoms: C_5  and  C_6
REMARK    3  A    between atoms: C_6  and  O_7
REMARK    4  A    between atoms: C_9  and  O_10
REMARK    5  A    between atoms: C_13  and  C_14
REMARK                            x       y       z     vdW  Elec       q    Type
REMARK                         _______ _______ _______ _____ _____    ______ ____
ROOT
ATOM      1  O   UNL     1       2.953   5.435  20.167  0.00  0.00    +0.000 OA
ATOM      2  C   UNL     1       2.783   6.446  19.498  0.00  0.00    +0.000 C 
ATOM      3  C   UNL     1       3.475   6.615  18.148  0.00  0.00    +0.000 C 
ATOM      4  N   UNL     1       4.245   5.657  17.757  0.00  0.00    +0.000 NA
ATOM      5  C   UNL     1       3.190   7.882  17.418  0.00  0.00    +0.000 C 
ATOM      6  C   UNL     1       2.377   8.817  17.920  0.00  0.00    +0.000 C 
ATOM      7  C   UNL     1       1.705   8.661  19.222  0.00  0.00    +0.000 A 
ATOM      8  N   UNL     1       0.898   9.675  19.637  0.00  0.00    +0.000 NA
ATOM      9  C   UNL     1       0.268   9.557  20.836  0.00  0.00    +0.000 A 
ATOM     10  C   UNL     1       0.453   8.437  21.647  0.00  0.00    +0.000 A 
ATOM     11  C   UNL     1       1.273   7.403  21.216  0.00  0.00    +0.000 A 
ATOM     12  C   UNL     1       1.906   7.519  19.983  0.00  0.00    +0.000 A 
ENDROOT
BRANCH   9  13
ATOM     13  C   UNL     1      -0.587  10.682  21.265  0.00  0.00    +0.000 A 
ATOM     14  C   UNL     1      -0.822  10.934  22.631  0.00  0.00    +0.000 A 
ATOM     15  C   UNL     1      -1.522  12.064  23.057  0.00  0.00    +0.000 A 
ATOM     16  C   UNL     1      -2.031  12.955  22.121  0.00  0.00    +0.000 A 
ATOM     17  C   UNL     1      -1.862  12.702  20.761  0.00  0.00    +0.000 A 
ATOM     18  C   UNL     1      -1.150  11.575  20.337  0.00  0.00    +0.000 A 
ENDBRANCH   9  13
BRANCH   6  19
ATOM     19  O   UNL     1       2.124   9.996  17.239  0.00  0.00    +0.000 OA
ATOM     20  H   UNL     1       1.574   9.826  16.461  0.00  0.00    +0.000 HD
ENDBRANCH   6  19
BRANCH   4  21
ATOM     21  C   UNL     1       4.930   5.772  16.466  0.00  0.00    +0.000 C 
BRANCH  21  22
ATOM     22  C   UNL     1       6.336   5.187  16.582  0.00  0.00    +0.000 C 
BRANCH  22  23
ATOM     23  O   UNL     1       7.284   6.041  15.948  0.00  0.00    +0.000 OA
ATOM     24  H   UNL     1       7.160   5.883  14.992  0.00  0.00    +0.000 HD
ENDBRANCH  22  23
ENDBRANCH  21  22
ENDBRANCH   4  21
TORSDOF 5
ENDMDL
MODEL 9
REMARK VINA RESULT:      -7.4      5.105      6.910
REMARK  Name = 
REMARK  5 active torsions:
REMARK  status: ('A' for Active; 'I' for Inactive)
REMARK    1  A    between atoms: N_4  and  C_5
REMARK    2  A    between atoms: C_5  and  C_6
REMARK    3  A    between atoms: C_6  and  O_7
REMARK    4  A    between atoms: C_9  and  O_10
REMARK    5  A    between atoms: C_13  and  C_14
REMARK                            x       y       z     vdW  Elec       q    Type
REMARK                         _______ _______ _______ _____ _____    ______ ____
ROOT
ATOM      1  O   UNL     1       0.017   8.998  22.285  0.00  0.00    +0.000 OA
ATOM      2  C   UNL     1       0.438   9.367  21.196  0.00  0.00    +0.000 C 
ATOM      3  C   UNL     1       0.155  10.778  20.687  0.00  0.00    +0.000 C 
ATOM      4  N   UNL     1      -0.546  11.549  21.447  0.00  0.00    +0.000 NA
ATOM      5  C   UNL     1       0.721  11.120  19.352  0.00  0.00    +0.000 C 
ATOM      6  C   UNL     1       1.432  10.239  18.641  0.00  0.00    +0.000 C 
ATOM      7  C   UNL     1       1.709   8.875  19.125  0.00  0.00    +0.000 A 
ATOM      8  N   UNL     1       2.444   8.060  18.321  0.00  0.00    +0.000 NA
ATOM      9  C   UNL     1       2.711   6.796  18.743  0.00  0.00    +0.000 A 
ATOM     10  C   UNL     1       2.230   6.321  19.963  0.00  0.00    +0.000 A 
ATOM     11  C   UNL     1       1.485   7.158  20.783  0.00  0.00    +0.000 A 
ATOM     12  C   UNL     1       1.224   8.456  20.355  0.00  0.00    +0.000 A 
ENDROOT
BRANCH   9  13
ATOM     13  C   UNL     1       3.496   5.932  17.839  0.00  0.00    +0.000 A 
ATOM     14  C   UNL     1       4.550   6.458  17.065  0.00  0.00    +0.000 A 
ATOM     15  C   UNL     1       5.381   5.636  16.304  0.00  0.00    +0.000 A 
ATOM     16  C   UNL     1       5.156   4.265  16.273  0.00  0.00    +0.000 A 
ATOM     17  C   UNL     1       4.087   3.722  16.984  0.00  0.00    +0.000 A 
ATOM     18  C   UNL     1       3.263   4.549  17.756  0.00  0.00    +0.000 A 
ENDBRANCH   9  13
BRANCH   6  19
ATOM     19  O   UNL     1       1.947  10.562  17.397  0.00  0.00    +0.000 OA
ATOM     20  H   UNL     1       2.359  11.438  17.419  0.00  0.00    +0.000 HD
ENDBRANCH   6  19
BRANCH   4  21
ATOM     21  C   UNL     1      -0.841  12.914  21.002  0.00  0.00    +0.000 C 
BRANCH  21  22
ATOM     22  C   UNL     1      -2.251  12.965  20.417  0.00  0.00    +0.000 C 
BRANCH  22  23
ATOM     23  O   UNL     1      -2.670  14.316  20.247  0.00  0.00    +0.000 OA
ATOM     24  H   UNL     1      -3.119  14.329  19.379  0.00  0.00    +0.000 HD
ENDBRANCH  22  23
ENDBRANCH  21  22
ENDBRANCH   4  21
TORSDOF 5
ENDMDL
