MODEL 1
REMARK VINA RESULT:      -8.5      0.000      0.000
REMARK  Name = 
REMARK  5 active torsions:
REMARK  status: ('A' for Active; 'I' for Inactive)
REMARK    1  A    between atoms: C_7  and  C_8
REMARK    2  A    between atoms: N_13  and  C_14
REMARK    3  A    between atoms: N_19  and  C_20
REMARK    4  A    between atoms: C_20  and  C_21
REMARK    5  A    between atoms: C_21  and  N_22
REMARK                            x       y       z     vdW  Elec       q    Type
REMARK                         _______ _______ _______ _____ _____    ______ ____
ROOT
ATOM      1  C   UNL     1       5.079   4.404  16.656  0.00  0.00    +0.000 A 
ATOM      2  C   UNL     1       4.793   3.101  17.120  0.00  0.00    +0.000 A 
ATOM      3  N   UNL     1       3.727   3.063  17.930  0.00  0.00    +0.000 NA
ATOM      4  N   UNL     1       3.348   4.363  18.010  0.00  0.00    +0.000 N 
ATOM      5  C   UNL     1       2.250   4.877  18.729  0.00  0.00    +0.000 A 
ATOM      6  N   UNL     1       1.390   4.072  19.452  0.00  0.00    +0.000 N 
ATOM      7  N   UNL     1       2.023   6.166  18.675  0.00  0.00    +0.000 NA
ATOM      8  C   UNL     1       2.846   6.971  17.918  0.00  0.00    +0.000 A 
ATOM      9  N   UNL     1       2.612   8.311  17.838  0.00  0.00    +0.000 N 
ATOM     10  N   UNL     1       3.858   6.531  17.219  0.00  0.00    +0.000 NA
ATOM     11  C   UNL     1       4.128   5.202  17.259  0.00  0.00    +0.000 A 
ATOM     12  H   UNL     1       0.624   4.593  19.861  0.00  0.00    +0.000 HD
ATOM     13  H   UNL     1       3.297   8.812  17.285  0.00  0.00    +0.000 HD
ENDROOT
BRANCH   1  20
ATOM     14  O   UNL     1       5.559   2.697  11.638  0.00  0.00    +0.000 OA
ATOM     15  C   UNL     1       6.048   3.372  12.527  0.00  0.00    +0.000 C 
ATOM     16  N   UNL     1       7.139   4.191  12.414  0.00  0.00    +0.000 N 
ATOM     17  C   UNL     1       7.372   4.880  13.575  0.00  0.00    +0.000 C 
ATOM     18  O   UNL     1       8.221   5.721  13.794  0.00  0.00    +0.000 OA
ATOM     19  C   UNL     1       6.313   4.400  14.514  0.00  0.00    +0.000 C 
ATOM     20  C   UNL     1       6.123   4.821  15.772  0.00  0.00    +0.000 C 
ATOM     21  N   UNL     1       5.580   3.483  13.818  0.00  0.00    +0.000 N 
ATOM     22  H   UNL     1       7.649   4.325  11.559  0.00  0.00    +0.000 HD
ATOM     23  H   UNL     1       4.725   3.053  14.156  0.00  0.00    +0.000 HD
ENDBRANCH   1  20
BRANCH   6  24
ATOM     24  C   UNL     1       1.851   2.870  20.139  0.00  0.00    +0.000 C 
ATOM     25  C   UNL     1       2.798   2.936  21.307  0.00  0.00    +0.000 C 
ATOM     26  C   UNL     1       1.365   2.561  21.531  0.00  0.00    +0.000 C 
ENDBRANCH   6  24
BRANCH   9  27
ATOM     27  C   UNL     1       1.933   9.093  18.850  0.00  0.00    +0.000 C 
BRANCH  27  28
ATOM     28  C   UNL     1       0.957  10.122  18.219  0.00  0.00    +0.000 C 
BRANCH  28  29
ATOM     29  N   UNL     1      -0.371  10.114  18.858  0.00  0.00    +0.000 NA
ATOM     30  C   UNL     1      -1.467  10.260  17.886  0.00  0.00    +0.000 C 
ATOM     31  C   UNL     1      -1.760  11.746  17.829  0.00  0.00    +0.000 C 
ATOM     32  C   UNL     1      -1.581  12.175  19.268  0.00  0.00    +0.000 C 
ATOM     33  C   UNL     1      -0.529  11.225  19.823  0.00  0.00    +0.000 C 
ENDBRANCH  28  29
ENDBRANCH  27  28
ENDBRANCH   9  27
TORSDOF 5
ENDMDL
MODEL 2
REMARK VINA RESULT:      -8.4      4.974      8.030
REMARK  Name = 
REMARK  5 active torsions:
REMARK  status: ('A' for Active; 'I' for Inactive)
REMARK    1  A    between atoms: C_7  and  C_8
REMARK    2  A    between atoms: N_13  and  C_14
REMARK    3  A    between atoms: N_19  and  C_20
REMARK    4  A    between atoms: C_20  and  C_21
REMARK    5  A    between atoms: C_21  and  N_22
REMARK                            x       y       z     vdW  Elec       q    Type
REMARK                         _______ _______ _______ _____ _____    ______ ____
ROOT
ATOM      1  C   UNL     1       4.531   4.245  17.830  0.00  0.00    +0.000 A 
ATOM      2  C   UNL     1       4.405   3.469  16.657  0.00  0.00    +0.000 A 
ATOM      3  N   UNL     1       5.288   3.814  15.711  0.00  0.00    +0.000 NA
ATOM      4  N   UNL     1       5.965   4.846  16.275  0.00  0.00    +0.000 N 
ATOM      5  C   UNL     1       7.031   5.566  15.702  0.00  0.00    +0.000 A 
ATOM      6  N   UNL     1       7.538   5.277  14.449  0.00  0.00    +0.000 N 
ATOM      7  N   UNL     1       7.581   6.525  16.406  0.00  0.00    +0.000 NA
ATOM      8  C   UNL     1       7.115   6.790  17.675  0.00  0.00    +0.000 A 
ATOM      9  N   UNL     1       7.687   7.771  18.427  0.00  0.00    +0.000 N 
ATOM     10  N   UNL     1       6.145   6.130  18.251  0.00  0.00    +0.000 NA
ATOM     11  C   UNL     1       5.547   5.136  17.547  0.00  0.00    +0.000 A 
ATOM     12  H   UNL     1       8.338   5.852  14.212  0.00  0.00    +0.000 HD
ATOM     13  H   UNL     1       7.245   7.906  19.328  0.00  0.00    +0.000 HD
ENDROOT
BRANCH   1  20
ATOM     14  O   UNL     1       1.723   8.273  19.881  0.00  0.00    +0.000 OA
ATOM     15  C   UNL     1       2.099   7.124  20.031  0.00  0.00    +0.000 C 
ATOM     16  N   UNL     1       1.714   6.270  21.030  0.00  0.00    +0.000 N 
ATOM     17  C   UNL     1       2.248   5.021  20.856  0.00  0.00    +0.000 C 
ATOM     18  O   UNL     1       2.066   4.024  21.527  0.00  0.00    +0.000 OA
ATOM     19  C   UNL     1       3.081   5.138  19.621  0.00  0.00    +0.000 C 
ATOM     20  C   UNL     1       3.777   4.151  19.041  0.00  0.00    +0.000 C 
ATOM     21  N   UNL     1       2.957   6.432  19.204  0.00  0.00    +0.000 N 
ATOM     22  H   UNL     1       1.057   6.515  21.749  0.00  0.00    +0.000 HD
ATOM     23  H   UNL     1       3.326   6.794  18.332  0.00  0.00    +0.000 HD
ENDBRANCH   1  20
BRANCH   6  24
ATOM     24  C   UNL     1       6.689   4.797  13.364  0.00  0.00    +0.000 C 
ATOM     25  C   UNL     1       7.188   4.704  11.947  0.00  0.00    +0.000 C 
ATOM     26  C   UNL     1       6.951   3.453  12.737  0.00  0.00    +0.000 C 
ENDBRANCH   6  24
BRANCH   9  27
ATOM     27  C   UNL     1       8.376   8.927  17.891  0.00  0.00    +0.000 C 
BRANCH  27  28
ATOM     28  C   UNL     1       9.222   9.644  18.976  0.00  0.00    +0.000 C 
BRANCH  28  29
ATOM     29  N   UNL     1       9.291  11.103  18.774  0.00  0.00    +0.000 NA
ATOM     30  C   UNL     1      10.354  11.494  17.836  0.00  0.00    +0.000 C 
ATOM     31  C   UNL     1      11.565  11.790  18.697  0.00  0.00    +0.000 C 
ATOM     32  C   UNL     1      10.954  12.451  19.912  0.00  0.00    +0.000 C 
ATOM     33  C   UNL     1       9.573  11.824  20.035  0.00  0.00    +0.000 C 
ENDBRANCH  28  29
ENDBRANCH  27  28
ENDBRANCH   9  27
TORSDOF 5
ENDMDL
MODEL 3
REMARK VINA RESULT:      -8.3      3.865      7.987
REMARK  Name = 
REMARK  5 active torsions:
REMARK  status: ('A' for Active; 'I' for Inactive)
REMARK    1  A    between atoms: C_7  and  C_8
REMARK    2  A    between atoms: N_13  and  C_14
REMARK    3  A    between atoms: N_19  and  C_20
REMARK    4  A    between atoms: C_20  and  C_21
REMARK    5  A    between atoms: C_21  and  N_22
REMARK                            x       y       z     vdW  Elec       q    Type
REMARK                         _______ _______ _______ _____ _____    ______ ____
ROOT
ATOM      1  C   UNL     1       1.349   9.148  19.621  0.00  0.00    +0.000 A 
ATOM      2  C   UNL     1       0.822   8.474  20.745  0.00  0.00    +0.000 A 
ATOM      3  N   UNL     1       1.331   7.245  20.896  0.00  0.00    +0.000 NA
ATOM      4  N   UNL     1       2.169   7.119  19.836  0.00  0.00    +0.000 N 
ATOM      5  C   UNL     1       2.981   6.008  19.533  0.00  0.00    +0.000 A 
ATOM      6  N   UNL     1       3.025   4.878  20.327  0.00  0.00    +0.000 N 
ATOM      7  N   UNL     1       3.746   6.073  18.472  0.00  0.00    +0.000 NA
ATOM      8  C   UNL     1       3.746   7.214  17.700  0.00  0.00    +0.000 A 
ATOM      9  N   UNL     1       4.550   7.303  16.604  0.00  0.00    +0.000 N 
ATOM     10  N   UNL     1       3.026   8.273  17.961  0.00  0.00    +0.000 NA
ATOM     11  C   UNL     1       2.214   8.238  19.048  0.00  0.00    +0.000 A 
ATOM     12  H   UNL     1       3.701   4.199  19.997  0.00  0.00    +0.000 HD
ATOM     13  H   UNL     1       4.443   8.170  16.089  0.00  0.00    +0.000 HD
ENDROOT
BRANCH   1  20
ATOM     14  O   UNL     1      -3.278  10.532  17.385  0.00  0.00    +0.000 OA
ATOM     15  C   UNL     1      -2.158  10.896  17.698  0.00  0.00    +0.000 C 
ATOM     16  N   UNL     1      -1.666  12.171  17.610  0.00  0.00    +0.000 N 
ATOM     17  C   UNL     1      -0.403  12.259  18.130  0.00  0.00    +0.000 C 
ATOM     18  O   UNL     1       0.293  13.248  18.255  0.00  0.00    +0.000 OA
ATOM     19  C   UNL     1      -0.076  10.866  18.560  0.00  0.00    +0.000 C 
ATOM     20  C   UNL     1       1.054  10.468  19.160  0.00  0.00    +0.000 C 
ATOM     21  N   UNL     1      -1.167  10.109  18.245  0.00  0.00    +0.000 N 
ATOM     22  H   UNL     1      -2.203  12.952  17.277  0.00  0.00    +0.000 HD
ATOM     23  H   UNL     1      -1.289   9.137  18.506  0.00  0.00    +0.000 HD
ENDBRANCH   1  20
BRANCH   6  24
ATOM     24  C   UNL     1       1.852   4.391  21.044  0.00  0.00    +0.000 C 
ATOM     25  C   UNL     1       0.955   3.327  20.470  0.00  0.00    +0.000 C 
ATOM     26  C   UNL     1       1.846   3.004  21.631  0.00  0.00    +0.000 C 
ENDBRANCH   6  24
BRANCH   9  27
ATOM     27  C   UNL     1       5.023   6.173  15.832  0.00  0.00    +0.000 C 
BRANCH  27  28
ATOM     28  C   UNL     1       5.765   5.141  16.723  0.00  0.00    +0.000 C 
BRANCH  28  29
ATOM     29  N   UNL     1       7.203   5.435  16.862  0.00  0.00    +0.000 NA
ATOM     30  C   UNL     1       7.812   4.750  18.013  0.00  0.00    +0.000 C 
ATOM     31  C   UNL     1       7.736   5.739  19.158  0.00  0.00    +0.000 C 
ATOM     32  C   UNL     1       8.003   7.061  18.473  0.00  0.00    +0.000 C 
ATOM     33  C   UNL     1       7.456   6.879  17.065  0.00  0.00    +0.000 C 
ENDBRANCH  28  29
ENDBRANCH  27  28
ENDBRANCH   9  27
TORSDOF 5
ENDMDL
MODEL 4
REMARK VINA RESULT:      -8.2      4.976      7.917
REMARK  Name = 
REMARK  5 active torsions:
REMARK  status: ('A' for Active; 'I' for Inactive)
REMARK    1  A    between atoms: C_7  and  C_8
REMARK    2  A    between atoms: N_13  and  C_14
REMARK    3  A    between atoms: N_19  and  C_20
REMARK    4  A    between atoms: C_20  and  C_21
REMARK    5  A    between atoms: C_21  and  N_22
REMARK                            x       y       z     vdW  Elec       q    Type
REMARK                         _______ _______ _______ _____ _____    ______ ____
ROOT
ATOM      1  C   UNL     1       4.751   4.149  18.076  0.00  0.00    +0.000 A 
ATOM      2  C   UNL     1       4.589   3.371  16.909  0.00  0.00    +0.000 A 
ATOM      3  N   UNL     1       5.411   3.744  15.921  0.00  0.00    +0.000 NA
ATOM      4  N   UNL     1       6.083   4.796  16.452  0.00  0.00    +0.000 N 
ATOM      5  C   UNL     1       7.096   5.551  15.827  0.00  0.00    +0.000 A 
ATOM      6  N   UNL     1       7.547   5.279  14.549  0.00  0.00    +0.000 N 
ATOM      7  N   UNL     1       7.650   6.525  16.505  0.00  0.00    +0.000 NA
ATOM      8  C   UNL     1       7.242   6.774  17.797  0.00  0.00    +0.000 A 
ATOM      9  N   UNL     1       7.821   7.772  18.521  0.00  0.00    +0.000 N 
ATOM     10  N   UNL     1       6.324   6.083  18.420  0.00  0.00    +0.000 NA
ATOM     11  C   UNL     1       5.722   5.071  17.745  0.00  0.00    +0.000 A 
ATOM     12  H   UNL     1       8.315   5.879  14.273  0.00  0.00    +0.000 HD
ATOM     13  H   UNL     1       7.421   7.892  19.444  0.00  0.00    +0.000 HD
ENDROOT
BRANCH   1  20
ATOM     14  O   UNL     1      -0.129   2.085  18.574  0.00  0.00    +0.000 OA
ATOM     15  C   UNL     1       0.803   2.624  19.144  0.00  0.00    +0.000 C 
ATOM     16  N   UNL     1       0.917   2.831  20.493  0.00  0.00    +0.000 N 
ATOM     17  C   UNL     1       2.129   3.379  20.816  0.00  0.00    +0.000 C 
ATOM     18  O   UNL     1       2.569   3.636  21.920  0.00  0.00    +0.000 OA
ATOM     19  C   UNL     1       2.824   3.553  19.505  0.00  0.00    +0.000 C 
ATOM     20  C   UNL     1       4.062   4.030  19.324  0.00  0.00    +0.000 C 
ATOM     21  N   UNL     1       1.954   3.101  18.555  0.00  0.00    +0.000 N 
ATOM     22  H   UNL     1       0.225   2.539  21.161  0.00  0.00    +0.000 HD
ATOM     23  H   UNL     1       2.179   2.996  17.572  0.00  0.00    +0.000 HD
ENDBRANCH   1  20
BRANCH   6  24
ATOM     24  C   UNL     1       6.659   4.773  13.507  0.00  0.00    +0.000 C 
ATOM     25  C   UNL     1       7.093   4.681  12.069  0.00  0.00    +0.000 C 
ATOM     26  C   UNL     1       6.920   3.431  12.877  0.00  0.00    +0.000 C 
ENDBRANCH   6  24
BRANCH   9  27
ATOM     27  C   UNL     1       8.444   8.950  17.953  0.00  0.00    +0.000 C 
BRANCH  27  28
ATOM     28  C   UNL     1       9.154   9.802  19.039  0.00  0.00    +0.000 C 
BRANCH  28  29
ATOM     29  N   UNL     1       9.327  11.209  18.637  0.00  0.00    +0.000 NA
ATOM     30  C   UNL     1      10.507  11.412  17.782  0.00  0.00    +0.000 C 
ATOM     31  C   UNL     1      11.631  11.786  18.727  0.00  0.00    +0.000 C 
ATOM     32  C   UNL     1      10.929  12.647  19.753  0.00  0.00    +0.000 C 
ATOM     33  C   UNL     1       9.510  12.101  19.804  0.00  0.00    +0.000 C 
ENDBRANCH  28  29
ENDBRANCH  27  28
ENDBRANCH   9  27
TORSDOF 5
ENDMDL
MODEL 5
REMARK VINA RESULT:      -8.0      1.276      1.523
REMARK  Name = 
REMARK  5 active torsions:
REMARK  status: ('A' for Active; 'I' for Inactive)
REMARK    1  A    between atoms: C_7  and  C_8
REMARK    2  A    between atoms: N_13  and  C_14
REMARK    3  A    between atoms: N_19  and  C_20
REMARK    4  A    between atoms: C_20  and  C_21
REMARK    5  A    between atoms: C_21  and  N_22
REMARK                            x       y       z     vdW  Elec       q    Type
REMARK                         _______ _______ _______ _____ _____    ______ ____
ROOT
ATOM      1  C   UNL     1       5.247   4.635  16.623  0.00  0.00    +0.000 A 
ATOM      2  C   UNL     1       5.004   3.373  17.209  0.00  0.00    +0.000 A 
ATOM      3  N   UNL     1       3.947   3.379  18.030  0.00  0.00    +0.000 NA
ATOM      4  N   UNL     1       3.529   4.669  17.994  0.00  0.00    +0.000 N 
ATOM      5  C   UNL     1       2.421   5.214  18.674  0.00  0.00    +0.000 A 
ATOM      6  N   UNL     1       1.592   4.454  19.478  0.00  0.00    +0.000 N 
ATOM      7  N   UNL     1       2.155   6.485  18.503  0.00  0.00    +0.000 NA
ATOM      8  C   UNL     1       2.946   7.241  17.666  0.00  0.00    +0.000 A 
ATOM      9  N   UNL     1       2.671   8.559  17.465  0.00  0.00    +0.000 N 
ATOM     10  N   UNL     1       3.966   6.768  17.001  0.00  0.00    +0.000 NA
ATOM     11  C   UNL     1       4.277   5.457  17.160  0.00  0.00    +0.000 A 
ATOM     12  H   UNL     1       0.813   4.988  19.845  0.00  0.00    +0.000 HD
ATOM     13  H   UNL     1       3.336   9.027  16.861  0.00  0.00    +0.000 HD
ENDROOT
BRANCH   1  20
ATOM     14  O   UNL     1       5.583   2.680  11.685  0.00  0.00    +0.000 OA
ATOM     15  C   UNL     1       6.100   3.393  12.527  0.00  0.00    +0.000 C 
ATOM     16  N   UNL     1       7.194   4.197  12.346  0.00  0.00    +0.000 N 
ATOM     17  C   UNL     1       7.462   4.939  13.465  0.00  0.00    +0.000 C 
ATOM     18  O   UNL     1       8.323   5.783  13.621  0.00  0.00    +0.000 OA
ATOM     19  C   UNL     1       6.425   4.515  14.453  0.00  0.00    +0.000 C 
ATOM     20  C   UNL     1       6.270   4.999  15.693  0.00  0.00    +0.000 C 
ATOM     21  N   UNL     1       5.666   3.572  13.822  0.00  0.00    +0.000 N 
ATOM     22  H   UNL     1       7.682   4.284  11.472  0.00  0.00    +0.000 HD
ATOM     23  H   UNL     1       4.818   3.167  14.202  0.00  0.00    +0.000 HD
ENDBRANCH   1  20
BRANCH   6  24
ATOM     24  C   UNL     1       2.095   3.336  20.268  0.00  0.00    +0.000 C 
ATOM     25  C   UNL     1       2.403   3.474  21.735  0.00  0.00    +0.000 C 
ATOM     26  C   UNL     1       1.212   2.678  21.295  0.00  0.00    +0.000 C 
ENDBRANCH   6  24
BRANCH   9  27
ATOM     27  C   UNL     1       1.976   9.412  18.408  0.00  0.00    +0.000 C 
BRANCH  27  28
ATOM     28  C   UNL     1       2.233  10.915  18.118  0.00  0.00    +0.000 C 
BRANCH  28  29
ATOM     29  N   UNL     1       1.202  11.793  18.702  0.00  0.00    +0.000 NA
ATOM     30  C   UNL     1       1.429  13.213  18.392  0.00  0.00    +0.000 C 
ATOM     31  C   UNL     1       2.224  13.759  19.561  0.00  0.00    +0.000 C 
ATOM     32  C   UNL     1       1.618  13.035  20.742  0.00  0.00    +0.000 C 
ATOM     33  C   UNL     1       1.163  11.697  20.178  0.00  0.00    +0.000 C 
ENDBRANCH  28  29
ENDBRANCH  27  28
ENDBRANCH   9  27
TORSDOF 5
ENDMDL
MODEL 6
REMARK VINA RESULT:      -8.0      3.200      7.757
REMARK  Name = 
REMARK  5 active torsions:
REMARK  status: ('A' for Active; 'I' for Inactive)
REMARK    1  A    between atoms: C_7  and  C_8
REMARK    2  A    between atoms: N_13  and  C_14
REMARK    3  A    between atoms: N_19  and  C_20
REMARK    4  A    between atoms: C_20  and  C_21
REMARK    5  A    between atoms: C_21  and  N_22
REMARK                            x       y       z     vdW  Elec       q    Type
REMARK                         _______ _______ _______ _____ _____    ______ ____
ROOT
ATOM      1  C   UNL     1       1.530   6.748  20.563  0.00  0.00    +0.000 A 
ATOM      2  C   UNL     1       0.891   7.936  20.980  0.00  0.00    +0.000 A 
ATOM      3  N   UNL     1       1.097   8.957  20.139  0.00  0.00    +0.000 NA
ATOM      4  N   UNL     1       1.905   8.423  19.189  0.00  0.00    +0.000 N 
ATOM      5  C   UNL     1       2.406   9.077  18.046  0.00  0.00    +0.000 A 
ATOM      6  N   UNL     1       2.103  10.392  17.746  0.00  0.00    +0.000 N 
ATOM      7  N   UNL     1       3.161   8.392  17.223  0.00  0.00    +0.000 NA
ATOM      8  C   UNL     1       3.431   7.068  17.487  0.00  0.00    +0.000 A 
ATOM      9  N   UNL     1       4.200   6.338  16.632  0.00  0.00    +0.000 N 
ATOM     10  N   UNL     1       2.966   6.420  18.522  0.00  0.00    +0.000 NA
ATOM     11  C   UNL     1       2.187   7.100  19.401  0.00  0.00    +0.000 A 
ATOM     12  H   UNL     1       2.498  10.688  16.862  0.00  0.00    +0.000 HD
ATOM     13  H   UNL     1       4.364   5.387  16.941  0.00  0.00    +0.000 HD
ENDROOT
BRANCH   1  20
ATOM     14  O   UNL     1       1.445   2.139  17.904  0.00  0.00    +0.000 OA
ATOM     15  C   UNL     1       1.420   2.675  18.998  0.00  0.00    +0.000 C 
ATOM     16  N   UNL     1       1.461   2.042  20.211  0.00  0.00    +0.000 N 
ATOM     17  C   UNL     1       1.511   2.940  21.245  0.00  0.00    +0.000 C 
ATOM     18  O   UNL     1       1.607   2.713  22.435  0.00  0.00    +0.000 OA
ATOM     19  C   UNL     1       1.465   4.277  20.582  0.00  0.00    +0.000 C 
ATOM     20  C   UNL     1       1.520   5.466  21.196  0.00  0.00    +0.000 C 
ATOM     21  N   UNL     1       1.386   4.031  19.241  0.00  0.00    +0.000 N 
ATOM     22  H   UNL     1       1.529   1.045  20.317  0.00  0.00    +0.000 HD
ATOM     23  H   UNL     1       1.442   4.743  18.521  0.00  0.00    +0.000 HD
ENDBRANCH   1  20
BRANCH   6  24
ATOM     24  C   UNL     1       1.908  11.396  18.785  0.00  0.00    +0.000 C 
ATOM     25  C   UNL     1       2.126  12.862  18.524  0.00  0.00    +0.000 C 
ATOM     26  C   UNL     1       0.735  12.339  18.716  0.00  0.00    +0.000 C 
ENDBRANCH   6  24
BRANCH   9  27
ATOM     27  C   UNL     1       5.207   6.891  15.750  0.00  0.00    +0.000 C 
BRANCH  27  28
ATOM     28  C   UNL     1       6.219   5.810  15.287  0.00  0.00    +0.000 C 
BRANCH  28  29
ATOM     29  N   UNL     1       7.441   5.781  16.112  0.00  0.00    +0.000 NA
ATOM     30  C   UNL     1       7.575   4.534  16.881  0.00  0.00    +0.000 C 
ATOM     31  C   UNL     1       6.950   4.823  18.231  0.00  0.00    +0.000 C 
ATOM     32  C   UNL     1       7.364   6.255  18.489  0.00  0.00    +0.000 C 
ATOM     33  C   UNL     1       7.465   6.879  17.105  0.00  0.00    +0.000 C 
ENDBRANCH  28  29
ENDBRANCH  27  28
ENDBRANCH   9  27
TORSDOF 5
ENDMDL
MODEL 7
REMARK VINA RESULT:      -8.0      4.963      7.933
REMARK  Name = 
REMARK  5 active torsions:
REMARK  status: ('A' for Active; 'I' for Inactive)
REMARK    1  A    between atoms: C_7  and  C_8
REMARK    2  A    between atoms: N_13  and  C_14
REMARK    3  A    between atoms: N_19  and  C_20
REMARK    4  A    between atoms: C_20  and  C_21
REMARK    5  A    between atoms: C_21  and  N_22
REMARK                            x       y       z     vdW  Elec       q    Type
REMARK                         _______ _______ _______ _____ _____    ______ ____
ROOT
ATOM      1  C   UNL     1       4.302   4.238  17.303  0.00  0.00    +0.000 A 
ATOM      2  C   UNL     1       4.261   3.512  16.092  0.00  0.00    +0.000 A 
ATOM      3  N   UNL     1       5.232   3.869  15.243  0.00  0.00    +0.000 NA
ATOM      4  N   UNL     1       5.881   4.859  15.906  0.00  0.00    +0.000 N 
ATOM      5  C   UNL     1       7.011   5.572  15.458  0.00  0.00    +0.000 A 
ATOM      6  N   UNL     1       7.619   5.318  14.243  0.00  0.00    +0.000 N 
ATOM      7  N   UNL     1       7.518   6.487  16.246  0.00  0.00    +0.000 NA
ATOM      8  C   UNL     1       6.949   6.715  17.480  0.00  0.00    +0.000 A 
ATOM      9  N   UNL     1       7.476   7.650  18.318  0.00  0.00    +0.000 N 
ATOM     10  N   UNL     1       5.916   6.060  17.941  0.00  0.00    +0.000 NA
ATOM     11  C   UNL     1       5.359   5.111  17.147  0.00  0.00    +0.000 A 
ATOM     12  H   UNL     1       8.450   5.880  14.100  0.00  0.00    +0.000 HD
ATOM     13  H   UNL     1       6.958   7.762  19.182  0.00  0.00    +0.000 HD
ENDROOT
BRANCH   1  20
ATOM     14  O   UNL     1       5.375   1.165  21.513  0.00  0.00    +0.000 OA
ATOM     15  C   UNL     1       4.567   1.909  20.984  0.00  0.00    +0.000 C 
ATOM     16  N   UNL     1       3.399   2.360  21.538  0.00  0.00    +0.000 N 
ATOM     17  C   UNL     1       2.767   3.256  20.717  0.00  0.00    +0.000 C 
ATOM     18  O   UNL     1       1.746   3.879  20.927  0.00  0.00    +0.000 OA
ATOM     19  C   UNL     1       3.641   3.336  19.508  0.00  0.00    +0.000 C 
ATOM     20  C   UNL     1       3.441   4.118  18.438  0.00  0.00    +0.000 C 
ATOM     21  N   UNL     1       4.682   2.483  19.737  0.00  0.00    +0.000 N 
ATOM     22  H   UNL     1       3.093   2.121  22.465  0.00  0.00    +0.000 HD
ATOM     23  H   UNL     1       5.496   2.395  19.140  0.00  0.00    +0.000 HD
ENDBRANCH   1  20
BRANCH   6  24
ATOM     24  C   UNL     1       6.858   4.904  13.069  0.00  0.00    +0.000 C 
ATOM     25  C   UNL     1       7.457   4.918  11.688  0.00  0.00    +0.000 C 
ATOM     26  C   UNL     1       7.189   3.612  12.370  0.00  0.00    +0.000 C 
ENDBRANCH   6  24
BRANCH   9  27
ATOM     27  C   UNL     1       8.236   8.807  17.892  0.00  0.00    +0.000 C 
BRANCH  27  28
ATOM     28  C   UNL     1       9.072   9.403  19.056  0.00  0.00    +0.000 C 
BRANCH  28  29
ATOM     29  N   UNL     1       9.149  10.875  19.008  0.00  0.00    +0.000 NA
ATOM     30  C   UNL     1      10.189  11.357  18.085  0.00  0.00    +0.000 C 
ATOM     31  C   UNL     1      11.426  11.552  18.938  0.00  0.00    +0.000 C 
ATOM     32  C   UNL     1      10.855  12.085  20.234  0.00  0.00    +0.000 C 
ATOM     33  C   UNL     1       9.473  11.456  20.329  0.00  0.00    +0.000 C 
ENDBRANCH  28  29
ENDBRANCH  27  28
ENDBRANCH   9  27
TORSDOF 5
ENDMDL
MODEL 8
REMARK VINA RESULT:      -7.9      3.611      8.114
REMARK  Name = 
REMARK  5 active torsions:
REMARK  status: ('A' for Active; 'I' for Inactive)
REMARK    1  A    between atoms: C_7  and  C_8
REMARK    2  A    between atoms: N_13  and  C_14
REMARK    3  A    between atoms: N_19  and  C_20
REMARK    4  A    between atoms: C_20  and  C_21
REMARK    5  A    between atoms: C_21  and  N_22
REMARK                            x       y       z     vdW  Elec       q    Type
REMARK                         _______ _______ _______ _____ _____    ______ ____
ROOT
ATOM      1  C   UNL     1       0.977   9.234  19.922  0.00  0.00    +0.000 A 
ATOM      2  C   UNL     1       0.512   8.483  21.024  0.00  0.00    +0.000 A 
ATOM      3  N   UNL     1       1.106   7.287  21.122  0.00  0.00    +0.000 NA
ATOM      4  N   UNL     1       1.936   7.260  20.050  0.00  0.00    +0.000 N 
ATOM      5  C   UNL     1       2.818   6.220  19.694  0.00  0.00    +0.000 A 
ATOM      6  N   UNL     1       2.950   5.066  20.444  0.00  0.00    +0.000 N 
ATOM      7  N   UNL     1       3.563   6.377  18.629  0.00  0.00    +0.000 NA
ATOM      8  C   UNL     1       3.475   7.544  17.902  0.00  0.00    +0.000 A 
ATOM      9  N   UNL     1       4.256   7.730  16.802  0.00  0.00    +0.000 N 
ATOM     10  N   UNL     1       2.688   8.540  18.211  0.00  0.00    +0.000 NA
ATOM     11  C   UNL     1       1.895   8.408  19.305  0.00  0.00    +0.000 A 
ATOM     12  H   UNL     1       3.666   4.447  20.080  0.00  0.00    +0.000 HD
ATOM     13  H   UNL     1       4.084   8.606  16.322  0.00  0.00    +0.000 HD
ENDROOT
BRANCH   1  20
ATOM     14  O   UNL     1      -2.877  10.210  16.384  0.00  0.00    +0.000 OA
ATOM     15  C   UNL     1      -2.011  10.691  17.094  0.00  0.00    +0.000 C 
ATOM     16  N   UNL     1      -1.782  12.025  17.300  0.00  0.00    +0.000 N 
ATOM     17  C   UNL     1      -0.794  12.227  18.226  0.00  0.00    +0.000 C 
ATOM     18  O   UNL     1      -0.386  13.281  18.674  0.00  0.00    +0.000 OA
ATOM     19  C   UNL     1      -0.350  10.853  18.607  0.00  0.00    +0.000 C 
ATOM     20  C   UNL     1       0.586  10.548  19.516  0.00  0.00    +0.000 C 
ATOM     21  N   UNL     1      -1.110   9.993  17.868  0.00  0.00    +0.000 N 
ATOM     22  H   UNL     1      -2.330  12.755  16.880  0.00  0.00    +0.000 HD
ATOM     23  H   UNL     1      -1.111   8.985  17.978  0.00  0.00    +0.000 HD
ENDBRANCH   1  20
BRANCH   6  24
ATOM     24  C   UNL     1       1.822   4.472  21.153  0.00  0.00    +0.000 C 
ATOM     25  C   UNL     1       0.892   3.493  20.489  0.00  0.00    +0.000 C 
ATOM     26  C   UNL     1       1.851   3.016  21.536  0.00  0.00    +0.000 C 
ENDBRANCH   6  24
BRANCH   9  27
ATOM     27  C   UNL     1       4.795   6.665  15.982  0.00  0.00    +0.000 C 
BRANCH  27  28
ATOM     28  C   UNL     1       6.234   6.278  16.418  0.00  0.00    +0.000 C 
BRANCH  28  29
ATOM     29  N   UNL     1       6.594   4.900  16.040  0.00  0.00    +0.000 NA
ATOM     30  C   UNL     1       7.564   4.851  14.935  0.00  0.00    +0.000 C 
ATOM     31  C   UNL     1       6.733   4.732  13.673  0.00  0.00    +0.000 C 
ATOM     32  C   UNL     1       5.601   3.826  14.106  0.00  0.00    +0.000 C 
ATOM     33  C   UNL     1       5.418   4.124  15.587  0.00  0.00    +0.000 C 
ENDBRANCH  28  29
ENDBRANCH  27  28
ENDBRANCH   9  27
TORSDOF 5
ENDMDL
MODEL 9
REMARK VINA RESULT:      -7.7      1.360      1.762
REMARK  Name = 
REMARK  5 active torsions:
REMARK  status: ('A' for Active; 'I' for Inactive)
REMARK    1  A    between atoms: C_7  and  C_8
REMARK    2  A    between atoms: N_13  and  C_14
REMARK    3  A    between atoms: N_19  and  C_20
REMARK    4  A    between atoms: C_20  and  C_21
REMARK    5  A    between atoms: C_21  and  N_22
REMARK                            x       y       z     vdW  Elec       q    Type
REMARK                         _______ _______ _______ _____ _____    ______ ____
ROOT
ATOM      1  C   UNL     1       5.008   4.335  16.875  0.00  0.00    +0.000 A 
ATOM      2  C   UNL     1       4.756   3.040  17.379  0.00  0.00    +0.000 A 
ATOM      3  N   UNL     1       3.660   2.988  18.146  0.00  0.00    +0.000 NA
ATOM      4  N   UNL     1       3.224   4.273  18.159  0.00  0.00    +0.000 N 
ATOM      5  C   UNL     1       2.077   4.766  18.811  0.00  0.00    +0.000 A 
ATOM      6  N   UNL     1       1.221   3.953  19.531  0.00  0.00    +0.000 N 
ATOM      7  N   UNL     1       1.800   6.041  18.696  0.00  0.00    +0.000 NA
ATOM      8  C   UNL     1       2.619   6.851  17.942  0.00  0.00    +0.000 A 
ATOM      9  N   UNL     1       2.334   8.175  17.799  0.00  0.00    +0.000 N 
ATOM     10  N   UNL     1       3.678   6.428  17.303  0.00  0.00    +0.000 NA
ATOM     11  C   UNL     1       4.000   5.114  17.406  0.00  0.00    +0.000 A 
ATOM     12  H   UNL     1       0.417   4.456  19.888  0.00  0.00    +0.000 HD
ATOM     13  H   UNL     1       3.021   8.684  17.254  0.00  0.00    +0.000 HD
ENDROOT
BRANCH   1  20
ATOM     14  O   UNL     1       5.492   2.826  11.794  0.00  0.00    +0.000 OA
ATOM     15  C   UNL     1       5.989   3.451  12.715  0.00  0.00    +0.000 C 
ATOM     16  N   UNL     1       7.101   4.247  12.645  0.00  0.00    +0.000 N 
ATOM     17  C   UNL     1       7.340   4.881  13.836  0.00  0.00    +0.000 C 
ATOM     18  O   UNL     1       8.208   5.691  14.097  0.00  0.00    +0.000 OA
ATOM     19  C   UNL     1       6.261   4.389  14.745  0.00  0.00    +0.000 C 
ATOM     20  C   UNL     1       6.069   4.762  16.017  0.00  0.00    +0.000 C 
ATOM     21  N   UNL     1       5.511   3.521  14.005  0.00  0.00    +0.000 N 
ATOM     22  H   UNL     1       7.622   4.403  11.801  0.00  0.00    +0.000 HD
ATOM     23  H   UNL     1       4.644   3.099  14.318  0.00  0.00    +0.000 HD
ENDBRANCH   1  20
BRANCH   6  24
ATOM     24  C   UNL     1       1.701   2.799  20.284  0.00  0.00    +0.000 C 
ATOM     25  C   UNL     1       2.679   2.943  21.419  0.00  0.00    +0.000 C 
ATOM     26  C   UNL     1       1.252   2.583  21.704  0.00  0.00    +0.000 C 
ENDBRANCH   6  24
BRANCH   9  27
ATOM     27  C   UNL     1       1.582   8.966  18.750  0.00  0.00    +0.000 C 
BRANCH  27  28
ATOM     28  C   UNL     1       1.767   8.446  20.201  0.00  0.00    +0.000 C 
BRANCH  28  29
ATOM     29  N   UNL     1       1.629   9.511  21.211  0.00  0.00    +0.000 NA
ATOM     30  C   UNL     1       1.108   9.011  22.492  0.00  0.00    +0.000 C 
ATOM     31  C   UNL     1      -0.393   9.207  22.421  0.00  0.00    +0.000 C 
ATOM     32  C   UNL     1      -0.522  10.523  21.687  0.00  0.00    +0.000 C 
ATOM     33  C   UNL     1       0.695  10.572  20.774  0.00  0.00    +0.000 C 
ENDBRANCH  28  29
ENDBRANCH  27  28
ENDBRANCH   9  27
TORSDOF 5
ENDMDL
