MODEL 1
REMARK VINA RESULT:      -8.7      0.000      0.000
REMARK  Name = 
REMARK  7 active torsions:
REMARK  status: ('A' for Active; 'I' for Inactive)
REMARK    1  A    between atoms: C_2  and  O_3
REMARK    2  A    between atoms: C_2  and  C_4
REMARK    3  A    between atoms: C_5  and  C_6
REMARK    4  A    between atoms: N_8  and  C_9
REMARK    5  A    between atoms: C_14  and  C_15
REMARK    6  A    between atoms: C_19  and  O_20
REMARK    7  A    between atoms: O_20  and  C_21
REMARK                            x       y       z     vdW  Elec       q    Type
REMARK                         _______ _______ _______ _____ _____    ______ ____
ROOT
ATOM      1  C   UNL     1       1.047   9.370  20.011  0.00  0.00    +0.000 A 
ATOM      2  C   UNL     1       1.074   8.183  20.734  0.00  0.00    +0.000 A 
ATOM      3  F   UNL     1       0.418   8.043  21.893  0.00  0.00    +0.000 F 
ATOM      4  C   UNL     1       1.733   7.060  20.236  0.00  0.00    +0.000 A 
ATOM      5  F   UNL     1       1.779   5.976  21.028  0.00  0.00    +0.000 F 
ATOM      6  C   UNL     1       2.352   7.046  18.975  0.00  0.00    +0.000 A 
ATOM      7  C   UNL     1       2.213   8.217  18.211  0.00  0.00    +0.000 A 
ATOM      8  F   UNL     1       2.711   8.283  16.966  0.00  0.00    +0.000 F 
ATOM      9  C   UNL     1       1.578   9.353  18.720  0.00  0.00    +0.000 A 
ATOM     10  F   UNL     1       1.524  10.467  17.971  0.00  0.00    +0.000 F 
ENDROOT
BRANCH   6  11
ATOM     11  C   UNL     1       3.136   5.877  18.510  0.00  0.00    +0.000 A 
ATOM     12  C   UNL     1       2.550   4.856  17.740  0.00  0.00    +0.000 A 
ATOM     13  C   UNL     1       3.257   3.703  17.397  0.00  0.00    +0.000 A 
ATOM     14  C   UNL     1       4.590   3.574  17.769  0.00  0.00    +0.000 A 
ATOM     15  C   UNL     1       5.226   4.594  18.474  0.00  0.00    +0.000 A 
ATOM     16  C   UNL     1       4.489   5.710  18.880  0.00  0.00    +0.000 A 
BRANCH  15  17
ATOM     17  O   UNL     1       6.530   4.353  18.782  0.00  0.00    +0.000 OA
BRANCH  17  18
ATOM     18  C   UNL     1       7.553   4.990  18.029  0.00  0.00    +0.000 C 
ATOM     19  F   UNL     1       8.013   6.138  18.565  0.00  0.00    +0.000 F 
ATOM     20  F   UNL     1       8.589   4.134  17.883  0.00  0.00    +0.000 F 
ATOM     21  F   UNL     1       7.067   5.273  16.798  0.00  0.00    +0.000 F 
ENDBRANCH  17  18
ENDBRANCH  15  17
ENDBRANCH   6  11
BRANCH   1  24
ATOM     22  C   UNL     1      -0.633  11.204  20.043  0.00  0.00    +0.000 C 
ATOM     23  O   UNL     1      -1.484  10.690  19.329  0.00  0.00    +0.000 OA
ATOM     24  N   UNL     1       0.516  10.596  20.478  0.00  0.00    +0.000 N 
ATOM     25  H   UNL     1       1.050  11.027  21.224  0.00  0.00    +0.000 HD
BRANCH  22  27
ATOM     26  C   UNL     1      -1.463  12.842  21.869  0.00  0.00    +0.000 C 
ATOM     27  C   UNL     1      -0.951  12.526  20.663  0.00  0.00    +0.000 C 
ATOM     28  C   UNL     1      -0.558  13.686  19.790  0.00  0.00    +0.000 C 
ATOM     29  S   UNL     1      -1.218  15.164  20.605  0.00  0.00    +0.000 S 
ATOM     30  C   UNL     1      -1.623  14.302  22.141  0.00  0.00    +0.000 C 
BRANCH  26  32
ATOM     31  O   UNL     1      -0.903  11.087  23.367  0.00  0.00    +0.000 OA
ATOM     32  C   UNL     1      -1.735  11.871  22.945  0.00  0.00    +0.000 C 
BRANCH  32  33
ATOM     33  O   UNL     1      -2.992  11.881  23.419  0.00  0.00    +0.000 OA
ATOM     34  H   UNL     1      -3.161  12.254  24.301  0.00  0.00    +0.000 HD
ENDBRANCH  32  33
ENDBRANCH  26  32
ENDBRANCH  22  27
ENDBRANCH   1  24
TORSDOF 7
ENDMDL
MODEL 2
REMARK VINA RESULT:      -8.7      1.375      2.731
REMARK  Name = 
REMARK  7 active torsions:
REMARK  status: ('A' for Active; 'I' for Inactive)
REMARK    1  A    between atoms: C_2  and  O_3
REMARK    2  A    between atoms: C_2  and  C_4
REMARK    3  A    between atoms: C_5  and  C_6
REMARK    4  A    between atoms: N_8  and  C_9
REMARK    5  A    between atoms: C_14  and  C_15
REMARK    6  A    between atoms: C_19  and  O_20
REMARK    7  A    between atoms: O_20  and  C_21
REMARK                            x       y       z     vdW  Elec       q    Type
REMARK                         _______ _______ _______ _____ _____    ______ ____
ROOT
ATOM      1  C   UNL     1       0.925   9.465  19.810  0.00  0.00    +0.000 A 
ATOM      2  C   UNL     1       1.624   9.436  18.608  0.00  0.00    +0.000 A 
ATOM      3  F   UNL     1       1.723  10.513  17.819  0.00  0.00    +0.000 F 
ATOM      4  C   UNL     1       2.316   8.291  18.213  0.00  0.00    +0.000 A 
ATOM      5  F   UNL     1       2.902   8.318  17.004  0.00  0.00    +0.000 F 
ATOM      6  C   UNL     1       2.389   7.140  19.014  0.00  0.00    +0.000 A 
ATOM      7  C   UNL     1       1.775   7.231  20.275  0.00  0.00    +0.000 A 
ATOM      8  F   UNL     1       1.845   6.209  21.143  0.00  0.00    +0.000 F 
ATOM      9  C   UNL     1       1.058   8.366  20.661  0.00  0.00    +0.000 A 
ATOM     10  F   UNL     1       0.438   8.379  21.853  0.00  0.00    +0.000 F 
ENDROOT
BRANCH   6  11
ATOM     11  C   UNL     1       3.041   5.899  18.530  0.00  0.00    +0.000 A 
ATOM     12  C   UNL     1       2.315   4.901  17.856  0.00  0.00    +0.000 A 
ATOM     13  C   UNL     1       2.901   3.687  17.499  0.00  0.00    +0.000 A 
ATOM     14  C   UNL     1       4.248   3.468  17.759  0.00  0.00    +0.000 A 
ATOM     15  C   UNL     1       5.018   4.459  18.365  0.00  0.00    +0.000 A 
ATOM     16  C   UNL     1       4.405   5.641  18.788  0.00  0.00    +0.000 A 
BRANCH  15  17
ATOM     17  O   UNL     1       6.323   4.129  18.568  0.00  0.00    +0.000 OA
BRANCH  17  18
ATOM     18  C   UNL     1       7.341   4.874  17.913  0.00  0.00    +0.000 C 
ATOM     19  F   UNL     1       7.695   6.014  18.540  0.00  0.00    +0.000 F 
ATOM     20  F   UNL     1       8.437   4.096  17.776  0.00  0.00    +0.000 F 
ATOM     21  F   UNL     1       6.903   5.202  16.675  0.00  0.00    +0.000 F 
ENDBRANCH  17  18
ENDBRANCH  15  17
ENDBRANCH   6  11
BRANCH   1  24
ATOM     22  C   UNL     1       0.470  11.588  21.022  0.00  0.00    +0.000 C 
ATOM     23  O   UNL     1       1.623  11.895  21.300  0.00  0.00    +0.000 OA
ATOM     24  N   UNL     1       0.095  10.525  20.243  0.00  0.00    +0.000 N 
ATOM     25  H   UNL     1      -0.860  10.475  19.906  0.00  0.00    +0.000 HD
BRANCH  22  27
ATOM     26  C   UNL     1      -1.155  13.578  20.703  0.00  0.00    +0.000 C 
ATOM     27  C   UNL     1      -0.613  12.551  21.386  0.00  0.00    +0.000 C 
ATOM     28  C   UNL     1      -1.229  12.253  22.725  0.00  0.00    +0.000 C 
ATOM     29  S   UNL     1      -2.344  13.638  23.076  0.00  0.00    +0.000 S 
ATOM     30  C   UNL     1      -2.251  14.313  21.402  0.00  0.00    +0.000 C 
BRANCH  26  32
ATOM     31  O   UNL     1      -0.280  14.954  18.976  0.00  0.00    +0.000 OA
ATOM     32  C   UNL     1      -0.832  13.918  19.304  0.00  0.00    +0.000 C 
BRANCH  32  33
ATOM     33  O   UNL     1      -1.222  13.013  18.391  0.00  0.00    +0.000 OA
ATOM     34  H   UNL     1      -1.277  12.077  18.649  0.00  0.00    +0.000 HD
ENDBRANCH  32  33
ENDBRANCH  26  32
ENDBRANCH  22  27
ENDBRANCH   1  24
TORSDOF 7
ENDMDL
MODEL 3
REMARK VINA RESULT:      -8.6      0.847      2.130
REMARK  Name = 
REMARK  7 active torsions:
REMARK  status: ('A' for Active; 'I' for Inactive)
REMARK    1  A    between atoms: C_2  and  O_3
REMARK    2  A    between atoms: C_2  and  C_4
REMARK    3  A    between atoms: C_5  and  C_6
REMARK    4  A    between atoms: N_8  and  C_9
REMARK    5  A    between atoms: C_14  and  C_15
REMARK    6  A    between atoms: C_19  and  O_20
REMARK    7  A    between atoms: O_20  and  C_21
REMARK                            x       y       z     vdW  Elec       q    Type
REMARK                         _______ _______ _______ _____ _____    ______ ____
ROOT
ATOM      1  C   UNL     1       0.994   9.576  19.670  0.00  0.00    +0.000 A 
ATOM      2  C   UNL     1       1.731   9.501  18.493  0.00  0.00    +0.000 A 
ATOM      3  F   UNL     1       1.895  10.560  17.690  0.00  0.00    +0.000 F 
ATOM      4  C   UNL     1       2.395   8.327  18.142  0.00  0.00    +0.000 A 
ATOM      5  F   UNL     1       3.021   8.311  16.953  0.00  0.00    +0.000 F 
ATOM      6  C   UNL     1       2.401   7.188  18.964  0.00  0.00    +0.000 A 
ATOM      7  C   UNL     1       1.749   7.323  20.202  0.00  0.00    +0.000 A 
ATOM      8  F   UNL     1       1.753   6.315  21.088  0.00  0.00    +0.000 F 
ATOM      9  C   UNL     1       1.059   8.489  20.544  0.00  0.00    +0.000 A 
ATOM     10  F   UNL     1       0.401   8.545  21.714  0.00  0.00    +0.000 F 
ENDROOT
BRANCH   6  11
ATOM     11  C   UNL     1       3.024   5.917  18.524  0.00  0.00    +0.000 A 
ATOM     12  C   UNL     1       2.267   4.896  17.921  0.00  0.00    +0.000 A 
ATOM     13  C   UNL     1       2.829   3.659  17.608  0.00  0.00    +0.000 A 
ATOM     14  C   UNL     1       4.181   3.436  17.839  0.00  0.00    +0.000 A 
ATOM     15  C   UNL     1       4.980   4.446  18.372  0.00  0.00    +0.000 A 
ATOM     16  C   UNL     1       4.392   5.655  18.754  0.00  0.00    +0.000 A 
BRANCH  15  17
ATOM     17  O   UNL     1       6.287   4.110  18.553  0.00  0.00    +0.000 OA
BRANCH  17  18
ATOM     18  C   UNL     1       7.299   4.893  17.936  0.00  0.00    +0.000 C 
ATOM     19  F   UNL     1       7.596   6.038  18.583  0.00  0.00    +0.000 F 
ATOM     20  F   UNL     1       8.424   4.152  17.828  0.00  0.00    +0.000 F 
ATOM     21  F   UNL     1       6.890   5.218  16.688  0.00  0.00    +0.000 F 
ENDBRANCH  17  18
ENDBRANCH  15  17
ENDBRANCH   6  11
BRANCH   1  24
ATOM     22  C   UNL     1       0.567  11.724  20.851  0.00  0.00    +0.000 C 
ATOM     23  O   UNL     1       1.716  11.984  21.184  0.00  0.00    +0.000 OA
ATOM     24  N   UNL     1       0.187  10.672  20.057  0.00  0.00    +0.000 N 
ATOM     25  H   UNL     1      -0.750  10.660  19.672  0.00  0.00    +0.000 HD
BRANCH  22  27
ATOM     26  C   UNL     1      -1.503  12.718  22.046  0.00  0.00    +0.000 C 
ATOM     27  C   UNL     1      -0.492  12.733  21.155  0.00  0.00    +0.000 C 
ATOM     28  C   UNL     1      -0.335  13.998  20.358  0.00  0.00    +0.000 C 
ATOM     29  S   UNL     1      -1.816  14.985  20.700  0.00  0.00    +0.000 S 
ATOM     30  C   UNL     1      -2.361  13.941  22.071  0.00  0.00    +0.000 C 
BRANCH  26  32
ATOM     31  O   UNL     1      -2.790  11.465  23.600  0.00  0.00    +0.000 OA
ATOM     32  C   UNL     1      -1.718  11.663  23.053  0.00  0.00    +0.000 C 
BRANCH  32  33
ATOM     33  O   UNL     1      -0.630  10.937  23.363  0.00  0.00    +0.000 OA
ATOM     34  H   UNL     1      -0.364  10.211  22.773  0.00  0.00    +0.000 HD
ENDBRANCH  32  33
ENDBRANCH  26  32
ENDBRANCH  22  27
ENDBRANCH   1  24
TORSDOF 7
ENDMDL
MODEL 4
REMARK VINA RESULT:      -8.6      1.121      2.387
REMARK  Name = 
REMARK  7 active torsions:
REMARK  status: ('A' for Active; 'I' for Inactive)
REMARK    1  A    between atoms: C_2  and  O_3
REMARK    2  A    between atoms: C_2  and  C_4
REMARK    3  A    between atoms: C_5  and  C_6
REMARK    4  A    between atoms: N_8  and  C_9
REMARK    5  A    between atoms: C_14  and  C_15
REMARK    6  A    between atoms: C_19  and  O_20
REMARK    7  A    between atoms: O_20  and  C_21
REMARK                            x       y       z     vdW  Elec       q    Type
REMARK                         _______ _______ _______ _____ _____    ______ ____
ROOT
ATOM      1  C   UNL     1       1.255   9.566  19.823  0.00  0.00    +0.000 A 
ATOM      2  C   UNL     1       1.838   9.506  18.561  0.00  0.00    +0.000 A 
ATOM      3  F   UNL     1       2.021  10.601  17.812  0.00  0.00    +0.000 F 
ATOM      4  C   UNL     1       2.323   8.301  18.057  0.00  0.00    +0.000 A 
ATOM      5  F   UNL     1       2.801   8.312  16.801  0.00  0.00    +0.000 F 
ATOM      6  C   UNL     1       2.300   7.108  18.799  0.00  0.00    +0.000 A 
ATOM      7  C   UNL     1       1.815   7.214  20.113  0.00  0.00    +0.000 A 
ATOM      8  F   UNL     1       1.813   6.147  20.928  0.00  0.00    +0.000 F 
ATOM      9  C   UNL     1       1.301   8.415  20.611  0.00  0.00    +0.000 A 
ATOM     10  F   UNL     1       0.794   8.448  21.855  0.00  0.00    +0.000 F 
ENDROOT
BRANCH   6  11
ATOM     11  C   UNL     1       2.725   5.818  18.205  0.00  0.00    +0.000 A 
ATOM     12  C   UNL     1       1.839   4.730  18.096  0.00  0.00    +0.000 A 
ATOM     13  C   UNL     1       2.267   3.483  17.641  0.00  0.00    +0.000 A 
ATOM     14  C   UNL     1       3.583   3.313  17.229  0.00  0.00    +0.000 A 
ATOM     15  C   UNL     1       4.474   4.384  17.259  0.00  0.00    +0.000 A 
ATOM     16  C   UNL     1       4.057   5.608  17.788  0.00  0.00    +0.000 A 
BRANCH  15  17
ATOM     17  O   UNL     1       5.734   4.095  16.831  0.00  0.00    +0.000 OA
BRANCH  17  18
ATOM     18  C   UNL     1       6.138   4.498  15.530  0.00  0.00    +0.000 C 
ATOM     19  F   UNL     1       5.264   5.306  14.895  0.00  0.00    +0.000 F 
ATOM     20  F   UNL     1       7.329   5.130  15.615  0.00  0.00    +0.000 F 
ATOM     21  F   UNL     1       6.304   3.391  14.770  0.00  0.00    +0.000 F 
ENDBRANCH  17  18
ENDBRANCH  15  17
ENDBRANCH   6  11
BRANCH   1  24
ATOM     22  C   UNL     1      -0.598  11.214  20.014  0.00  0.00    +0.000 C 
ATOM     23  O   UNL     1      -1.421  10.652  19.303  0.00  0.00    +0.000 OA
ATOM     24  N   UNL     1       0.623  10.705  20.374  0.00  0.00    +0.000 N 
ATOM     25  H   UNL     1       1.140  11.150  21.123  0.00  0.00    +0.000 HD
BRANCH  22  27
ATOM     26  C   UNL     1      -1.515  12.663  21.954  0.00  0.00    +0.000 C 
ATOM     27  C   UNL     1      -1.021  12.463  20.716  0.00  0.00    +0.000 C 
ATOM     28  C   UNL     1      -0.780  13.700  19.896  0.00  0.00    +0.000 C 
ATOM     29  S   UNL     1      -1.552  15.060  20.813  0.00  0.00    +0.000 S 
ATOM     30  C   UNL     1      -1.809  14.083  22.311  0.00  0.00    +0.000 C 
BRANCH  26  32
ATOM     31  O   UNL     1      -2.696  11.357  23.548  0.00  0.00    +0.000 OA
ATOM     32  C   UNL     1      -1.646  11.615  22.983  0.00  0.00    +0.000 C 
BRANCH  32  33
ATOM     33  O   UNL     1      -0.509  10.971  23.292  0.00  0.00    +0.000 OA
ATOM     34  H   UNL     1      -0.537  10.011  23.446  0.00  0.00    +0.000 HD
ENDBRANCH  32  33
ENDBRANCH  26  32
ENDBRANCH  22  27
ENDBRANCH   1  24
TORSDOF 7
ENDMDL
MODEL 5
REMARK VINA RESULT:      -8.5      0.979      2.263
REMARK  Name = 
REMARK  7 active torsions:
REMARK  status: ('A' for Active; 'I' for Inactive)
REMARK    1  A    between atoms: C_2  and  O_3
REMARK    2  A    between atoms: C_2  and  C_4
REMARK    3  A    between atoms: C_5  and  C_6
REMARK    4  A    between atoms: N_8  and  C_9
REMARK    5  A    between atoms: C_14  and  C_15
REMARK    6  A    between atoms: C_19  and  O_20
REMARK    7  A    between atoms: O_20  and  C_21
REMARK                            x       y       z     vdW  Elec       q    Type
REMARK                         _______ _______ _______ _____ _____    ______ ____
ROOT
ATOM      1  C   UNL     1       1.140   9.681  19.889  0.00  0.00    +0.000 A 
ATOM      2  C   UNL     1       1.717   9.648  18.624  0.00  0.00    +0.000 A 
ATOM      3  F   UNL     1       1.857  10.751  17.879  0.00  0.00    +0.000 F 
ATOM      4  C   UNL     1       2.243   8.463  18.112  0.00  0.00    +0.000 A 
ATOM      5  F   UNL     1       2.713   8.496  16.854  0.00  0.00    +0.000 F 
ATOM      6  C   UNL     1       2.267   7.267  18.849  0.00  0.00    +0.000 A 
ATOM      7  C   UNL     1       1.786   7.350  20.167  0.00  0.00    +0.000 A 
ATOM      8  F   UNL     1       1.827   6.280  20.976  0.00  0.00    +0.000 F 
ATOM      9  C   UNL     1       1.233   8.529  20.672  0.00  0.00    +0.000 A 
ATOM     10  F   UNL     1       0.732   8.539  21.919  0.00  0.00    +0.000 F 
ENDROOT
BRANCH   6  11
ATOM     11  C   UNL     1       2.735   5.995  18.248  0.00  0.00    +0.000 A 
ATOM     12  C   UNL     1       1.857   4.917  18.029  0.00  0.00    +0.000 A 
ATOM     13  C   UNL     1       2.317   3.684  17.568  0.00  0.00    +0.000 A 
ATOM     14  C   UNL     1       3.662   3.520  17.258  0.00  0.00    +0.000 A 
ATOM     15  C   UNL     1       4.551   4.585  17.397  0.00  0.00    +0.000 A 
ATOM     16  C   UNL     1       4.096   5.792  17.933  0.00  0.00    +0.000 A 
BRANCH  15  17
ATOM     17  O   UNL     1       5.840   4.303  17.064  0.00  0.00    +0.000 OA
BRANCH  17  18
ATOM     18  C   UNL     1       6.449   5.000  15.985  0.00  0.00    +0.000 C 
ATOM     19  F   UNL     1       7.435   4.323  15.363  0.00  0.00    +0.000 F 
ATOM     20  F   UNL     1       5.501   5.318  15.076  0.00  0.00    +0.000 F 
ATOM     21  F   UNL     1       6.976   6.152  16.461  0.00  0.00    +0.000 F 
ENDBRANCH  17  18
ENDBRANCH  15  17
ENDBRANCH   6  11
BRANCH   1  24
ATOM     22  C   UNL     1      -0.730  11.314  20.040  0.00  0.00    +0.000 C 
ATOM     23  O   UNL     1      -1.508  10.778  19.261  0.00  0.00    +0.000 OA
ATOM     24  N   UNL     1       0.471  10.795  20.449  0.00  0.00    +0.000 N 
ATOM     25  H   UNL     1       0.942  11.211  21.245  0.00  0.00    +0.000 HD
BRANCH  22  27
ATOM     26  C   UNL     1      -1.682  12.691  22.015  0.00  0.00    +0.000 C 
ATOM     27  C   UNL     1      -1.201  12.532  20.767  0.00  0.00    +0.000 C 
ATOM     28  C   UNL     1      -1.034  13.790  19.960  0.00  0.00    +0.000 C 
ATOM     29  S   UNL     1      -1.854  15.098  20.909  0.00  0.00    +0.000 S 
ATOM     30  C   UNL     1      -2.038  14.090  22.398  0.00  0.00    +0.000 C 
BRANCH  26  32
ATOM     31  O   UNL     1      -0.802  10.904  23.309  0.00  0.00    +0.000 OA
ATOM     32  C   UNL     1      -1.746  11.625  23.032  0.00  0.00    +0.000 C 
BRANCH  32  33
ATOM     33  O   UNL     1      -2.942  11.470  23.623  0.00  0.00    +0.000 OA
ATOM     34  H   UNL     1      -3.254  10.572  23.831  0.00  0.00    +0.000 HD
ENDBRANCH  32  33
ENDBRANCH  26  32
ENDBRANCH  22  27
ENDBRANCH   1  24
TORSDOF 7
ENDMDL
MODEL 6
REMARK VINA RESULT:      -8.3      1.192      2.071
REMARK  Name = 
REMARK  7 active torsions:
REMARK  status: ('A' for Active; 'I' for Inactive)
REMARK    1  A    between atoms: C_2  and  O_3
REMARK    2  A    between atoms: C_2  and  C_4
REMARK    3  A    between atoms: C_5  and  C_6
REMARK    4  A    between atoms: N_8  and  C_9
REMARK    5  A    between atoms: C_14  and  C_15
REMARK    6  A    between atoms: C_19  and  O_20
REMARK    7  A    between atoms: O_20  and  C_21
REMARK                            x       y       z     vdW  Elec       q    Type
REMARK                         _______ _______ _______ _____ _____    ______ ____
ROOT
ATOM      1  C   UNL     1       1.116   9.493  20.148  0.00  0.00    +0.000 A 
ATOM      2  C   UNL     1       1.088   8.299  20.862  0.00  0.00    +0.000 A 
ATOM      3  F   UNL     1       0.440   8.186  22.028  0.00  0.00    +0.000 F 
ATOM      4  C   UNL     1       1.680   7.147  20.348  0.00  0.00    +0.000 A 
ATOM      5  F   UNL     1       1.677   6.056  21.132  0.00  0.00    +0.000 F 
ATOM      6  C   UNL     1       2.283   7.110  19.079  0.00  0.00    +0.000 A 
ATOM      7  C   UNL     1       2.197   8.293  18.326  0.00  0.00    +0.000 A 
ATOM      8  F   UNL     1       2.683   8.341  17.075  0.00  0.00    +0.000 F 
ATOM      9  C   UNL     1       1.630   9.457  18.850  0.00  0.00    +0.000 A 
ATOM     10  F   UNL     1       1.627  10.578  18.110  0.00  0.00    +0.000 F 
ENDROOT
BRANCH   6  11
ATOM     11  C   UNL     1       2.998   5.904  18.596  0.00  0.00    +0.000 A 
ATOM     12  C   UNL     1       2.339   4.902  17.862  0.00  0.00    +0.000 A 
ATOM     13  C   UNL     1       2.982   3.717  17.504  0.00  0.00    +0.000 A 
ATOM     14  C   UNL     1       4.322   3.535  17.823  0.00  0.00    +0.000 A 
ATOM     15  C   UNL     1       5.028   4.533  18.492  0.00  0.00    +0.000 A 
ATOM     16  C   UNL     1       4.356   5.683  18.914  0.00  0.00    +0.000 A 
BRANCH  15  17
ATOM     17  O   UNL     1       6.332   4.240  18.750  0.00  0.00    +0.000 OA
BRANCH  17  18
ATOM     18  C   UNL     1       7.354   4.908  18.023  0.00  0.00    +0.000 C 
ATOM     19  F   UNL     1       8.366   4.116  17.618  0.00  0.00    +0.000 F 
ATOM     20  F   UNL     1       6.807   5.500  16.939  0.00  0.00    +0.000 F 
ATOM     21  F   UNL     1       7.876   5.877  18.810  0.00  0.00    +0.000 F 
ENDBRANCH  17  18
ENDBRANCH  15  17
ENDBRANCH   6  11
BRANCH   1  24
ATOM     22  C   UNL     1      -0.497  11.382  20.261  0.00  0.00    +0.000 C 
ATOM     23  O   UNL     1      -1.410  10.888  19.611  0.00  0.00    +0.000 OA
ATOM     24  N   UNL     1       0.657  10.741  20.630  0.00  0.00    +0.000 N 
ATOM     25  H   UNL     1       1.252  11.164  21.333  0.00  0.00    +0.000 HD
BRANCH  22  27
ATOM     26  C   UNL     1      -0.603  13.966  20.382  0.00  0.00    +0.000 C 
ATOM     27  C   UNL     1      -0.731  12.722  20.881  0.00  0.00    +0.000 C 
ATOM     28  C   UNL     1      -1.264  12.627  22.284  0.00  0.00    +0.000 C 
ATOM     29  S   UNL     1      -1.267  14.321  22.928  0.00  0.00    +0.000 S 
ATOM     30  C   UNL     1      -0.951  15.078  21.317  0.00  0.00    +0.000 C 
BRANCH  26  32
ATOM     31  O   UNL     1       0.496  15.155  18.644  0.00  0.00    +0.000 OA
ATOM     32  C   UNL     1      -0.282  14.277  18.976  0.00  0.00    +0.000 C 
BRANCH  32  33
ATOM     33  O   UNL     1      -0.937  13.540  18.064  0.00  0.00    +0.000 OA
ATOM     34  H   UNL     1      -1.902  13.445  18.139  0.00  0.00    +0.000 HD
ENDBRANCH  32  33
ENDBRANCH  26  32
ENDBRANCH  22  27
ENDBRANCH   1  24
TORSDOF 7
ENDMDL
MODEL 7
REMARK VINA RESULT:      -8.3      1.342      2.572
REMARK  Name = 
REMARK  7 active torsions:
REMARK  status: ('A' for Active; 'I' for Inactive)
REMARK    1  A    between atoms: C_2  and  O_3
REMARK    2  A    between atoms: C_2  and  C_4
REMARK    3  A    between atoms: C_5  and  C_6
REMARK    4  A    between atoms: N_8  and  C_9
REMARK    5  A    between atoms: C_14  and  C_15
REMARK    6  A    between atoms: C_19  and  O_20
REMARK    7  A    between atoms: O_20  and  C_21
REMARK                            x       y       z     vdW  Elec       q    Type
REMARK                         _______ _______ _______ _____ _____    ______ ____
ROOT
ATOM      1  C   UNL     1       0.943   9.529  19.752  0.00  0.00    +0.000 A 
ATOM      2  C   UNL     1       1.699   9.462  18.586  0.00  0.00    +0.000 A 
ATOM      3  F   UNL     1       1.871  10.526  17.791  0.00  0.00    +0.000 F 
ATOM      4  C   UNL     1       2.372   8.292  18.239  0.00  0.00    +0.000 A 
ATOM      5  F   UNL     1       3.017   8.285  17.061  0.00  0.00    +0.000 F 
ATOM      6  C   UNL     1       2.370   7.149  19.056  0.00  0.00    +0.000 A 
ATOM      7  C   UNL     1       1.697   7.275  20.283  0.00  0.00    +0.000 A 
ATOM      8  F   UNL     1       1.692   6.263  21.165  0.00  0.00    +0.000 F 
ATOM      9  C   UNL     1       0.998   8.437  20.620  0.00  0.00    +0.000 A 
ATOM     10  F   UNL     1       0.322   8.485  21.781  0.00  0.00    +0.000 F 
ENDROOT
BRANCH   6  11
ATOM     11  C   UNL     1       3.004   5.883  18.619  0.00  0.00    +0.000 A 
ATOM     12  C   UNL     1       2.252   4.844  18.039  0.00  0.00    +0.000 A 
ATOM     13  C   UNL     1       2.828   3.612  17.731  0.00  0.00    +0.000 A 
ATOM     14  C   UNL     1       4.187   3.411  17.941  0.00  0.00    +0.000 A 
ATOM     15  C   UNL     1       4.979   4.439  18.451  0.00  0.00    +0.000 A 
ATOM     16  C   UNL     1       4.379   5.643  18.829  0.00  0.00    +0.000 A 
BRANCH  15  17
ATOM     17  O   UNL     1       6.293   4.124  18.613  0.00  0.00    +0.000 OA
BRANCH  17  18
ATOM     18  C   UNL     1       7.282   4.896  17.946  0.00  0.00    +0.000 C 
ATOM     19  F   UNL     1       6.885   5.423  16.770  0.00  0.00    +0.000 F 
ATOM     20  F   UNL     1       7.679   5.900  18.759  0.00  0.00    +0.000 F 
ATOM     21  F   UNL     1       8.353   4.105  17.703  0.00  0.00    +0.000 F 
ENDBRANCH  17  18
ENDBRANCH  15  17
ENDBRANCH   6  11
BRANCH   1  24
ATOM     22  C   UNL     1      -0.954  11.107  19.442  0.00  0.00    +0.000 C 
ATOM     23  O   UNL     1      -1.503  10.555  18.497  0.00  0.00    +0.000 OA
ATOM     24  N   UNL     1       0.126  10.619  20.131  0.00  0.00    +0.000 N 
ATOM     25  H   UNL     1       0.377  11.044  21.017  0.00  0.00    +0.000 HD
BRANCH  22  27
ATOM     26  C   UNL     1      -1.113  13.418  20.598  0.00  0.00    +0.000 C 
ATOM     27  C   UNL     1      -1.622  12.307  20.031  0.00  0.00    +0.000 C 
ATOM     28  C   UNL     1      -3.119  12.264  19.892  0.00  0.00    +0.000 C 
ATOM     29  S   UNL     1      -3.744  13.671  20.849  0.00  0.00    +0.000 S 
ATOM     30  C   UNL     1      -2.115  14.424  21.063  0.00  0.00    +0.000 C 
BRANCH  26  32
ATOM     31  O   UNL     1       0.880  14.474  19.856  0.00  0.00    +0.000 OA
ATOM     32  C   UNL     1       0.323  13.746  20.659  0.00  0.00    +0.000 C 
BRANCH  32  33
ATOM     33  O   UNL     1       1.002  13.155  21.657  0.00  0.00    +0.000 OA
ATOM     34  H   UNL     1       0.567  12.457  22.175  0.00  0.00    +0.000 HD
ENDBRANCH  32  33
ENDBRANCH  26  32
ENDBRANCH  22  27
ENDBRANCH   1  24
TORSDOF 7
ENDMDL
MODEL 8
REMARK VINA RESULT:      -8.2      1.111      2.274
REMARK  Name = 
REMARK  7 active torsions:
REMARK  status: ('A' for Active; 'I' for Inactive)
REMARK    1  A    between atoms: C_2  and  O_3
REMARK    2  A    between atoms: C_2  and  C_4
REMARK    3  A    between atoms: C_5  and  C_6
REMARK    4  A    between atoms: N_8  and  C_9
REMARK    5  A    between atoms: C_14  and  C_15
REMARK    6  A    between atoms: C_19  and  O_20
REMARK    7  A    between atoms: O_20  and  C_21
REMARK                            x       y       z     vdW  Elec       q    Type
REMARK                         _______ _______ _______ _____ _____    ______ ____
ROOT
ATOM      1  C   UNL     1       0.969   9.770  19.835  0.00  0.00    +0.000 A 
ATOM      2  C   UNL     1       1.584   9.759  18.588  0.00  0.00    +0.000 A 
ATOM      3  F   UNL     1       1.674  10.861  17.832  0.00  0.00    +0.000 F 
ATOM      4  C   UNL     1       2.200   8.605  18.107  0.00  0.00    +0.000 A 
ATOM      5  F   UNL     1       2.704   8.654  16.863  0.00  0.00    +0.000 F 
ATOM      6  C   UNL     1       2.280   7.422  18.861  0.00  0.00    +0.000 A 
ATOM      7  C   UNL     1       1.756   7.489  20.163  0.00  0.00    +0.000 A 
ATOM      8  F   UNL     1       1.841   6.434  20.988  0.00  0.00    +0.000 F 
ATOM      9  C   UNL     1       1.113   8.636  20.636  0.00  0.00    +0.000 A 
ATOM     10  F   UNL     1       0.576   8.628  21.868  0.00  0.00    +0.000 F 
ENDROOT
BRANCH   6  11
ATOM     11  C   UNL     1       2.845   6.176  18.290  0.00  0.00    +0.000 A 
ATOM     12  C   UNL     1       2.074   5.007  18.163  0.00  0.00    +0.000 A 
ATOM     13  C   UNL     1       2.634   3.806  17.731  0.00  0.00    +0.000 A 
ATOM     14  C   UNL     1       3.973   3.762  17.360  0.00  0.00    +0.000 A 
ATOM     15  C   UNL     1       4.754   4.915  17.407  0.00  0.00    +0.000 A 
ATOM     16  C   UNL     1       4.204   6.096  17.914  0.00  0.00    +0.000 A 
BRANCH  15  17
ATOM     17  O   UNL     1       6.048   4.748  17.019  0.00  0.00    +0.000 OA
BRANCH  17  18
ATOM     18  C   UNL     1       7.093   5.014  17.945  0.00  0.00    +0.000 C 
ATOM     19  F   UNL     1       8.159   4.196  17.840  0.00  0.00    +0.000 F 
ATOM     20  F   UNL     1       7.509   6.290  17.784  0.00  0.00    +0.000 F 
ATOM     21  F   UNL     1       6.599   4.890  19.198  0.00  0.00    +0.000 F 
ENDBRANCH  17  18
ENDBRANCH  15  17
ENDBRANCH   6  11
BRANCH   1  24
ATOM     22  C   UNL     1       0.707  11.950  21.004  0.00  0.00    +0.000 C 
ATOM     23  O   UNL     1       1.886  12.280  21.049  0.00  0.00    +0.000 OA
ATOM     24  N   UNL     1       0.214  10.845  20.361  0.00  0.00    +0.000 N 
ATOM     25  H   UNL     1      -0.786  10.770  20.208  0.00  0.00    +0.000 HD
BRANCH  22  27
ATOM     26  C   UNL     1      -1.317  12.773  22.392  0.00  0.00    +0.000 C 
ATOM     27  C   UNL     1      -0.308  12.922  21.513  0.00  0.00    +0.000 C 
ATOM     28  C   UNL     1      -0.096  14.312  20.981  0.00  0.00    +0.000 C 
ATOM     29  S   UNL     1      -1.533  15.273  21.525  0.00  0.00    +0.000 S 
ATOM     30  C   UNL     1      -2.122  14.002  22.667  0.00  0.00    +0.000 C 
BRANCH  26  32
ATOM     31  O   UNL     1      -0.724  10.711  23.410  0.00  0.00    +0.000 OA
ATOM     32  C   UNL     1      -1.577  11.549  23.172  0.00  0.00    +0.000 C 
BRANCH  32  33
ATOM     33  O   UNL     1      -2.846  11.393  23.585  0.00  0.00    +0.000 OA
ATOM     34  H   UNL     1      -3.571  11.623  22.979  0.00  0.00    +0.000 HD
ENDBRANCH  32  33
ENDBRANCH  26  32
ENDBRANCH  22  27
ENDBRANCH   1  24
TORSDOF 7
ENDMDL
MODEL 9
REMARK VINA RESULT:      -8.2      1.795      2.868
REMARK  Name = 
REMARK  7 active torsions:
REMARK  status: ('A' for Active; 'I' for Inactive)
REMARK    1  A    between atoms: C_2  and  O_3
REMARK    2  A    between atoms: C_2  and  C_4
REMARK    3  A    between atoms: C_5  and  C_6
REMARK    4  A    between atoms: N_8  and  C_9
REMARK    5  A    between atoms: C_14  and  C_15
REMARK    6  A    between atoms: C_19  and  O_20
REMARK    7  A    between atoms: O_20  and  C_21
REMARK                            x       y       z     vdW  Elec       q    Type
REMARK                         _______ _______ _______ _____ _____    ______ ____
ROOT
ATOM      1  C   UNL     1       0.840   9.530  20.150  0.00  0.00    +0.000 A 
ATOM      2  C   UNL     1       1.349   9.653  18.861  0.00  0.00    +0.000 A 
ATOM      3  F   UNL     1       1.281  10.803  18.178  0.00  0.00    +0.000 F 
ATOM      4  C   UNL     1       2.019   8.591  18.256  0.00  0.00    +0.000 A 
ATOM      5  F   UNL     1       2.413   8.763  16.983  0.00  0.00    +0.000 F 
ATOM      6  C   UNL     1       2.262   7.376  18.918  0.00  0.00    +0.000 A 
ATOM      7  C   UNL     1       1.844   7.314  20.258  0.00  0.00    +0.000 A 
ATOM      8  F   UNL     1       2.088   6.222  20.999  0.00  0.00    +0.000 F 
ATOM      9  C   UNL     1       1.146   8.366  20.857  0.00  0.00    +0.000 A 
ATOM     10  F   UNL     1       0.716   8.233  22.123  0.00  0.00    +0.000 F 
ENDROOT
BRANCH   6  11
ATOM     11  C   UNL     1       2.884   6.225  18.221  0.00  0.00    +0.000 A 
ATOM     12  C   UNL     1       2.169   5.038  17.976  0.00  0.00    +0.000 A 
ATOM     13  C   UNL     1       2.784   3.916  17.422  0.00  0.00    +0.000 A 
ATOM     14  C   UNL     1       4.120   3.977  17.043  0.00  0.00    +0.000 A 
ATOM     15  C   UNL     1       4.844   5.157  17.207  0.00  0.00    +0.000 A 
ATOM     16  C   UNL     1       4.241   6.250  17.834  0.00  0.00    +0.000 A 
BRANCH  15  17
ATOM     17  O   UNL     1       6.142   5.095  16.800  0.00  0.00    +0.000 OA
BRANCH  17  18
ATOM     18  C   UNL     1       7.178   5.096  17.773  0.00  0.00    +0.000 C 
ATOM     19  F   UNL     1       8.150   4.186  17.561  0.00  0.00    +0.000 F 
ATOM     20  F   UNL     1       7.738   6.326  17.817  0.00  0.00    +0.000 F 
ATOM     21  F   UNL     1       6.631   4.842  18.984  0.00  0.00    +0.000 F 
ENDBRANCH  17  18
ENDBRANCH  15  17
ENDBRANCH   6  11
BRANCH   1  24
ATOM     22  C   UNL     1       0.482  11.652  21.398  0.00  0.00    +0.000 C 
ATOM     23  O   UNL     1       1.604  12.128  21.281  0.00  0.00    +0.000 OA
ATOM     24  N   UNL     1       0.041  10.497  20.805  0.00  0.00    +0.000 N 
ATOM     25  H   UNL     1      -0.952  10.297  20.795  0.00  0.00    +0.000 HD
BRANCH  22  27
ATOM     26  C   UNL     1      -0.623  13.808  22.311  0.00  0.00    +0.000 C 
ATOM     27  C   UNL     1      -0.561  12.484  22.071  0.00  0.00    +0.000 C 
ATOM     28  C   UNL     1      -1.767  11.683  22.479  0.00  0.00    +0.000 C 
ATOM     29  S   UNL     1      -2.797  12.807  23.459  0.00  0.00    +0.000 S 
ATOM     30  C   UNL     1      -1.857  14.282  23.006  0.00  0.00    +0.000 C 
BRANCH  26  32
ATOM     31  O   UNL     1       0.145  15.550  20.892  0.00  0.00    +0.000 OA
ATOM     32  C   UNL     1       0.359  14.795  21.825  0.00  0.00    +0.000 C 
BRANCH  32  33
ATOM     33  O   UNL     1       1.540  14.790  22.465  0.00  0.00    +0.000 OA
ATOM     34  H   UNL     1       1.550  14.762  23.437  0.00  0.00    +0.000 HD
ENDBRANCH  32  33
ENDBRANCH  26  32
ENDBRANCH  22  27
ENDBRANCH   1  24
TORSDOF 7
ENDMDL
