MODEL 1
REMARK VINA RESULT:      -8.4      0.000      0.000
REMARK  Name = 
REMARK  5 active torsions:
REMARK  status: ('A' for Active; 'I' for Inactive)
REMARK    1  A    between atoms: S_2  and  N_4
REMARK    2  A    between atoms: S_2  and  C_10
REMARK    3  A    between atoms: N_4  and  C_5
REMARK    4  A    between atoms: C_13  and  S_14
REMARK    5  A    between atoms: S_14  and  N_17
REMARK                            x       y       z     vdW  Elec       q    Type
REMARK                         _______ _______ _______ _____ _____    ______ ____
ROOT
ATOM      1  C   UNL     1       2.370   6.536  18.913  0.00  0.00    +0.000 A 
ATOM      2  C   UNL     1       1.958   6.868  20.214  0.00  0.00    +0.000 A 
ATOM      3  C   UNL     1       1.452   8.163  20.478  0.00  0.00    +0.000 A 
ATOM      4  C   UNL     1       1.437   9.164  19.470  0.00  0.00    +0.000 A 
ATOM      5  C   UNL     1       1.816   8.802  18.176  0.00  0.00    +0.000 A 
ATOM      6  C   UNL     1       2.281   7.504  17.901  0.00  0.00    +0.000 A 
ENDROOT
BRANCH   1   8
ATOM      7  O   UNL     1       2.237   4.141  17.780  0.00  0.00    +0.000 OA
ATOM      8  S   UNL     1       3.145   4.949  18.563  0.00  0.00    +0.000 S 
ATOM      9  O   UNL     1       3.683   4.467  19.816  0.00  0.00    +0.000 OA
BRANCH   8  10
ATOM     10  N   UNL     1       4.496   5.314  17.601  0.00  0.00    +0.000 NA
ATOM     11  H   UNL     1       4.186   5.599  16.669  0.00  0.00    +0.000 HD
BRANCH  10  12
ATOM     12  C   UNL     1       5.581   6.123  18.182  0.00  0.00    +0.000 C 
ATOM     13  C   UNL     1       6.776   5.272  18.574  0.00  0.00    +0.000 C 
ATOM     14  C   UNL     1       7.911   6.271  18.696  0.00  0.00    +0.000 C 
ATOM     15  C   UNL     1       7.598   7.372  17.686  0.00  0.00    +0.000 C 
ATOM     16  C   UNL     1       6.197   7.070  17.147  0.00  0.00    +0.000 C 
ENDBRANCH  10  12
ENDBRANCH   8  10
ENDBRANCH   1   8
BRANCH   4  17
ATOM     17  S   UNL     1       1.005  10.989  19.870  0.00  0.00    +0.000 S 
ATOM     18  O   UNL     1       1.203  11.139  21.290  0.00  0.00    +0.000 OA
ATOM     19  O   UNL     1       1.774  11.711  18.899  0.00  0.00    +0.000 OA
BRANCH  17  20
ATOM     20  N   UNL     1      -0.617  11.111  19.443  0.00  0.00    +0.000 N 
ATOM     21  C   UNL     1      -1.421  11.741  20.507  0.00  0.00    +0.000 C 
ATOM     22  C   UNL     1      -2.489  12.494  19.780  0.00  0.00    +0.000 C 
ATOM     23  C   UNL     1      -2.717  11.584  18.624  0.00  0.00    +0.000 A 
ATOM     24  C   UNL     1      -3.942  11.558  17.983  0.00  0.00    +0.000 A 
ATOM     25  C   UNL     1      -4.088  10.693  16.931  0.00  0.00    +0.000 A 
ATOM     26  C   UNL     1      -2.983   9.913  16.545  0.00  0.00    +0.000 A 
ATOM     27  C   UNL     1      -1.710   9.973  17.237  0.00  0.00    +0.000 A 
ATOM     28  C   UNL     1      -1.554  10.837  18.326  0.00  0.00    +0.000 A 
ENDBRANCH  17  20
ENDBRANCH   4  17
TORSDOF 5
ENDMDL
MODEL 2
REMARK VINA RESULT:      -8.3      0.528      1.069
REMARK  Name = 
REMARK  5 active torsions:
REMARK  status: ('A' for Active; 'I' for Inactive)
REMARK    1  A    between atoms: S_2  and  N_4
REMARK    2  A    between atoms: S_2  and  C_10
REMARK    3  A    between atoms: N_4  and  C_5
REMARK    4  A    between atoms: C_13  and  S_14
REMARK    5  A    between atoms: S_14  and  N_17
REMARK                            x       y       z     vdW  Elec       q    Type
REMARK                         _______ _______ _______ _____ _____    ______ ____
ROOT
ATOM      1  C   UNL     1       2.260   6.886  18.922  0.00  0.00    +0.000 A 
ATOM      2  C   UNL     1       2.231   7.937  17.990  0.00  0.00    +0.000 A 
ATOM      3  C   UNL     1       1.889   9.242  18.418  0.00  0.00    +0.000 A 
ATOM      4  C   UNL     1       1.485   9.491  19.756  0.00  0.00    +0.000 A 
ATOM      5  C   UNL     1       1.556   8.441  20.673  0.00  0.00    +0.000 A 
ATOM      6  C   UNL     1       1.936   7.153  20.261  0.00  0.00    +0.000 A 
ENDROOT
BRANCH   1   8
ATOM      7  O   UNL     1       1.466   4.757  17.553  0.00  0.00    +0.000 OA
ATOM      8  S   UNL     1       2.557   5.189  18.397  0.00  0.00    +0.000 S 
ATOM      9  O   UNL     1       2.922   4.447  19.584  0.00  0.00    +0.000 OA
BRANCH   8  10
ATOM     10  N   UNL     1       3.967   5.254  17.453  0.00  0.00    +0.000 NA
ATOM     11  H   UNL     1       3.732   5.567  16.508  0.00  0.00    +0.000 HD
BRANCH  10  12
ATOM     12  C   UNL     1       5.181   5.851  18.034  0.00  0.00    +0.000 C 
ATOM     13  C   UNL     1       6.291   4.828  18.202  0.00  0.00    +0.000 C 
ATOM     14  C   UNL     1       7.544   5.670  18.351  0.00  0.00    +0.000 C 
ATOM     15  C   UNL     1       7.292   6.929  17.525  0.00  0.00    +0.000 C 
ATOM     16  C   UNL     1       5.828   6.860  17.080  0.00  0.00    +0.000 C 
ENDBRANCH  10  12
ENDBRANCH   8  10
ENDBRANCH   1   8
BRANCH   4  17
ATOM     17  S   UNL     1       0.767  11.187  20.292  0.00  0.00    +0.000 S 
ATOM     18  O   UNL     1       0.737  11.165  21.734  0.00  0.00    +0.000 OA
ATOM     19  O   UNL     1       1.568  12.113  19.547  0.00  0.00    +0.000 OA
BRANCH  17  20
ATOM     20  N   UNL     1      -0.779  11.186  19.630  0.00  0.00    +0.000 N 
ATOM     21  C   UNL     1      -1.778  11.746  20.560  0.00  0.00    +0.000 C 
ATOM     22  C   UNL     1      -2.782  12.418  19.678  0.00  0.00    +0.000 C 
ATOM     23  C   UNL     1      -2.765  11.500  18.507  0.00  0.00    +0.000 A 
ATOM     24  C   UNL     1      -3.877  11.383  17.692  0.00  0.00    +0.000 A 
ATOM     25  C   UNL     1      -3.799  10.516  16.635  0.00  0.00    +0.000 A 
ATOM     26  C   UNL     1      -2.592   9.826  16.421  0.00  0.00    +0.000 A 
ATOM     27  C   UNL     1      -1.444   9.980  17.294  0.00  0.00    +0.000 A 
ATOM     28  C   UNL     1      -1.517  10.847  18.388  0.00  0.00    +0.000 A 
ENDBRANCH  17  20
ENDBRANCH   4  17
TORSDOF 5
ENDMDL
MODEL 3
REMARK VINA RESULT:      -8.3      1.281      8.646
REMARK  Name = 
REMARK  5 active torsions:
REMARK  status: ('A' for Active; 'I' for Inactive)
REMARK    1  A    between atoms: S_2  and  N_4
REMARK    2  A    between atoms: S_2  and  C_10
REMARK    3  A    between atoms: N_4  and  C_5
REMARK    4  A    between atoms: C_13  and  S_14
REMARK    5  A    between atoms: S_14  and  N_17
REMARK                            x       y       z     vdW  Elec       q    Type
REMARK                         _______ _______ _______ _____ _____    ______ ____
ROOT
ATOM      1  C   UNL     1       1.419   9.011  19.747  0.00  0.00    +0.000 A 
ATOM      2  C   UNL     1       1.274   8.038  20.750  0.00  0.00    +0.000 A 
ATOM      3  C   UNL     1       1.589   6.688  20.465  0.00  0.00    +0.000 A 
ATOM      4  C   UNL     1       1.962   6.283  19.155  0.00  0.00    +0.000 A 
ATOM      5  C   UNL     1       2.136   7.271  18.184  0.00  0.00    +0.000 A 
ATOM      6  C   UNL     1       1.864   8.619  18.475  0.00  0.00    +0.000 A 
ENDROOT
BRANCH   1   8
ATOM      7  O   UNL     1       1.482  11.558  19.005  0.00  0.00    +0.000 OA
ATOM      8  S   UNL     1       0.902  10.713  20.026  0.00  0.00    +0.000 S 
ATOM      9  O   UNL     1       1.117  10.985  21.431  0.00  0.00    +0.000 OA
BRANCH   8  10
ATOM     10  N   UNL     1      -0.783  10.708  19.819  0.00  0.00    +0.000 NA
ATOM     11  H   UNL     1      -1.230  11.123  20.640  0.00  0.00    +0.000 HD
BRANCH  10  12
ATOM     12  C   UNL     1      -1.337  11.123  18.519  0.00  0.00    +0.000 C 
ATOM     13  C   UNL     1      -1.454   9.955  17.554  0.00  0.00    +0.000 C 
ATOM     14  C   UNL     1      -2.434  10.446  16.505  0.00  0.00    +0.000 C 
ATOM     15  C   UNL     1      -3.376  11.398  17.237  0.00  0.00    +0.000 C 
ATOM     16  C   UNL     1      -2.797  11.573  18.644  0.00  0.00    +0.000 C 
ENDBRANCH  10  12
ENDBRANCH   8  10
ENDBRANCH   1   8
BRANCH   4  17
ATOM     17  S   UNL     1       2.136   4.432  18.684  0.00  0.00    +0.000 S 
ATOM     18  O   UNL     1       1.897   3.693  19.899  0.00  0.00    +0.000 OA
ATOM     19  O   UNL     1       1.292   4.324  17.530  0.00  0.00    +0.000 OA
BRANCH  17  20
ATOM     20  N   UNL     1       3.733   4.306  18.172  0.00  0.00    +0.000 N 
ATOM     21  C   UNL     1       3.885   3.336  17.071  0.00  0.00    +0.000 C 
ATOM     22  C   UNL     1       4.997   3.883  16.235  0.00  0.00    +0.000 C 
ATOM     23  C   UNL     1       5.854   4.487  17.292  0.00  0.00    +0.000 A 
ATOM     24  C   UNL     1       7.216   4.626  17.096  0.00  0.00    +0.000 A 
ATOM     25  C   UNL     1       7.948   5.182  18.110  0.00  0.00    +0.000 A 
ATOM     26  C   UNL     1       7.274   5.608  19.269  0.00  0.00    +0.000 A 
ATOM     27  C   UNL     1       5.842   5.452  19.436  0.00  0.00    +0.000 A 
ATOM     28  C   UNL     1       5.085   4.867  18.416  0.00  0.00    +0.000 A 
ENDBRANCH  17  20
ENDBRANCH   4  17
TORSDOF 5
ENDMDL
MODEL 4
REMARK VINA RESULT:      -8.3      1.408      8.558
REMARK  Name = 
REMARK  5 active torsions:
REMARK  status: ('A' for Active; 'I' for Inactive)
REMARK    1  A    between atoms: S_2  and  N_4
REMARK    2  A    between atoms: S_2  and  C_10
REMARK    3  A    between atoms: N_4  and  C_5
REMARK    4  A    between atoms: C_13  and  S_14
REMARK    5  A    between atoms: S_14  and  N_17
REMARK                            x       y       z     vdW  Elec       q    Type
REMARK                         _______ _______ _______ _____ _____    ______ ____
ROOT
ATOM      1  C   UNL     1       1.294   9.457  19.702  0.00  0.00    +0.000 A 
ATOM      2  C   UNL     1       1.290   8.543  20.769  0.00  0.00    +0.000 A 
ATOM      3  C   UNL     1       1.779   7.230  20.567  0.00  0.00    +0.000 A 
ATOM      4  C   UNL     1       2.190   6.792  19.279  0.00  0.00    +0.000 A 
ATOM      5  C   UNL     1       2.220   7.726  18.243  0.00  0.00    +0.000 A 
ATOM      6  C   UNL     1       1.774   9.043  18.451  0.00  0.00    +0.000 A 
ENDROOT
BRANCH   1   8
ATOM      7  O   UNL     1       1.087  11.963  18.855  0.00  0.00    +0.000 OA
ATOM      8  S   UNL     1       0.557  11.090  19.879  0.00  0.00    +0.000 S 
ATOM      9  O   UNL     1       0.655  11.438  21.281  0.00  0.00    +0.000 OA
BRANCH   8  10
ATOM     10  N   UNL     1      -1.100  10.868  19.584  0.00  0.00    +0.000 NA
ATOM     11  H   UNL     1      -1.641  11.258  20.359  0.00  0.00    +0.000 HD
BRANCH  10  12
ATOM     12  C   UNL     1      -1.624  11.155  18.238  0.00  0.00    +0.000 C 
ATOM     13  C   UNL     1      -1.652   9.914  17.363  0.00  0.00    +0.000 C 
ATOM     14  C   UNL     1      -2.613  10.276  16.246  0.00  0.00    +0.000 C 
ATOM     15  C   UNL     1      -3.624  11.235  16.870  0.00  0.00    +0.000 C 
ATOM     16  C   UNL     1      -3.105  11.543  18.277  0.00  0.00    +0.000 C 
ENDBRANCH  10  12
ENDBRANCH   8  10
ENDBRANCH   1   8
BRANCH   4  17
ATOM     17  S   UNL     1       2.605   4.953  18.927  0.00  0.00    +0.000 S 
ATOM     18  O   UNL     1       2.612   4.297  20.212  0.00  0.00    +0.000 OA
ATOM     19  O   UNL     1       1.674   4.617  17.890  0.00  0.00    +0.000 OA
BRANCH  17  20
ATOM     20  N   UNL     1       4.141   5.020  18.245  0.00  0.00    +0.000 N 
ATOM     21  C   UNL     1       5.139   5.561  19.187  0.00  0.00    +0.000 C 
ATOM     22  C   UNL     1       6.408   4.848  18.845  0.00  0.00    +0.000 C 
ATOM     23  C   UNL     1       6.249   4.714  17.371  0.00  0.00    +0.000 A 
ATOM     24  C   UNL     1       7.360   4.621  16.551  0.00  0.00    +0.000 A 
ATOM     25  C   UNL     1       7.144   4.506  15.204  0.00  0.00    +0.000 A 
ATOM     26  C   UNL     1       5.818   4.453  14.738  0.00  0.00    +0.000 A 
ATOM     27  C   UNL     1       4.678   4.546  15.629  0.00  0.00    +0.000 A 
ATOM     28  C   UNL     1       4.884   4.684  17.006  0.00  0.00    +0.000 A 
ENDBRANCH  17  20
ENDBRANCH   4  17
TORSDOF 5
ENDMDL
MODEL 5
REMARK VINA RESULT:      -8.2      1.321      1.470
REMARK  Name = 
REMARK  5 active torsions:
REMARK  status: ('A' for Active; 'I' for Inactive)
REMARK    1  A    between atoms: S_2  and  N_4
REMARK    2  A    between atoms: S_2  and  C_10
REMARK    3  A    between atoms: N_4  and  C_5
REMARK    4  A    between atoms: C_13  and  S_14
REMARK    5  A    between atoms: S_14  and  N_17
REMARK                            x       y       z     vdW  Elec       q    Type
REMARK                         _______ _______ _______ _____ _____    ______ ____
ROOT
ATOM      1  C   UNL     1       2.393   6.828  19.291  0.00  0.00    +0.000 A 
ATOM      2  C   UNL     1       1.884   7.172  20.554  0.00  0.00    +0.000 A 
ATOM      3  C   UNL     1       1.312   8.451  20.753  0.00  0.00    +0.000 A 
ATOM      4  C   UNL     1       1.326   9.428  19.721  0.00  0.00    +0.000 A 
ATOM      5  C   UNL     1       1.802   9.052  18.464  0.00  0.00    +0.000 A 
ATOM      6  C   UNL     1       2.332   7.769  18.252  0.00  0.00    +0.000 A 
ENDROOT
BRANCH   1   8
ATOM      7  O   UNL     1       2.374   4.177  19.405  0.00  0.00    +0.000 OA
ATOM      8  S   UNL     1       3.250   5.265  19.031  0.00  0.00    +0.000 S 
ATOM      9  O   UNL     1       4.560   5.409  19.629  0.00  0.00    +0.000 OA
BRANCH   8  10
ATOM     10  N   UNL     1       3.523   5.178  17.358  0.00  0.00    +0.000 NA
ATOM     11  H   UNL     1       2.975   5.900  16.884  0.00  0.00    +0.000 HD
BRANCH  10  12
ATOM     12  C   UNL     1       4.904   5.012  16.874  0.00  0.00    +0.000 C 
ATOM     13  C   UNL     1       5.115   3.659  16.216  0.00  0.00    +0.000 C 
ATOM     14  C   UNL     1       6.379   3.844  15.398  0.00  0.00    +0.000 C 
ATOM     15  C   UNL     1       6.384   5.312  14.977  0.00  0.00    +0.000 C 
ATOM     16  C   UNL     1       5.220   5.972  15.722  0.00  0.00    +0.000 C 
ENDBRANCH  10  12
ENDBRANCH   8  10
ENDBRANCH   1   8
BRANCH   4  17
ATOM     17  S   UNL     1       0.799  11.243  20.046  0.00  0.00    +0.000 S 
ATOM     18  O   UNL     1       0.927  11.442  21.469  0.00  0.00    +0.000 OA
ATOM     19  O   UNL     1       1.578  11.970  19.087  0.00  0.00    +0.000 OA
BRANCH  17  20
ATOM     20  N   UNL     1      -0.807  11.281  19.548  0.00  0.00    +0.000 N 
ATOM     21  C   UNL     1      -1.686  11.892  20.563  0.00  0.00    +0.000 C 
ATOM     22  C   UNL     1      -2.754  12.580  19.776  0.00  0.00    +0.000 C 
ATOM     23  C   UNL     1      -2.889  11.639  18.630  0.00  0.00    +0.000 A 
ATOM     24  C   UNL     1      -4.083  11.544  17.937  0.00  0.00    +0.000 A 
ATOM     25  C   UNL     1      -4.142  10.654  16.898  0.00  0.00    +0.000 A 
ATOM     26  C   UNL     1      -2.986   9.920  16.576  0.00  0.00    +0.000 A 
ATOM     27  C   UNL     1      -1.749  10.052  17.321  0.00  0.00    +0.000 A 
ATOM     28  C   UNL     1      -1.681  10.943  18.397  0.00  0.00    +0.000 A 
ENDBRANCH  17  20
ENDBRANCH   4  17
TORSDOF 5
ENDMDL
MODEL 6
REMARK VINA RESULT:      -8.1      3.664      5.368
REMARK  Name = 
REMARK  5 active torsions:
REMARK  status: ('A' for Active; 'I' for Inactive)
REMARK    1  A    between atoms: S_2  and  N_4
REMARK    2  A    between atoms: S_2  and  C_10
REMARK    3  A    between atoms: N_4  and  C_5
REMARK    4  A    between atoms: C_13  and  S_14
REMARK    5  A    between atoms: S_14  and  N_17
REMARK                            x       y       z     vdW  Elec       q    Type
REMARK                         _______ _______ _______ _____ _____    ______ ____
ROOT
ATOM      1  C   UNL     1       5.736   5.167  17.418  0.00  0.00    +0.000 A 
ATOM      2  C   UNL     1       5.901   5.360  18.800  0.00  0.00    +0.000 A 
ATOM      3  C   UNL     1       4.784   5.241  19.661  0.00  0.00    +0.000 A 
ATOM      4  C   UNL     1       3.480   5.020  19.143  0.00  0.00    +0.000 A 
ATOM      5  C   UNL     1       3.344   4.795  17.773  0.00  0.00    +0.000 A 
ATOM      6  C   UNL     1       4.459   4.871  16.919  0.00  0.00    +0.000 A 
ENDROOT
BRANCH   1   8
ATOM      7  O   UNL     1       8.010   4.321  16.345  0.00  0.00    +0.000 OA
ATOM      8  S   UNL     1       7.099   5.442  16.275  0.00  0.00    +0.000 S 
ATOM      9  O   UNL     1       7.561   6.795  16.501  0.00  0.00    +0.000 OA
BRANCH   8  10
ATOM     10  N   UNL     1       6.392   5.457  14.732  0.00  0.00    +0.000 NA
ATOM     11  H   UNL     1       6.570   6.358  14.282  0.00  0.00    +0.000 HD
BRANCH  10  12
ATOM     12  C   UNL     1       6.554   4.276  13.867  0.00  0.00    +0.000 C 
ATOM     13  C   UNL     1       5.235   3.832  13.260  0.00  0.00    +0.000 C 
ATOM     14  C   UNL     1       5.646   2.957  12.091  0.00  0.00    +0.000 C 
ATOM     15  C   UNL     1       6.974   3.528  11.599  0.00  0.00    +0.000 C 
ATOM     16  C   UNL     1       7.380   4.598  12.617  0.00  0.00    +0.000 C 
ENDBRANCH  10  12
ENDBRANCH   8  10
ENDBRANCH   1   8
BRANCH   4  17
ATOM     17  S   UNL     1       1.923   5.118  20.259  0.00  0.00    +0.000 S 
ATOM     18  O   UNL     1       0.931   4.285  19.626  0.00  0.00    +0.000 OA
ATOM     19  O   UNL     1       2.455   4.838  21.561  0.00  0.00    +0.000 OA
BRANCH  17  20
ATOM     20  N   UNL     1       1.505   6.746  20.208  0.00  0.00    +0.000 N 
ATOM     21  C   UNL     1       0.653   7.133  21.348  0.00  0.00    +0.000 C 
ATOM     22  C   UNL     1       1.030   8.550  21.640  0.00  0.00    +0.000 C 
ATOM     23  C   UNL     1       1.310   9.040  20.262  0.00  0.00    +0.000 A 
ATOM     24  C   UNL     1       1.167  10.381  19.952  0.00  0.00    +0.000 A 
ATOM     25  C   UNL     1       1.434  10.765  18.666  0.00  0.00    +0.000 A 
ATOM     26  C   UNL     1       1.868   9.789  17.750  0.00  0.00    +0.000 A 
ATOM     27  C   UNL     1       2.013   8.393  18.114  0.00  0.00    +0.000 A 
ATOM     28  C   UNL     1       1.725   7.984  19.420  0.00  0.00    +0.000 A 
ENDBRANCH  17  20
ENDBRANCH   4  17
TORSDOF 5
ENDMDL
MODEL 7
REMARK VINA RESULT:      -8.1      1.452      8.564
REMARK  Name = 
REMARK  5 active torsions:
REMARK  status: ('A' for Active; 'I' for Inactive)
REMARK    1  A    between atoms: S_2  and  N_4
REMARK    2  A    between atoms: S_2  and  C_10
REMARK    3  A    between atoms: N_4  and  C_5
REMARK    4  A    between atoms: C_13  and  S_14
REMARK    5  A    between atoms: S_14  and  N_17
REMARK                            x       y       z     vdW  Elec       q    Type
REMARK                         _______ _______ _______ _____ _____    ______ ____
ROOT
ATOM      1  C   UNL     1       1.491   9.427  19.087  0.00  0.00    +0.000 A 
ATOM      2  C   UNL     1       1.936   8.609  18.034  0.00  0.00    +0.000 A 
ATOM      3  C   UNL     1       2.079   7.217  18.243  0.00  0.00    +0.000 A 
ATOM      4  C   UNL     1       1.870   6.643  19.526  0.00  0.00    +0.000 A 
ATOM      5  C   UNL     1       1.394   7.467  20.547  0.00  0.00    +0.000 A 
ATOM      6  C   UNL     1       1.210   8.844  20.331  0.00  0.00    +0.000 A 
ENDROOT
BRANCH   1   8
ATOM      7  O   UNL     1       2.577  11.660  18.151  0.00  0.00    +0.000 OA
ATOM      8  S   UNL     1       1.425  11.217  18.905  0.00  0.00    +0.000 S 
ATOM      9  O   UNL     1       1.141  11.755  20.218  0.00  0.00    +0.000 OA
BRANCH   8  10
ATOM     10  N   UNL     1       0.035  11.521  17.980  0.00  0.00    +0.000 NA
ATOM     11  H   UNL     1       0.273  11.495  16.986  0.00  0.00    +0.000 HD
BRANCH  10  12
ATOM     12  C   UNL     1      -1.222  10.847  18.348  0.00  0.00    +0.000 C 
ATOM     13  C   UNL     1      -2.389  11.817  18.408  0.00  0.00    +0.000 C 
ATOM     14  C   UNL     1      -3.612  10.922  18.330  0.00  0.00    +0.000 C 
ATOM     15  C   UNL     1      -3.189   9.723  17.484  0.00  0.00    +0.000 C 
ATOM     16  C   UNL     1      -1.681   9.872  17.259  0.00  0.00    +0.000 C 
ENDBRANCH  10  12
ENDBRANCH   8  10
ENDBRANCH   1   8
BRANCH   4  17
ATOM     17  S   UNL     1       2.311   4.813  19.894  0.00  0.00    +0.000 S 
ATOM     18  O   UNL     1       2.691   4.772  21.285  0.00  0.00    +0.000 OA
ATOM     19  O   UNL     1       1.174   4.109  19.379  0.00  0.00    +0.000 OA
BRANCH  17  20
ATOM     20  N   UNL     1       3.615   4.511  18.876  0.00  0.00    +0.000 N 
ATOM     21  C   UNL     1       3.272   3.551  17.811  0.00  0.00    +0.000 C 
ATOM     22  C   UNL     1       4.091   3.980  16.635  0.00  0.00    +0.000 C 
ATOM     23  C   UNL     1       5.319   4.460  17.327  0.00  0.00    +0.000 A 
ATOM     24  C   UNL     1       6.540   4.444  16.679  0.00  0.00    +0.000 A 
ATOM     25  C   UNL     1       7.631   4.894  17.373  0.00  0.00    +0.000 A 
ATOM     26  C   UNL     1       7.443   5.374  18.682  0.00  0.00    +0.000 A 
ATOM     27  C   UNL     1       6.144   5.382  19.327  0.00  0.00    +0.000 A 
ATOM     28  C   UNL     1       5.025   4.907  18.635  0.00  0.00    +0.000 A 
ENDBRANCH  17  20
ENDBRANCH   4  17
TORSDOF 5
ENDMDL
MODEL 8
REMARK VINA RESULT:      -8.1      2.563      8.676
REMARK  Name = 
REMARK  5 active torsions:
REMARK  status: ('A' for Active; 'I' for Inactive)
REMARK    1  A    between atoms: S_2  and  N_4
REMARK    2  A    between atoms: S_2  and  C_10
REMARK    3  A    between atoms: N_4  and  C_5
REMARK    4  A    between atoms: C_13  and  S_14
REMARK    5  A    between atoms: S_14  and  N_17
REMARK                            x       y       z     vdW  Elec       q    Type
REMARK                         _______ _______ _______ _____ _____    ______ ____
ROOT
ATOM      1  C   UNL     1       1.435   9.269  19.449  0.00  0.00    +0.000 A 
ATOM      2  C   UNL     1       1.205   8.623  20.675  0.00  0.00    +0.000 A 
ATOM      3  C   UNL     1       1.574   7.265  20.829  0.00  0.00    +0.000 A 
ATOM      4  C   UNL     1       2.088   6.517  19.737  0.00  0.00    +0.000 A 
ATOM      5  C   UNL     1       2.342   7.188  18.540  0.00  0.00    +0.000 A 
ATOM      6  C   UNL     1       2.016   8.547  18.396  0.00  0.00    +0.000 A 
ENDROOT
BRANCH   1   8
ATOM      7  O   UNL     1      -0.502  10.912  18.682  0.00  0.00    +0.000 OA
ATOM      8  S   UNL     1       0.860  10.952  19.167  0.00  0.00    +0.000 S 
ATOM      9  O   UNL     1       1.899  11.624  18.418  0.00  0.00    +0.000 OA
BRANCH   8  10
ATOM     10  N   UNL     1       0.858  11.686  20.698  0.00  0.00    +0.000 NA
ATOM     11  H   UNL     1       1.574  12.416  20.728  0.00  0.00    +0.000 HD
BRANCH  10  12
ATOM     12  C   UNL     1      -0.433  12.041  21.311  0.00  0.00    +0.000 C 
ATOM     13  C   UNL     1      -0.853  11.034  22.368  0.00  0.00    +0.000 C 
ATOM     14  C   UNL     1      -1.899  11.774  23.182  0.00  0.00    +0.000 C 
ATOM     15  C   UNL     1      -1.494  13.245  23.128  0.00  0.00    +0.000 C 
ATOM     16  C   UNL     1      -0.335  13.332  22.131  0.00  0.00    +0.000 C 
ENDBRANCH  10  12
ENDBRANCH   8  10
ENDBRANCH   1   8
BRANCH   4  17
ATOM     17  S   UNL     1       2.344   4.619  19.847  0.00  0.00    +0.000 S 
ATOM     18  O   UNL     1       2.650   4.343  21.230  0.00  0.00    +0.000 OA
ATOM     19  O   UNL     1       1.176   4.108  19.194  0.00  0.00    +0.000 OA
BRANCH  17  20
ATOM     20  N   UNL     1       3.665   4.342  18.843  0.00  0.00    +0.000 N 
ATOM     21  C   UNL     1       3.366   3.340  17.803  0.00  0.00    +0.000 C 
ATOM     22  C   UNL     1       4.173   3.770  16.620  0.00  0.00    +0.000 C 
ATOM     23  C   UNL     1       5.377   4.318  17.303  0.00  0.00    +0.000 A 
ATOM     24  C   UNL     1       6.602   4.334  16.661  0.00  0.00    +0.000 A 
ATOM     25  C   UNL     1       7.670   4.845  17.347  0.00  0.00    +0.000 A 
ATOM     26  C   UNL     1       7.456   5.352  18.641  0.00  0.00    +0.000 A 
ATOM     27  C   UNL     1       6.154   5.325  19.281  0.00  0.00    +0.000 A 
ATOM     28  C   UNL     1       5.059   4.788  18.598  0.00  0.00    +0.000 A 
ENDBRANCH  17  20
ENDBRANCH   4  17
TORSDOF 5
ENDMDL
MODEL 9
REMARK VINA RESULT:      -8.1      1.000      1.344
REMARK  Name = 
REMARK  5 active torsions:
REMARK  status: ('A' for Active; 'I' for Inactive)
REMARK    1  A    between atoms: S_2  and  N_4
REMARK    2  A    between atoms: S_2  and  C_10
REMARK    3  A    between atoms: N_4  and  C_5
REMARK    4  A    between atoms: C_13  and  S_14
REMARK    5  A    between atoms: S_14  and  N_17
REMARK                            x       y       z     vdW  Elec       q    Type
REMARK                         _______ _______ _______ _____ _____    ______ ____
ROOT
ATOM      1  C   UNL     1       2.194   6.765  19.466  0.00  0.00    +0.000 A 
ATOM      2  C   UNL     1       1.657   7.205  20.687  0.00  0.00    +0.000 A 
ATOM      3  C   UNL     1       1.149   8.523  20.793  0.00  0.00    +0.000 A 
ATOM      4  C   UNL     1       1.257   9.439  19.712  0.00  0.00    +0.000 A 
ATOM      5  C   UNL     1       1.761   8.969  18.498  0.00  0.00    +0.000 A 
ATOM      6  C   UNL     1       2.227   7.649  18.377  0.00  0.00    +0.000 A 
ENDROOT
BRANCH   1   8
ATOM      7  O   UNL     1       2.329   4.402  18.266  0.00  0.00    +0.000 OA
ATOM      8  S   UNL     1       2.973   5.147  19.326  0.00  0.00    +0.000 S 
ATOM      9  O   UNL     1       3.059   4.613  20.668  0.00  0.00    +0.000 OA
BRANCH   8  10
ATOM     10  N   UNL     1       4.574   5.461  18.859  0.00  0.00    +0.000 NA
ATOM     11  H   UNL     1       5.202   5.277  19.645  0.00  0.00    +0.000 HD
BRANCH  10  12
ATOM     12  C   UNL     1       5.039   4.971  17.550  0.00  0.00    +0.000 C 
ATOM     13  C   UNL     1       4.872   6.016  16.461  0.00  0.00    +0.000 C 
ATOM     14  C   UNL     1       5.793   5.540  15.353  0.00  0.00    +0.000 C 
ATOM     15  C   UNL     1       6.943   4.824  16.057  0.00  0.00    +0.000 C 
ATOM     16  C   UNL     1       6.554   4.744  17.536  0.00  0.00    +0.000 C 
ENDBRANCH  10  12
ENDBRANCH   8  10
ENDBRANCH   1   8
BRANCH   4  17
ATOM     17  S   UNL     1       0.820  11.295  19.918  0.00  0.00    +0.000 S 
ATOM     18  O   UNL     1       1.046  11.601  21.310  0.00  0.00    +0.000 OA
ATOM     19  O   UNL     1       1.562  11.909  18.857  0.00  0.00    +0.000 OA
BRANCH  17  20
ATOM     20  N   UNL     1      -0.812  11.360  19.517  0.00  0.00    +0.000 N 
ATOM     21  C   UNL     1      -1.622  11.959  20.595  0.00  0.00    +0.000 C 
ATOM     22  C   UNL     1      -2.727  12.675  19.886  0.00  0.00    +0.000 C 
ATOM     23  C   UNL     1      -2.940  11.760  18.732  0.00  0.00    +0.000 A 
ATOM     24  C   UNL     1      -4.174  11.692  18.109  0.00  0.00    +0.000 A 
ATOM     25  C   UNL     1      -4.305  10.825  17.057  0.00  0.00    +0.000 A 
ATOM     26  C   UNL     1      -3.179  10.086  16.652  0.00  0.00    +0.000 A 
ATOM     27  C   UNL     1      -1.899  10.189  17.325  0.00  0.00    +0.000 A 
ATOM     28  C   UNL     1      -1.756  11.056  18.413  0.00  0.00    +0.000 A 
ENDBRANCH  17  20
ENDBRANCH   4  17
TORSDOF 5
ENDMDL
