MODEL 1
REMARK VINA RESULT:      -8.4      0.000      0.000
REMARK  Name = 
REMARK  7 active torsions:
REMARK  status: ('A' for Active; 'I' for Inactive)
REMARK    1  A    between atoms: C_1  and  C_2
REMARK    2  A    between atoms: C_2  and  O_3
REMARK    3  A    between atoms: O_3  and  C_4
REMARK    4  A    between atoms: C_4  and  C_6
REMARK    5  A    between atoms: C_14  and  C_15
REMARK    6  A    between atoms: C_19  and  O_20
REMARK    7  A    between atoms: O_20  and  C_21
REMARK                            x       y       z     vdW  Elec       q    Type
REMARK                         _______ _______ _______ _____ _____    ______ ____
ROOT
ATOM      1  C   UNL     1       5.926   4.804  15.845  0.00  0.00    +0.000 A 
ATOM      2  C   UNL     1       5.192   5.894  16.300  0.00  0.00    +0.000 A 
ATOM      3  C   UNL     1       4.487   5.457  17.417  0.00  0.00    +0.000 A 
ATOM      4  C   UNL     1       4.784   4.132  17.654  0.00  0.00    +0.000 A 
ATOM      5  C   UNL     1       4.295   3.327  18.720  0.00  0.00    +0.000 A 
ATOM      6  C   UNL     1       3.443   3.947  19.573  0.00  0.00    +0.000 A 
ATOM      7  N   UNL     1       3.077   5.298  19.397  0.00  0.00    +0.000 N 
ATOM      8  C   UNL     1       2.240   6.102  20.126  0.00  0.00    +0.000 A 
ATOM      9  C   UNL     1       2.257   7.329  19.484  0.00  0.00    +0.000 A 
ATOM     10  N   UNL     1       3.077   7.306  18.379  0.00  0.00    +0.000 NA
ATOM     11  C   UNL     1       3.555   6.087  18.362  0.00  0.00    +0.000 A 
ATOM     12  N   UNL     1       5.641   3.725  16.674  0.00  0.00    +0.000 N 
ATOM     13  H   UNL     1       6.054   2.807  16.570  0.00  0.00    +0.000 HD
ENDROOT
BRANCH   9  14
ATOM     14  C   UNL     1       1.513   8.506  19.888  0.00  0.00    +0.000 A 
ATOM     15  C   UNL     1       1.081   9.425  18.925  0.00  0.00    +0.000 A 
ATOM     16  C   UNL     1       0.360  10.556  19.305  0.00  0.00    +0.000 A 
ATOM     17  C   UNL     1       0.088  10.784  20.654  0.00  0.00    +0.000 A 
ATOM     18  C   UNL     1       0.536   9.889  21.630  0.00  0.00    +0.000 A 
ATOM     19  C   UNL     1       1.237   8.750  21.241  0.00  0.00    +0.000 A 
BRANCH  18  20
ATOM     20  O   UNL     1       0.241  10.238  22.920  0.00  0.00    +0.000 OA
ATOM     21  C   UNL     1      -1.085  10.693  23.168  0.00  0.00    +0.000 C 
ENDBRANCH  18  20
ENDBRANCH   9  14
BRANCH   1  22
ATOM     22  C   UNL     1       6.884   4.728  14.772  0.00  0.00    +0.000 C 
ATOM     23  O   UNL     1       7.810   5.508  14.611  0.00  0.00    +0.000 OA
BRANCH  22  24
ATOM     24  O   UNL     1       6.511   3.741  13.914  0.00  0.00    +0.000 OA
BRANCH  24  26
ATOM     25  C   UNL     1       5.290   3.099  11.964  0.00  0.00    +0.000 C 
ATOM     26  C   UNL     1       5.289   3.973  13.208  0.00  0.00    +0.000 C 
ENDBRANCH  24  26
ENDBRANCH  22  24
ENDBRANCH   1  22
TORSDOF 5
ENDMDL
MODEL 2
REMARK VINA RESULT:      -8.3      1.070      1.619
REMARK  Name = 
REMARK  7 active torsions:
REMARK  status: ('A' for Active; 'I' for Inactive)
REMARK    1  A    between atoms: C_1  and  C_2
REMARK    2  A    between atoms: C_2  and  O_3
REMARK    3  A    between atoms: O_3  and  C_4
REMARK    4  A    between atoms: C_4  and  C_6
REMARK    5  A    between atoms: C_14  and  C_15
REMARK    6  A    between atoms: C_19  and  O_20
REMARK    7  A    between atoms: O_20  and  C_21
REMARK                            x       y       z     vdW  Elec       q    Type
REMARK                         _______ _______ _______ _____ _____    ______ ____
ROOT
ATOM      1  C   UNL     1       5.807   4.639  15.785  0.00  0.00    +0.000 A 
ATOM      2  C   UNL     1       5.081   5.728  16.255  0.00  0.00    +0.000 A 
ATOM      3  C   UNL     1       4.414   5.295  17.397  0.00  0.00    +0.000 A 
ATOM      4  C   UNL     1       4.726   3.973  17.634  0.00  0.00    +0.000 A 
ATOM      5  C   UNL     1       4.277   3.173  18.720  0.00  0.00    +0.000 A 
ATOM      6  C   UNL     1       3.448   3.794  19.596  0.00  0.00    +0.000 A 
ATOM      7  N   UNL     1       3.069   5.141  19.422  0.00  0.00    +0.000 N 
ATOM      8  C   UNL     1       2.249   5.946  20.171  0.00  0.00    +0.000 A 
ATOM      9  C   UNL     1       2.238   7.168  19.520  0.00  0.00    +0.000 A 
ATOM     10  N   UNL     1       3.023   7.141  18.391  0.00  0.00    +0.000 NA
ATOM     11  C   UNL     1       3.508   5.926  18.367  0.00  0.00    +0.000 A 
ATOM     12  N   UNL     1       5.555   3.564  16.630  0.00  0.00    +0.000 N 
ATOM     13  H   UNL     1       5.971   2.648  16.519  0.00  0.00    +0.000 HD
ENDROOT
BRANCH   9  14
ATOM     14  C   UNL     1       1.500   8.343  19.939  0.00  0.00    +0.000 A 
ATOM     15  C   UNL     1       1.042   8.448  21.258  0.00  0.00    +0.000 A 
ATOM     16  C   UNL     1       0.336   9.578  21.669  0.00  0.00    +0.000 A 
ATOM     17  C   UNL     1       0.066  10.598  20.756  0.00  0.00    +0.000 A 
ATOM     18  C   UNL     1       0.493  10.495  19.429  0.00  0.00    +0.000 A 
ATOM     19  C   UNL     1       1.217   9.373  19.030  0.00  0.00    +0.000 A 
BRANCH  18  20
ATOM     20  O   UNL     1       0.137  11.540  18.620  0.00  0.00    +0.000 OA
ATOM     21  C   UNL     1      -0.691  12.540  19.201  0.00  0.00    +0.000 C 
ENDBRANCH  18  20
ENDBRANCH   9  14
BRANCH   1  22
ATOM     22  C   UNL     1       6.731   4.561  14.683  0.00  0.00    +0.000 C 
ATOM     23  O   UNL     1       7.606   5.381  14.451  0.00  0.00    +0.000 OA
BRANCH  22  24
ATOM     24  O   UNL     1       6.384   3.515  13.887  0.00  0.00    +0.000 OA
BRANCH  24  26
ATOM     25  C   UNL     1       5.229   3.129  11.832  0.00  0.00    +0.000 C 
ATOM     26  C   UNL     1       6.447   3.767  12.481  0.00  0.00    +0.000 C 
ENDBRANCH  24  26
ENDBRANCH  22  24
ENDBRANCH   1  22
TORSDOF 5
ENDMDL
MODEL 3
REMARK VINA RESULT:      -8.0      1.047      1.271
REMARK  Name = 
REMARK  7 active torsions:
REMARK  status: ('A' for Active; 'I' for Inactive)
REMARK    1  A    between atoms: C_1  and  C_2
REMARK    2  A    between atoms: C_2  and  O_3
REMARK    3  A    between atoms: O_3  and  C_4
REMARK    4  A    between atoms: C_4  and  C_6
REMARK    5  A    between atoms: C_14  and  C_15
REMARK    6  A    between atoms: C_19  and  O_20
REMARK    7  A    between atoms: O_20  and  C_21
REMARK                            x       y       z     vdW  Elec       q    Type
REMARK                         _______ _______ _______ _____ _____    ______ ____
ROOT
ATOM      1  C   UNL     1       5.559   4.541  17.308  0.00  0.00    +0.000 A 
ATOM      2  C   UNL     1       4.885   5.725  17.583  0.00  0.00    +0.000 A 
ATOM      3  C   UNL     1       3.979   5.438  18.600  0.00  0.00    +0.000 A 
ATOM      4  C   UNL     1       4.096   4.110  18.952  0.00  0.00    +0.000 A 
ATOM      5  C   UNL     1       3.372   3.433  19.972  0.00  0.00    +0.000 A 
ATOM      6  C   UNL     1       2.473   4.190  20.648  0.00  0.00    +0.000 A 
ATOM      7  N   UNL     1       2.282   5.554  20.343  0.00  0.00    +0.000 N 
ATOM      8  C   UNL     1       1.435   6.484  20.887  0.00  0.00    +0.000 A 
ATOM      9  C   UNL     1       1.677   7.656  20.190  0.00  0.00    +0.000 A 
ATOM     10  N   UNL     1       2.644   7.476  19.228  0.00  0.00    +0.000 NA
ATOM     11  C   UNL     1       2.988   6.219  19.353  0.00  0.00    +0.000 A 
ATOM     12  N   UNL     1       5.042   3.555  18.141  0.00  0.00    +0.000 N 
ATOM     13  H   UNL     1       5.367   2.596  18.153  0.00  0.00    +0.000 HD
ENDROOT
BRANCH   9  14
ATOM     14  C   UNL     1       1.009   8.923  20.408  0.00  0.00    +0.000 A 
ATOM     15  C   UNL     1       0.779   9.787  19.331  0.00  0.00    +0.000 A 
ATOM     16  C   UNL     1       0.133  11.006  19.532  0.00  0.00    +0.000 A 
ATOM     17  C   UNL     1      -0.267  11.376  20.817  0.00  0.00    +0.000 A 
ATOM     18  C   UNL     1      -0.020  10.536  21.907  0.00  0.00    +0.000 A 
ATOM     19  C   UNL     1       0.607   9.310  21.695  0.00  0.00    +0.000 A 
BRANCH  18  20
ATOM     20  O   UNL     1      -0.424  11.022  23.121  0.00  0.00    +0.000 OA
ATOM     21  C   UNL     1      -1.776  11.459  23.213  0.00  0.00    +0.000 C 
ENDBRANCH  18  20
ENDBRANCH   9  14
BRANCH   1  22
ATOM     22  C   UNL     1       6.653   4.298  16.403  0.00  0.00    +0.000 C 
ATOM     23  O   UNL     1       7.791   4.709  16.563  0.00  0.00    +0.000 OA
BRANCH  22  24
ATOM     24  O   UNL     1       6.180   3.662  15.298  0.00  0.00    +0.000 OA
BRANCH  24  26
ATOM     25  C   UNL     1       5.614   3.755  12.980  0.00  0.00    +0.000 C 
ATOM     26  C   UNL     1       6.592   4.218  14.047  0.00  0.00    +0.000 C 
ENDBRANCH  24  26
ENDBRANCH  22  24
ENDBRANCH   1  22
TORSDOF 5
ENDMDL
MODEL 4
REMARK VINA RESULT:      -7.9      1.354      1.909
REMARK  Name = 
REMARK  7 active torsions:
REMARK  status: ('A' for Active; 'I' for Inactive)
REMARK    1  A    between atoms: C_1  and  C_2
REMARK    2  A    between atoms: C_2  and  O_3
REMARK    3  A    between atoms: O_3  and  C_4
REMARK    4  A    between atoms: C_4  and  C_6
REMARK    5  A    between atoms: C_14  and  C_15
REMARK    6  A    between atoms: C_19  and  O_20
REMARK    7  A    between atoms: O_20  and  C_21
REMARK                            x       y       z     vdW  Elec       q    Type
REMARK                         _______ _______ _______ _____ _____    ______ ____
ROOT
ATOM      1  C   UNL     1       5.568   4.385  16.991  0.00  0.00    +0.000 A 
ATOM      2  C   UNL     1       4.897   5.552  17.340  0.00  0.00    +0.000 A 
ATOM      3  C   UNL     1       4.054   5.222  18.397  0.00  0.00    +0.000 A 
ATOM      4  C   UNL     1       4.205   3.886  18.701  0.00  0.00    +0.000 A 
ATOM      5  C   UNL     1       3.548   3.169  19.738  0.00  0.00    +0.000 A 
ATOM      6  C   UNL     1       2.681   3.894  20.487  0.00  0.00    +0.000 A 
ATOM      7  N   UNL     1       2.458   5.264  20.236  0.00  0.00    +0.000 N 
ATOM      8  C   UNL     1       1.634   6.167  20.856  0.00  0.00    +0.000 A 
ATOM      9  C   UNL     1       1.823   7.362  20.183  0.00  0.00    +0.000 A 
ATOM     10  N   UNL     1       2.736   7.223  19.163  0.00  0.00    +0.000 NA
ATOM     11  C   UNL     1       3.100   5.968  19.229  0.00  0.00    +0.000 A 
ATOM     12  N   UNL     1       5.110   3.368  17.820  0.00  0.00    +0.000 N 
ATOM     13  H   UNL     1       5.445   2.413  17.783  0.00  0.00    +0.000 HD
ENDROOT
BRANCH   9  14
ATOM     14  C   UNL     1       1.155   8.614  20.478  0.00  0.00    +0.000 A 
ATOM     15  C   UNL     1       0.663   8.858  21.765  0.00  0.00    +0.000 A 
ATOM     16  C   UNL     1       0.025  10.063  22.058  0.00  0.00    +0.000 A 
ATOM     17  C   UNL     1      -0.143  11.020  21.057  0.00  0.00    +0.000 A 
ATOM     18  C   UNL     1       0.318  10.779  19.760  0.00  0.00    +0.000 A 
ATOM     19  C   UNL     1       0.975   9.583  19.479  0.00  0.00    +0.000 A 
BRANCH  18  20
ATOM     20  O   UNL     1       0.063  11.776  18.856  0.00  0.00    +0.000 OA
ATOM     21  C   UNL     1      -1.302  12.134  18.674  0.00  0.00    +0.000 C 
ENDBRANCH  18  20
ENDBRANCH   9  14
BRANCH   1  22
ATOM     22  C   UNL     1       6.610   4.183  16.018  0.00  0.00    +0.000 C 
ATOM     23  O   UNL     1       7.780   4.494  16.179  0.00  0.00    +0.000 OA
BRANCH  22  24
ATOM     24  O   UNL     1       6.057   3.722  14.864  0.00  0.00    +0.000 OA
BRANCH  24  26
ATOM     25  C   UNL     1       6.095   3.424  12.495  0.00  0.00    +0.000 C 
ATOM     26  C   UNL     1       6.626   4.243  13.660  0.00  0.00    +0.000 C 
ENDBRANCH  24  26
ENDBRANCH  22  24
ENDBRANCH   1  22
TORSDOF 5
ENDMDL
MODEL 5
REMARK VINA RESULT:      -7.6      2.053      2.557
REMARK  Name = 
REMARK  7 active torsions:
REMARK  status: ('A' for Active; 'I' for Inactive)
REMARK    1  A    between atoms: C_1  and  C_2
REMARK    2  A    between atoms: C_2  and  O_3
REMARK    3  A    between atoms: O_3  and  C_4
REMARK    4  A    between atoms: C_4  and  C_6
REMARK    5  A    between atoms: C_14  and  C_15
REMARK    6  A    between atoms: C_19  and  O_20
REMARK    7  A    between atoms: O_20  and  C_21
REMARK                            x       y       z     vdW  Elec       q    Type
REMARK                         _______ _______ _______ _____ _____    ______ ____
ROOT
ATOM      1  C   UNL     1       5.854   5.340  16.045  0.00  0.00    +0.000 A 
ATOM      2  C   UNL     1       5.015   6.449  16.049  0.00  0.00    +0.000 A 
ATOM      3  C   UNL     1       4.318   6.413  17.253  0.00  0.00    +0.000 A 
ATOM      4  C   UNL     1       4.723   5.315  17.981  0.00  0.00    +0.000 A 
ATOM      5  C   UNL     1       4.276   4.940  19.278  0.00  0.00    +0.000 A 
ATOM      6  C   UNL     1       3.348   5.759  19.832  0.00  0.00    +0.000 A 
ATOM      7  N   UNL     1       2.871   6.898  19.151  0.00  0.00    +0.000 N 
ATOM      8  C   UNL     1       1.945   7.841  19.518  0.00  0.00    +0.000 A 
ATOM      9  C   UNL     1       1.873   8.722  18.452  0.00  0.00    +0.000 A 
ATOM     10  N   UNL     1       2.723   8.350  17.436  0.00  0.00    +0.000 NA
ATOM     11  C   UNL     1       3.307   7.269  17.888  0.00  0.00    +0.000 A 
ATOM     12  N   UNL     1       5.641   4.642  17.228  0.00  0.00    +0.000 N 
ATOM     13  H   UNL     1       6.136   3.797  17.483  0.00  0.00    +0.000 HD
ENDROOT
BRANCH   9  14
ATOM     14  C   UNL     1       1.017   9.889  18.375  0.00  0.00    +0.000 A 
ATOM     15  C   UNL     1       1.502  11.139  18.776  0.00  0.00    +0.000 A 
ATOM     16  C   UNL     1       0.686  12.268  18.700  0.00  0.00    +0.000 A 
ATOM     17  C   UNL     1      -0.626  12.145  18.243  0.00  0.00    +0.000 A 
ATOM     18  C   UNL     1      -1.133  10.899  17.865  0.00  0.00    +0.000 A 
ATOM     19  C   UNL     1      -0.306   9.779  17.923  0.00  0.00    +0.000 A 
BRANCH  18  20
ATOM     20  O   UNL     1      -2.444  10.898  17.470  0.00  0.00    +0.000 OA
ATOM     21  C   UNL     1      -2.840   9.859  16.582  0.00  0.00    +0.000 C 
ENDBRANCH  18  20
ENDBRANCH   9  14
BRANCH   1  22
ATOM     22  C   UNL     1       6.846   4.946  15.078  0.00  0.00    +0.000 C 
ATOM     23  O   UNL     1       7.790   5.638  14.729  0.00  0.00    +0.000 OA
BRANCH  22  24
ATOM     24  O   UNL     1       6.486   3.753  14.534  0.00  0.00    +0.000 OA
BRANCH  24  26
ATOM     25  C   UNL     1       6.854   3.666  12.176  0.00  0.00    +0.000 C 
ATOM     26  C   UNL     1       5.815   3.831  13.274  0.00  0.00    +0.000 C 
ENDBRANCH  24  26
ENDBRANCH  22  24
ENDBRANCH   1  22
TORSDOF 5
ENDMDL
MODEL 6
REMARK VINA RESULT:      -7.6      1.985      2.599
REMARK  Name = 
REMARK  7 active torsions:
REMARK  status: ('A' for Active; 'I' for Inactive)
REMARK    1  A    between atoms: C_1  and  C_2
REMARK    2  A    between atoms: C_2  and  O_3
REMARK    3  A    between atoms: O_3  and  C_4
REMARK    4  A    between atoms: C_4  and  C_6
REMARK    5  A    between atoms: C_14  and  C_15
REMARK    6  A    between atoms: C_19  and  O_20
REMARK    7  A    between atoms: O_20  and  C_21
REMARK                            x       y       z     vdW  Elec       q    Type
REMARK                         _______ _______ _______ _____ _____    ______ ____
ROOT
ATOM      1  C   UNL     1       5.601   5.430  16.388  0.00  0.00    +0.000 A 
ATOM      2  C   UNL     1       4.857   6.604  16.385  0.00  0.00    +0.000 A 
ATOM      3  C   UNL     1       4.051   6.566  17.518  0.00  0.00    +0.000 A 
ATOM      4  C   UNL     1       4.297   5.400  18.212  0.00  0.00    +0.000 A 
ATOM      5  C   UNL     1       3.703   4.998  19.440  0.00  0.00    +0.000 A 
ATOM      6  C   UNL     1       2.798   5.864  19.959  0.00  0.00    +0.000 A 
ATOM      7  N   UNL     1       2.478   7.074  19.308  0.00  0.00    +0.000 N 
ATOM      8  C   UNL     1       1.602   8.072  19.648  0.00  0.00    +0.000 A 
ATOM      9  C   UNL     1       1.700   9.010  18.635  0.00  0.00    +0.000 A 
ATOM     10  N   UNL     1       2.608   8.621  17.677  0.00  0.00    +0.000 NA
ATOM     11  C   UNL     1       3.058   7.472  18.112  0.00  0.00    +0.000 A 
ATOM     12  N   UNL     1       5.224   4.692  17.504  0.00  0.00    +0.000 N 
ATOM     13  H   UNL     1       5.623   3.795  17.751  0.00  0.00    +0.000 HD
ENDROOT
BRANCH   9  14
ATOM     14  C   UNL     1       0.953  10.249  18.553  0.00  0.00    +0.000 A 
ATOM     15  C   UNL     1      -0.435  10.218  18.375  0.00  0.00    +0.000 A 
ATOM     16  C   UNL     1      -1.162  11.406  18.301  0.00  0.00    +0.000 A 
ATOM     17  C   UNL     1      -0.499  12.631  18.384  0.00  0.00    +0.000 A 
ATOM     18  C   UNL     1       0.889  12.678  18.534  0.00  0.00    +0.000 A 
ATOM     19  C   UNL     1       1.607  11.488  18.630  0.00  0.00    +0.000 A 
BRANCH  18  20
ATOM     20  O   UNL     1       1.430  13.936  18.566  0.00  0.00    +0.000 OA
ATOM     21  C   UNL     1       2.840  14.018  18.736  0.00  0.00    +0.000 C 
ENDBRANCH  18  20
ENDBRANCH   9  14
BRANCH   1  22
ATOM     22  C   UNL     1       6.643   5.003  15.490  0.00  0.00    +0.000 C 
ATOM     23  O   UNL     1       7.640   5.654  15.223  0.00  0.00    +0.000 OA
BRANCH  22  24
ATOM     24  O   UNL     1       6.269   3.836  14.901  0.00  0.00    +0.000 OA
BRANCH  24  26
ATOM     25  C   UNL     1       6.396   3.616  12.526  0.00  0.00    +0.000 C 
ATOM     26  C   UNL     1       5.501   3.973  13.702  0.00  0.00    +0.000 C 
ENDBRANCH  24  26
ENDBRANCH  22  24
ENDBRANCH   1  22
TORSDOF 5
ENDMDL
MODEL 7
REMARK VINA RESULT:      -7.5      2.021      2.681
REMARK  Name = 
REMARK  7 active torsions:
REMARK  status: ('A' for Active; 'I' for Inactive)
REMARK    1  A    between atoms: C_1  and  C_2
REMARK    2  A    between atoms: C_2  and  O_3
REMARK    3  A    between atoms: O_3  and  C_4
REMARK    4  A    between atoms: C_4  and  C_6
REMARK    5  A    between atoms: C_14  and  C_15
REMARK    6  A    between atoms: C_19  and  O_20
REMARK    7  A    between atoms: O_20  and  C_21
REMARK                            x       y       z     vdW  Elec       q    Type
REMARK                         _______ _______ _______ _____ _____    ______ ____
ROOT
ATOM      1  C   UNL     1       5.719   5.527  16.813  0.00  0.00    +0.000 A 
ATOM      2  C   UNL     1       4.978   6.703  16.772  0.00  0.00    +0.000 A 
ATOM      3  C   UNL     1       4.057   6.627  17.812  0.00  0.00    +0.000 A 
ATOM      4  C   UNL     1       4.230   5.438  18.488  0.00  0.00    +0.000 A 
ATOM      5  C   UNL     1       3.510   4.995  19.632  0.00  0.00    +0.000 A 
ATOM      6  C   UNL     1       2.554   5.845  20.081  0.00  0.00    +0.000 A 
ATOM      7  N   UNL     1       2.304   7.077  19.443  0.00  0.00    +0.000 N 
ATOM      8  C   UNL     1       1.395   8.065  19.722  0.00  0.00    +0.000 A 
ATOM      9  C   UNL     1       1.599   9.038  18.758  0.00  0.00    +0.000 A 
ATOM     10  N   UNL     1       2.604   8.679  17.889  0.00  0.00    +0.000 NA
ATOM     11  C   UNL     1       3.006   7.514  18.329  0.00  0.00    +0.000 A 
ATOM     12  N   UNL     1       5.227   4.752  17.857  0.00  0.00    +0.000 N 
ATOM     13  H   UNL     1       5.599   3.846  18.113  0.00  0.00    +0.000 HD
ENDROOT
BRANCH   9  14
ATOM     14  C   UNL     1       0.863  10.281  18.641  0.00  0.00    +0.000 A 
ATOM     15  C   UNL     1       1.543  11.503  18.681  0.00  0.00    +0.000 A 
ATOM     16  C   UNL     1       0.842  12.703  18.563  0.00  0.00    +0.000 A 
ATOM     17  C   UNL     1      -0.546  12.684  18.427  0.00  0.00    +0.000 A 
ATOM     18  C   UNL     1      -1.242  11.472  18.414  0.00  0.00    +0.000 A 
ATOM     19  C   UNL     1      -0.534  10.277  18.509  0.00  0.00    +0.000 A 
BRANCH  18  20
ATOM     20  O   UNL     1      -2.603  11.583  18.313  0.00  0.00    +0.000 OA
ATOM     21  C   UNL     1      -3.165  11.371  17.023  0.00  0.00    +0.000 C 
ENDBRANCH  18  20
ENDBRANCH   9  14
BRANCH   1  22
ATOM     22  C   UNL     1       6.850   5.128  16.016  0.00  0.00    +0.000 C 
ATOM     23  O   UNL     1       7.828   4.536  16.445  0.00  0.00    +0.000 OA
BRANCH  22  24
ATOM     24  O   UNL     1       6.706   5.630  14.761  0.00  0.00    +0.000 OA
BRANCH  24  26
ATOM     25  C   UNL     1       5.929   3.762  13.492  0.00  0.00    +0.000 C 
ATOM     26  C   UNL     1       7.071   4.743  13.700  0.00  0.00    +0.000 C 
ENDBRANCH  24  26
ENDBRANCH  22  24
ENDBRANCH   1  22
TORSDOF 5
ENDMDL
MODEL 8
REMARK VINA RESULT:      -7.5      1.704      8.850
REMARK  Name = 
REMARK  7 active torsions:
REMARK  status: ('A' for Active; 'I' for Inactive)
REMARK    1  A    between atoms: C_1  and  C_2
REMARK    2  A    between atoms: C_2  and  O_3
REMARK    3  A    between atoms: O_3  and  C_4
REMARK    4  A    between atoms: C_4  and  C_6
REMARK    5  A    between atoms: C_14  and  C_15
REMARK    6  A    between atoms: C_19  and  O_20
REMARK    7  A    between atoms: O_20  and  C_21
REMARK                            x       y       z     vdW  Elec       q    Type
REMARK                         _______ _______ _______ _____ _____    ______ ____
ROOT
ATOM      1  C   UNL     1       2.067   7.642  19.644  0.00  0.00    +0.000 A 
ATOM      2  C   UNL     1       2.725   7.446  18.434  0.00  0.00    +0.000 A 
ATOM      3  C   UNL     1       3.275   6.169  18.486  0.00  0.00    +0.000 A 
ATOM      4  C   UNL     1       2.958   5.584  19.693  0.00  0.00    +0.000 A 
ATOM      5  C   UNL     1       3.303   4.273  20.122  0.00  0.00    +0.000 A 
ATOM      6  C   UNL     1       4.027   3.544  19.237  0.00  0.00    +0.000 A 
ATOM      7  N   UNL     1       4.404   4.069  17.984  0.00  0.00    +0.000 N 
ATOM      8  C   UNL     1       5.129   3.516  16.960  0.00  0.00    +0.000 A 
ATOM      9  C   UNL     1       5.190   4.493  15.981  0.00  0.00    +0.000 A 
ATOM     10  N   UNL     1       4.529   5.635  16.371  0.00  0.00    +0.000 NA
ATOM     11  C   UNL     1       4.066   5.346  17.560  0.00  0.00    +0.000 A 
ATOM     12  N   UNL     1       2.244   6.498  20.413  0.00  0.00    +0.000 N 
ATOM     13  H   UNL     1       1.856   6.373  21.339  0.00  0.00    +0.000 HD
ENDROOT
BRANCH   9  14
ATOM     14  C   UNL     1       5.864   4.370  14.704  0.00  0.00    +0.000 A 
ATOM     15  C   UNL     1       6.981   5.166  14.423  0.00  0.00    +0.000 A 
ATOM     16  C   UNL     1       7.638   5.049  13.198  0.00  0.00    +0.000 A 
ATOM     17  C   UNL     1       7.166   4.150  12.241  0.00  0.00    +0.000 A 
ATOM     18  C   UNL     1       6.036   3.369  12.497  0.00  0.00    +0.000 A 
ATOM     19  C   UNL     1       5.397   3.474  13.731  0.00  0.00    +0.000 A 
BRANCH  18  20
ATOM     20  O   UNL     1       5.647   2.553  11.469  0.00  0.00    +0.000 OA
ATOM     21  C   UNL     1       6.574   1.551  11.067  0.00  0.00    +0.000 C 
ENDBRANCH  18  20
ENDBRANCH   9  14
BRANCH   1  22
ATOM     22  C   UNL     1       1.264   8.755  20.080  0.00  0.00    +0.000 C 
ATOM     23  O   UNL     1       1.209   9.836  19.514  0.00  0.00    +0.000 OA
BRANCH  22  24
ATOM     24  O   UNL     1       0.695   8.449  21.276  0.00  0.00    +0.000 OA
BRANCH  24  26
ATOM     25  C   UNL     1      -0.425   9.956  22.752  0.00  0.00    +0.000 C 
ATOM     26  C   UNL     1       0.921   9.396  22.323  0.00  0.00    +0.000 C 
ENDBRANCH  24  26
ENDBRANCH  22  24
ENDBRANCH   1  22
TORSDOF 5
ENDMDL
MODEL 9
REMARK VINA RESULT:      -7.5      1.742      8.483
REMARK  Name = 
REMARK  7 active torsions:
REMARK  status: ('A' for Active; 'I' for Inactive)
REMARK    1  A    between atoms: C_1  and  C_2
REMARK    2  A    between atoms: C_2  and  O_3
REMARK    3  A    between atoms: O_3  and  C_4
REMARK    4  A    between atoms: C_4  and  C_6
REMARK    5  A    between atoms: C_14  and  C_15
REMARK    6  A    between atoms: C_19  and  O_20
REMARK    7  A    between atoms: O_20  and  C_21
REMARK                            x       y       z     vdW  Elec       q    Type
REMARK                         _______ _______ _______ _____ _____    ______ ____
ROOT
ATOM      1  C   UNL     1       1.882   7.495  20.239  0.00  0.00    +0.000 A 
ATOM      2  C   UNL     1       2.585   7.366  19.045  0.00  0.00    +0.000 A 
ATOM      3  C   UNL     1       3.016   6.045  18.982  0.00  0.00    +0.000 A 
ATOM      4  C   UNL     1       2.583   5.369  20.102  0.00  0.00    +0.000 A 
ATOM      5  C   UNL     1       2.787   3.994  20.400  0.00  0.00    +0.000 A 
ATOM      6  C   UNL     1       3.491   3.297  19.474  0.00  0.00    +0.000 A 
ATOM      7  N   UNL     1       3.980   3.913  18.304  0.00  0.00    +0.000 N 
ATOM      8  C   UNL     1       4.709   3.404  17.259  0.00  0.00    +0.000 A 
ATOM      9  C   UNL     1       4.910   4.469  16.397  0.00  0.00    +0.000 A 
ATOM     10  N   UNL     1       4.331   5.620  16.879  0.00  0.00    +0.000 NA
ATOM     11  C   UNL     1       3.781   5.253  18.008  0.00  0.00    +0.000 A 
ATOM     12  N   UNL     1       1.915   6.265  20.885  0.00  0.00    +0.000 N 
ATOM     13  H   UNL     1       1.467   6.081  21.774  0.00  0.00    +0.000 HD
ENDROOT
BRANCH   9  14
ATOM     14  C   UNL     1       5.639   4.418  15.146  0.00  0.00    +0.000 A 
ATOM     15  C   UNL     1       6.793   5.192  14.976  0.00  0.00    +0.000 A 
ATOM     16  C   UNL     1       7.502   5.143  13.777  0.00  0.00    +0.000 A 
ATOM     17  C   UNL     1       7.047   4.336  12.733  0.00  0.00    +0.000 A 
ATOM     18  C   UNL     1       5.882   3.579  12.878  0.00  0.00    +0.000 A 
ATOM     19  C   UNL     1       5.190   3.615  14.087  0.00  0.00    +0.000 A 
BRANCH  18  20
ATOM     20  O   UNL     1       5.516   2.857  11.774  0.00  0.00    +0.000 OA
ATOM     21  C   UNL     1       4.194   3.064  11.288  0.00  0.00    +0.000 C 
ENDBRANCH  18  20
ENDBRANCH   9  14
BRANCH   1  22
ATOM     22  C   UNL     1       1.158   8.627  20.757  0.00  0.00    +0.000 C 
ATOM     23  O   UNL     1       0.731   8.715  21.898  0.00  0.00    +0.000 OA
BRANCH  22  24
ATOM     24  O   UNL     1       0.920   9.503  19.745  0.00  0.00    +0.000 OA
BRANCH  24  26
ATOM     25  C   UNL     1      -1.035  10.699  19.075  0.00  0.00    +0.000 C 
ATOM     26  C   UNL     1       0.100  10.623  20.084  0.00  0.00    +0.000 C 
ENDBRANCH  24  26
ENDBRANCH  22  24
ENDBRANCH   1  22
TORSDOF 5
ENDMDL
