MODEL 1
REMARK VINA RESULT:      -8.2      0.000      0.000
REMARK  Name = 
REMARK  6 active torsions:
REMARK  status: ('A' for Active; 'I' for Inactive)
REMARK    1  A    between atoms: C_1  and  O_2
REMARK    2  A    between atoms: O_2  and  C_3
REMARK    3  A    between atoms: C_6  and  C_7
REMARK    4  A    between atoms: C_12  and  C_14
REMARK    5  A    between atoms: C_23  and  O_24
REMARK    6  A    between atoms: O_24  and  C_25
REMARK                            x       y       z     vdW  Elec       q    Type
REMARK                         _______ _______ _______ _____ _____    ______ ____
ROOT
ATOM      1  C   UNL     1       3.706   4.969  18.920  0.00  0.00    +0.000 A 
ATOM      2  C   UNL     1       3.240   3.950  19.732  0.00  0.00    +0.000 A 
ATOM      3  S   UNL     1       2.206   4.596  20.945  0.00  0.00    +0.000 S 
ATOM      4  C   UNL     1       2.407   6.145  20.260  0.00  0.00    +0.000 A 
ATOM      5  N   UNL     1       1.678   7.128  20.863  0.00  0.00    +0.000 N 
ATOM      6  C   UNL     1       1.573   8.396  20.335  0.00  0.00    +0.000 C 
ATOM      7  O   UNL     1       2.089   8.827  19.313  0.00  0.00    +0.000 OA
ATOM      8  N   UNL     1       3.217   6.227  19.237  0.00  0.00    +0.000 NA
ATOM      9  H   UNL     1       1.142   6.894  21.689  0.00  0.00    +0.000 HD
ENDROOT
BRANCH   6  10
ATOM     10  C   UNL     1       0.695   9.299  21.128  0.00  0.00    +0.000 A 
ATOM     11  C   UNL     1       0.734   9.250  22.518  0.00  0.00    +0.000 A 
ATOM     12  N   UNL     1      -0.033  10.058  23.295  0.00  0.00    +0.000 NA
ATOM     13  C   UNL     1      -0.841  10.908  22.616  0.00  0.00    +0.000 A 
ATOM     14  C   UNL     1      -0.875  10.951  21.227  0.00  0.00    +0.000 A 
ATOM     15 CL   UNL     1      -1.909  12.028  20.390  0.00  0.00    +0.000 Cl
ATOM     16  N   UNL     1      -0.111  10.158  20.438  0.00  0.00    +0.000 NA
ENDBRANCH   6  10
BRANCH   1  20
ATOM     17  C   UNL     1       6.282   4.602  15.525  0.00  0.00    +0.000 A 
ATOM     18  C   UNL     1       5.291   3.638  15.771  0.00  0.00    +0.000 A 
ATOM     19  C   UNL     1       4.456   3.734  16.887  0.00  0.00    +0.000 A 
ATOM     20  C   UNL     1       4.616   4.780  17.797  0.00  0.00    +0.000 A 
ATOM     21  C   UNL     1       5.665   5.686  17.595  0.00  0.00    +0.000 A 
ATOM     22  C   UNL     1       6.516   5.601  16.480  0.00  0.00    +0.000 A 
BRANCH  17  24
ATOM     23  C   UNL     1       6.381   3.914  13.271  0.00  0.00    +0.000 C 
ATOM     24  O   UNL     1       7.026   4.552  14.376  0.00  0.00    +0.000 OA
ENDBRANCH  17  24
BRANCH  22  25
ATOM     25  O   UNL     1       7.478   6.576  16.486  0.00  0.00    +0.000 OA
ATOM     26  C   UNL     1       7.491   7.530  17.536  0.00  0.00    +0.000 C 
ENDBRANCH  22  25
ENDBRANCH   1  20
TORSDOF 4
ENDMDL
MODEL 2
REMARK VINA RESULT:      -7.7      1.258      1.664
REMARK  Name = 
REMARK  6 active torsions:
REMARK  status: ('A' for Active; 'I' for Inactive)
REMARK    1  A    between atoms: C_1  and  O_2
REMARK    2  A    between atoms: O_2  and  C_3
REMARK    3  A    between atoms: C_6  and  C_7
REMARK    4  A    between atoms: C_12  and  C_14
REMARK    5  A    between atoms: C_23  and  O_24
REMARK    6  A    between atoms: O_24  and  C_25
REMARK                            x       y       z     vdW  Elec       q    Type
REMARK                         _______ _______ _______ _____ _____    ______ ____
ROOT
ATOM      1  C   UNL     1       3.518   5.752  18.754  0.00  0.00    +0.000 A 
ATOM      2  C   UNL     1       3.007   4.912  19.727  0.00  0.00    +0.000 A 
ATOM      3  S   UNL     1       1.896   5.772  20.718  0.00  0.00    +0.000 S 
ATOM      4  C   UNL     1       2.133   7.153  19.747  0.00  0.00    +0.000 A 
ATOM      5  N   UNL     1       1.364   8.226  20.092  0.00  0.00    +0.000 N 
ATOM      6  C   UNL     1       1.286   9.358  19.313  0.00  0.00    +0.000 C 
ATOM      7  O   UNL     1       1.863   9.583  18.257  0.00  0.00    +0.000 OA
ATOM      8  N   UNL     1       3.005   7.040  18.780  0.00  0.00    +0.000 NA
ATOM      9  H   UNL     1       0.778   8.155  20.915  0.00  0.00    +0.000 HD
ENDROOT
BRANCH   6  10
ATOM     10  C   UNL     1       0.356  10.388  19.851  0.00  0.00    +0.000 A 
ATOM     11  C   UNL     1      -0.084  11.417  19.024  0.00  0.00    +0.000 A 
ATOM     12  N   UNL     1      -0.943  12.377  19.454  0.00  0.00    +0.000 NA
ATOM     13  C   UNL     1      -1.333  12.262  20.746  0.00  0.00    +0.000 A 
ATOM     14  C   UNL     1      -0.888  11.231  21.567  0.00  0.00    +0.000 A 
ATOM     15 CL   UNL     1      -1.388  11.108  23.199  0.00  0.00    +0.000 Cl
ATOM     16  N   UNL     1      -0.039  10.262  21.151  0.00  0.00    +0.000 NA
ENDBRANCH   6  10
BRANCH   1  20
ATOM     17  C   UNL     1       6.326   4.771  15.681  0.00  0.00    +0.000 A 
ATOM     18  C   UNL     1       5.226   3.934  15.930  0.00  0.00    +0.000 A 
ATOM     19  C   UNL     1       4.312   4.231  16.944  0.00  0.00    +0.000 A 
ATOM     20  C   UNL     1       4.497   5.356  17.750  0.00  0.00    +0.000 A 
ATOM     21  C   UNL     1       5.645   6.134  17.556  0.00  0.00    +0.000 A 
ATOM     22  C   UNL     1       6.577   5.846  16.544  0.00  0.00    +0.000 A 
BRANCH  17  24
ATOM     23  C   UNL     1       6.504   4.021  13.451  0.00  0.00    +0.000 C 
ATOM     24  O   UNL     1       7.157   4.523  14.620  0.00  0.00    +0.000 OA
ENDBRANCH  17  24
BRANCH  22  25
ATOM     25  O   UNL     1       7.627   6.725  16.540  0.00  0.00    +0.000 OA
ATOM     26  C   UNL     1       7.692   7.732  17.536  0.00  0.00    +0.000 C 
ENDBRANCH  22  25
ENDBRANCH   1  20
TORSDOF 4
ENDMDL
MODEL 3
REMARK VINA RESULT:      -7.5      1.373      1.405
REMARK  Name = 
REMARK  6 active torsions:
REMARK  status: ('A' for Active; 'I' for Inactive)
REMARK    1  A    between atoms: C_1  and  O_2
REMARK    2  A    between atoms: O_2  and  C_3
REMARK    3  A    between atoms: C_6  and  C_7
REMARK    4  A    between atoms: C_12  and  C_14
REMARK    5  A    between atoms: C_23  and  O_24
REMARK    6  A    between atoms: O_24  and  C_25
REMARK                            x       y       z     vdW  Elec       q    Type
REMARK                         _______ _______ _______ _____ _____    ______ ____
ROOT
ATOM      1  C   UNL     1       3.613   5.966  18.684  0.00  0.00    +0.000 A 
ATOM      2  C   UNL     1       3.105   5.076  19.614  0.00  0.00    +0.000 A 
ATOM      3  S   UNL     1       1.945   5.868  20.608  0.00  0.00    +0.000 S 
ATOM      4  C   UNL     1       2.163   7.289  19.690  0.00  0.00    +0.000 A 
ATOM      5  N   UNL     1       1.354   8.326  20.054  0.00  0.00    +0.000 N 
ATOM      6  C   UNL     1       1.260   9.482  19.312  0.00  0.00    +0.000 C 
ATOM      7  O   UNL     1       1.854   9.760  18.279  0.00  0.00    +0.000 OA
ATOM      8  N   UNL     1       3.060   7.236  18.741  0.00  0.00    +0.000 NA
ATOM      9  H   UNL     1       0.751   8.208  20.859  0.00  0.00    +0.000 HD
ENDROOT
BRANCH   6  10
ATOM     10  C   UNL     1       0.287  10.464  19.863  0.00  0.00    +0.000 A 
ATOM     11  C   UNL     1       0.591  11.150  21.035  0.00  0.00    +0.000 A 
ATOM     12  N   UNL     1      -0.251  12.068  21.578  0.00  0.00    +0.000 NA
ATOM     13  C   UNL     1      -1.406  12.260  20.898  0.00  0.00    +0.000 A 
ATOM     14  C   UNL     1      -1.702  11.571  19.727  0.00  0.00    +0.000 A 
ATOM     15 CL   UNL     1      -3.173  11.825  18.888  0.00  0.00    +0.000 Cl
ATOM     16  N   UNL     1      -0.872  10.660  19.169  0.00  0.00    +0.000 NA
ENDBRANCH   6  10
BRANCH   1  20
ATOM     17  C   UNL     1       6.529   5.184  15.654  0.00  0.00    +0.000 A 
ATOM     18  C   UNL     1       5.411   4.345  15.796  0.00  0.00    +0.000 A 
ATOM     19  C   UNL     1       4.461   4.577  16.794  0.00  0.00    +0.000 A 
ATOM     20  C   UNL     1       4.627   5.634  17.691  0.00  0.00    +0.000 A 
ATOM     21  C   UNL     1       5.789   6.409  17.601  0.00  0.00    +0.000 A 
ATOM     22  C   UNL     1       6.757   6.186  16.606  0.00  0.00    +0.000 A 
BRANCH  17  24
ATOM     23  C   UNL     1       6.853   4.310  13.487  0.00  0.00    +0.000 C 
ATOM     24  O   UNL     1       7.398   5.007  14.610  0.00  0.00    +0.000 OA
ENDBRANCH  17  24
BRANCH  22  25
ATOM     25  O   UNL     1       7.815   7.049  16.710  0.00  0.00    +0.000 OA
ATOM     26  C   UNL     1       7.751   8.117  17.641  0.00  0.00    +0.000 C 
ENDBRANCH  22  25
ENDBRANCH   1  20
TORSDOF 4
ENDMDL
MODEL 4
REMARK VINA RESULT:      -7.4      2.727      3.954
REMARK  Name = 
REMARK  6 active torsions:
REMARK  status: ('A' for Active; 'I' for Inactive)
REMARK    1  A    between atoms: C_1  and  O_2
REMARK    2  A    between atoms: O_2  and  C_3
REMARK    3  A    between atoms: C_6  and  C_7
REMARK    4  A    between atoms: C_12  and  C_14
REMARK    5  A    between atoms: C_23  and  O_24
REMARK    6  A    between atoms: O_24  and  C_25
REMARK                            x       y       z     vdW  Elec       q    Type
REMARK                         _______ _______ _______ _____ _____    ______ ____
ROOT
ATOM      1  C   UNL     1       2.262   7.347  19.246  0.00  0.00    +0.000 A 
ATOM      2  C   UNL     1       2.491   8.049  18.076  0.00  0.00    +0.000 A 
ATOM      3  S   UNL     1       1.746   9.596  18.166  0.00  0.00    +0.000 S 
ATOM      4  C   UNL     1       1.244   9.236  19.756  0.00  0.00    +0.000 A 
ATOM      5  N   UNL     1       0.590  10.255  20.386  0.00  0.00    +0.000 N 
ATOM      6  C   UNL     1       0.277  10.211  21.726  0.00  0.00    +0.000 C 
ATOM      7  O   UNL     1       0.506   9.309  22.521  0.00  0.00    +0.000 OA
ATOM      8  N   UNL     1       1.542   8.045  20.203  0.00  0.00    +0.000 NA
ATOM      9  H   UNL     1       0.393  11.099  19.863  0.00  0.00    +0.000 HD
ENDROOT
BRANCH   6  10
ATOM     10  C   UNL     1      -0.395  11.444  22.220  0.00  0.00    +0.000 A 
ATOM     11  C   UNL     1      -1.560  11.338  22.974  0.00  0.00    +0.000 A 
ATOM     12  N   UNL     1      -2.210  12.425  23.463  0.00  0.00    +0.000 NA
ATOM     13  C   UNL     1      -1.644  13.618  23.159  0.00  0.00    +0.000 A 
ATOM     14  C   UNL     1      -0.479  13.716  22.405  0.00  0.00    +0.000 A 
ATOM     15 CL   UNL     1       0.216  15.234  22.026  0.00  0.00    +0.000 Cl
ATOM     16  N   UNL     1       0.185  12.642  21.917  0.00  0.00    +0.000 NA
ENDBRANCH   6  10
BRANCH   1  20
ATOM     17  C   UNL     1       3.658   3.340  19.781  0.00  0.00    +0.000 A 
ATOM     18  C   UNL     1       2.381   3.713  20.232  0.00  0.00    +0.000 A 
ATOM     19  C   UNL     1       1.920   5.022  20.083  0.00  0.00    +0.000 A 
ATOM     20  C   UNL     1       2.739   5.995  19.506  0.00  0.00    +0.000 A 
ATOM     21  C   UNL     1       4.043   5.638  19.142  0.00  0.00    +0.000 A 
ATOM     22  C   UNL     1       4.524   4.325  19.290  0.00  0.00    +0.000 A 
BRANCH  17  24
ATOM     23  C   UNL     1       3.773   1.261  18.672  0.00  0.00    +0.000 C 
ATOM     24  O   UNL     1       4.058   2.031  19.842  0.00  0.00    +0.000 OA
ENDBRANCH  17  24
BRANCH  22  25
ATOM     25  O   UNL     1       5.826   4.201  18.884  0.00  0.00    +0.000 OA
ATOM     26  C   UNL     1       6.276   4.943  17.762  0.00  0.00    +0.000 C 
ENDBRANCH  22  25
ENDBRANCH   1  20
TORSDOF 4
ENDMDL
MODEL 5
REMARK VINA RESULT:      -7.3      1.104      1.143
REMARK  Name = 
REMARK  6 active torsions:
REMARK  status: ('A' for Active; 'I' for Inactive)
REMARK    1  A    between atoms: C_1  and  O_2
REMARK    2  A    between atoms: O_2  and  C_3
REMARK    3  A    between atoms: C_6  and  C_7
REMARK    4  A    between atoms: C_12  and  C_14
REMARK    5  A    between atoms: C_23  and  O_24
REMARK    6  A    between atoms: O_24  and  C_25
REMARK                            x       y       z     vdW  Elec       q    Type
REMARK                         _______ _______ _______ _____ _____    ______ ____
ROOT
ATOM      1  C   UNL     1       3.430   5.288  19.133  0.00  0.00    +0.000 A 
ATOM      2  C   UNL     1       2.822   4.231  19.788  0.00  0.00    +0.000 A 
ATOM      3  S   UNL     1       1.674   4.828  20.921  0.00  0.00    +0.000 S 
ATOM      4  C   UNL     1       2.027   6.416  20.408  0.00  0.00    +0.000 A 
ATOM      5  N   UNL     1       1.272   7.383  21.005  0.00  0.00    +0.000 N 
ATOM      6  C   UNL     1       1.289   8.694  20.585  0.00  0.00    +0.000 C 
ATOM      7  O   UNL     1       1.947   9.182  19.675  0.00  0.00    +0.000 OA
ATOM      8  N   UNL     1       2.960   6.539  19.501  0.00  0.00    +0.000 NA
ATOM      9  H   UNL     1       0.628   7.110  21.736  0.00  0.00    +0.000 HD
ENDROOT
BRANCH   6  10
ATOM     10  C   UNL     1       0.359   9.574  21.345  0.00  0.00    +0.000 A 
ATOM     11  C   UNL     1       0.222   9.405  22.719  0.00  0.00    +0.000 A 
ATOM     12  N   UNL     1      -0.600  10.186  23.468  0.00  0.00    +0.000 NA
ATOM     13  C   UNL     1      -1.278  11.134  22.777  0.00  0.00    +0.000 A 
ATOM     14  C   UNL     1      -1.135  11.296  21.403  0.00  0.00    +0.000 A 
ATOM     15 CL   UNL     1      -2.007  12.496  20.549  0.00  0.00    +0.000 Cl
ATOM     16  N   UNL     1      -0.315  10.532  20.644  0.00  0.00    +0.000 NA
ENDBRANCH   6  10
BRANCH   1  20
ATOM     17  C   UNL     1       6.547   5.074  16.213  0.00  0.00    +0.000 A 
ATOM     18  C   UNL     1       5.209   5.216  15.812  0.00  0.00    +0.000 A 
ATOM     19  C   UNL     1       4.178   5.267  16.754  0.00  0.00    +0.000 A 
ATOM     20  C   UNL     1       4.463   5.145  18.115  0.00  0.00    +0.000 A 
ATOM     21  C   UNL     1       5.789   4.911  18.501  0.00  0.00    +0.000 A 
ATOM     22  C   UNL     1       6.836   4.853  17.566  0.00  0.00    +0.000 A 
BRANCH  17  24
ATOM     23  C   UNL     1       7.160   4.815  13.949  0.00  0.00    +0.000 C 
ATOM     24  O   UNL     1       7.556   5.127  15.287  0.00  0.00    +0.000 OA
ENDBRANCH  17  24
BRANCH  22  25
ATOM     25  O   UNL     1       8.046   4.604  18.158  0.00  0.00    +0.000 OA
ATOM     26  C   UNL     1       8.384   5.280  19.357  0.00  0.00    +0.000 C 
ENDBRANCH  22  25
ENDBRANCH   1  20
TORSDOF 4
ENDMDL
MODEL 6
REMARK VINA RESULT:      -7.3      3.252      4.534
REMARK  Name = 
REMARK  6 active torsions:
REMARK  status: ('A' for Active; 'I' for Inactive)
REMARK    1  A    between atoms: C_1  and  O_2
REMARK    2  A    between atoms: O_2  and  C_3
REMARK    3  A    between atoms: C_6  and  C_7
REMARK    4  A    between atoms: C_12  and  C_14
REMARK    5  A    between atoms: C_23  and  O_24
REMARK    6  A    between atoms: O_24  and  C_25
REMARK                            x       y       z     vdW  Elec       q    Type
REMARK                         _______ _______ _______ _____ _____    ______ ____
ROOT
ATOM      1  C   UNL     1       2.165   7.797  18.817  0.00  0.00    +0.000 A 
ATOM      2  C   UNL     1       2.431   8.632  17.746  0.00  0.00    +0.000 A 
ATOM      3  S   UNL     1       1.708  10.170  18.009  0.00  0.00    +0.000 S 
ATOM      4  C   UNL     1       1.164   9.628  19.533  0.00  0.00    +0.000 A 
ATOM      5  N   UNL     1       0.513  10.574  20.269  0.00  0.00    +0.000 N 
ATOM      6  C   UNL     1       0.169  10.374  21.587  0.00  0.00    +0.000 C 
ATOM      7  O   UNL     1       0.366   9.378  22.270  0.00  0.00    +0.000 OA
ATOM      8  N   UNL     1       1.435   8.387  19.838  0.00  0.00    +0.000 NA
ATOM      9  H   UNL     1       0.340  11.479  19.848  0.00  0.00    +0.000 HD
ENDROOT
BRANCH   6  10
ATOM     10  C   UNL     1      -0.496  11.549  22.213  0.00  0.00    +0.000 A 
ATOM     11  C   UNL     1      -1.655  11.366  22.962  0.00  0.00    +0.000 A 
ATOM     12  N   UNL     1      -2.297  12.398  23.568  0.00  0.00    +0.000 NA
ATOM     13  C   UNL     1      -1.730  13.614  23.386  0.00  0.00    +0.000 A 
ATOM     14  C   UNL     1      -0.572  13.789  22.637  0.00  0.00    +0.000 A 
ATOM     15 CL   UNL     1       0.124  15.337  22.413  0.00  0.00    +0.000 Cl
ATOM     16  N   UNL     1       0.085  12.771  22.033  0.00  0.00    +0.000 NA
ENDBRANCH   6  10
BRANCH   1  20
ATOM     17  C   UNL     1       3.637   3.809  19.284  0.00  0.00    +0.000 A 
ATOM     18  C   UNL     1       3.879   4.520  18.097  0.00  0.00    +0.000 A 
ATOM     19  C   UNL     1       3.387   5.815  17.922  0.00  0.00    +0.000 A 
ATOM     20  C   UNL     1       2.617   6.415  18.920  0.00  0.00    +0.000 A 
ATOM     21  C   UNL     1       2.303   5.667  20.062  0.00  0.00    +0.000 A 
ATOM     22  C   UNL     1       2.786   4.361  20.250  0.00  0.00    +0.000 A 
BRANCH  17  24
ATOM     23  C   UNL     1       3.643   1.521  18.707  0.00  0.00    +0.000 C 
ATOM     24  O   UNL     1       4.210   2.580  19.483  0.00  0.00    +0.000 OA
ENDBRANCH  17  24
BRANCH  22  25
ATOM     25  O   UNL     1       2.349   3.811  21.426  0.00  0.00    +0.000 OA
ATOM     26  C   UNL     1       1.321   2.834  21.395  0.00  0.00    +0.000 C 
ENDBRANCH  22  25
ENDBRANCH   1  20
TORSDOF 4
ENDMDL
MODEL 7
REMARK VINA RESULT:      -7.2      3.331      4.646
REMARK  Name = 
REMARK  6 active torsions:
REMARK  status: ('A' for Active; 'I' for Inactive)
REMARK    1  A    between atoms: C_1  and  O_2
REMARK    2  A    between atoms: O_2  and  C_3
REMARK    3  A    between atoms: C_6  and  C_7
REMARK    4  A    between atoms: C_12  and  C_14
REMARK    5  A    between atoms: C_23  and  O_24
REMARK    6  A    between atoms: O_24  and  C_25
REMARK                            x       y       z     vdW  Elec       q    Type
REMARK                         _______ _______ _______ _____ _____    ______ ____
ROOT
ATOM      1  C   UNL     1       2.073   7.823  18.859  0.00  0.00    +0.000 A 
ATOM      2  C   UNL     1       2.430   8.659  17.816  0.00  0.00    +0.000 A 
ATOM      3  S   UNL     1       1.741  10.217  18.053  0.00  0.00    +0.000 S 
ATOM      4  C   UNL     1       1.088   9.677  19.534  0.00  0.00    +0.000 A 
ATOM      5  N   UNL     1       0.423  10.636  20.241  0.00  0.00    +0.000 N 
ATOM      6  C   UNL     1      -0.008  10.433  21.533  0.00  0.00    +0.000 C 
ATOM      7  O   UNL     1       0.116   9.425  22.214  0.00  0.00    +0.000 OA
ATOM      8  N   UNL     1       1.300   8.425  19.840  0.00  0.00    +0.000 NA
ATOM      9  H   UNL     1       0.305  11.550  19.821  0.00  0.00    +0.000 HD
ENDROOT
BRANCH   6  10
ATOM     10  C   UNL     1      -0.672  11.623  22.132  0.00  0.00    +0.000 A 
ATOM     11  C   UNL     1      -0.132  12.889  21.924  0.00  0.00    +0.000 A 
ATOM     12  N   UNL     1      -0.701  14.013  22.433  0.00  0.00    +0.000 NA
ATOM     13  C   UNL     1      -1.825  13.809  23.161  0.00  0.00    +0.000 A 
ATOM     14  C   UNL     1      -2.358  12.540  23.364  0.00  0.00    +0.000 A 
ATOM     15 CL   UNL     1      -3.776  12.304  24.293  0.00  0.00    +0.000 Cl
ATOM     16  N   UNL     1      -1.808  11.412  22.857  0.00  0.00    +0.000 NA
ENDBRANCH   6  10
BRANCH   1  20
ATOM     17  C   UNL     1       3.407   3.788  19.344  0.00  0.00    +0.000 A 
ATOM     18  C   UNL     1       3.600   4.457  18.125  0.00  0.00    +0.000 A 
ATOM     19  C   UNL     1       3.152   5.768  17.945  0.00  0.00    +0.000 A 
ATOM     20  C   UNL     1       2.473   6.425  18.972  0.00  0.00    +0.000 A 
ATOM     21  C   UNL     1       2.203   5.721  20.152  0.00  0.00    +0.000 A 
ATOM     22  C   UNL     1       2.643   4.400  20.346  0.00  0.00    +0.000 A 
BRANCH  17  24
ATOM     23  C   UNL     1       3.579   1.571  18.556  0.00  0.00    +0.000 C 
ATOM     24  O   UNL     1       3.940   2.542  19.541  0.00  0.00    +0.000 OA
ENDBRANCH  17  24
BRANCH  22  25
ATOM     25  O   UNL     1       2.260   3.900  21.563  0.00  0.00    +0.000 OA
ATOM     26  C   UNL     1       1.440   2.744  21.610  0.00  0.00    +0.000 C 
ENDBRANCH  22  25
ENDBRANCH   1  20
TORSDOF 4
ENDMDL
MODEL 8
REMARK VINA RESULT:      -7.2      2.900      4.552
REMARK  Name = 
REMARK  6 active torsions:
REMARK  status: ('A' for Active; 'I' for Inactive)
REMARK    1  A    between atoms: C_1  and  O_2
REMARK    2  A    between atoms: O_2  and  C_3
REMARK    3  A    between atoms: C_6  and  C_7
REMARK    4  A    between atoms: C_12  and  C_14
REMARK    5  A    between atoms: C_23  and  O_24
REMARK    6  A    between atoms: O_24  and  C_25
REMARK                            x       y       z     vdW  Elec       q    Type
REMARK                         _______ _______ _______ _____ _____    ______ ____
ROOT
ATOM      1  C   UNL     1       1.729   8.095  19.514  0.00  0.00    +0.000 A 
ATOM      2  C   UNL     1       1.904   8.880  18.388  0.00  0.00    +0.000 A 
ATOM      3  S   UNL     1       1.060  10.366  18.574  0.00  0.00    +0.000 S 
ATOM      4  C   UNL     1       0.592   9.878  20.140  0.00  0.00    +0.000 A 
ATOM      5  N   UNL     1      -0.123  10.812  20.833  0.00  0.00    +0.000 N 
ATOM      6  C   UNL     1      -0.425  10.666  22.168  0.00  0.00    +0.000 C 
ATOM      7  O   UNL     1      -0.132   9.735  22.906  0.00  0.00    +0.000 OA
ATOM      8  N   UNL     1       0.970   8.685  20.514  0.00  0.00    +0.000 NA
ATOM      9  H   UNL     1      -0.378  11.671  20.362  0.00  0.00    +0.000 HD
ENDROOT
BRANCH   6  10
ATOM     10  C   UNL     1      -1.173  11.820  22.738  0.00  0.00    +0.000 A 
ATOM     11  C   UNL     1      -0.664  13.107  22.596  0.00  0.00    +0.000 A 
ATOM     12  N   UNL     1      -1.308  14.200  23.082  0.00  0.00    +0.000 NA
ATOM     13  C   UNL     1      -2.477  13.943  23.717  0.00  0.00    +0.000 A 
ATOM     14  C   UNL     1      -2.979  12.653  23.855  0.00  0.00    +0.000 A 
ATOM     15 CL   UNL     1      -4.454  12.350  24.668  0.00  0.00    +0.000 Cl
ATOM     16  N   UNL     1      -2.354  11.555  23.370  0.00  0.00    +0.000 NA
ENDBRANCH   6  10
BRANCH   1  20
ATOM     17  C   UNL     1       3.303   4.130  19.826  0.00  0.00    +0.000 A 
ATOM     18  C   UNL     1       2.282   4.558  20.690  0.00  0.00    +0.000 A 
ATOM     19  C   UNL     1       1.772   5.856  20.613  0.00  0.00    +0.000 A 
ATOM     20  C   UNL     1       2.296   6.764  19.690  0.00  0.00    +0.000 A 
ATOM     21  C   UNL     1       3.375   6.359  18.896  0.00  0.00    +0.000 A 
ATOM     22  C   UNL     1       3.902   5.058  18.964  0.00  0.00    +0.000 A 
BRANCH  17  24
ATOM     23  C   UNL     1       3.011   1.954  18.962  0.00  0.00    +0.000 C 
ATOM     24  O   UNL     1       3.723   2.826  19.844  0.00  0.00    +0.000 OA
ENDBRANCH  17  24
BRANCH  22  25
ATOM     25  O   UNL     1       4.959   4.881  18.111  0.00  0.00    +0.000 OA
ATOM     26  C   UNL     1       4.717   4.411  16.795  0.00  0.00    +0.000 C 
ENDBRANCH  22  25
ENDBRANCH   1  20
TORSDOF 4
ENDMDL
MODEL 9
REMARK VINA RESULT:      -7.1      3.460      5.190
REMARK  Name = 
REMARK  6 active torsions:
REMARK  status: ('A' for Active; 'I' for Inactive)
REMARK    1  A    between atoms: C_1  and  O_2
REMARK    2  A    between atoms: O_2  and  C_3
REMARK    3  A    between atoms: C_6  and  C_7
REMARK    4  A    between atoms: C_12  and  C_14
REMARK    5  A    between atoms: C_23  and  O_24
REMARK    6  A    between atoms: O_24  and  C_25
REMARK                            x       y       z     vdW  Elec       q    Type
REMARK                         _______ _______ _______ _____ _____    ______ ____
ROOT
ATOM      1  C   UNL     1       1.532   9.297  19.124  0.00  0.00    +0.000 A 
ATOM      2  C   UNL     1       1.735  10.327  18.222  0.00  0.00    +0.000 A 
ATOM      3  S   UNL     1       0.840  11.713  18.706  0.00  0.00    +0.000 S 
ATOM      4  C   UNL     1       0.315  10.864  20.090  0.00  0.00    +0.000 A 
ATOM      5  N   UNL     1      -0.457  11.596  20.943  0.00  0.00    +0.000 N 
ATOM      6  C   UNL     1      -0.815  11.137  22.191  0.00  0.00    +0.000 C 
ATOM      7  O   UNL     1      -0.529  10.064  22.705  0.00  0.00    +0.000 OA
ATOM      8  N   UNL     1       0.712   9.623  20.194  0.00  0.00    +0.000 NA
ATOM      9  H   UNL     1      -0.716  12.537  20.673  0.00  0.00    +0.000 HD
ENDROOT
BRANCH   6  10
ATOM     10  C   UNL     1      -1.622  12.112  22.974  0.00  0.00    +0.000 A 
ATOM     11  C   UNL     1      -1.140  13.402  23.172  0.00  0.00    +0.000 A 
ATOM     12  N   UNL     1      -1.837  14.339  23.865  0.00  0.00    +0.000 NA
ATOM     13  C   UNL     1      -3.030  13.923  24.354  0.00  0.00    +0.000 A 
ATOM     14  C   UNL     1      -3.504  12.631  24.153  0.00  0.00    +0.000 A 
ATOM     15 CL   UNL     1      -5.012  12.123  24.786  0.00  0.00    +0.000 Cl
ATOM     16  N   UNL     1      -2.826  11.688  23.457  0.00  0.00    +0.000 NA
ENDBRANCH   6  10
BRANCH   1  20
ATOM     17  C   UNL     1       3.423   5.464  18.979  0.00  0.00    +0.000 A 
ATOM     18  C   UNL     1       3.596   6.381  17.929  0.00  0.00    +0.000 A 
ATOM     19  C   UNL     1       2.969   7.628  17.953  0.00  0.00    +0.000 A 
ATOM     20  C   UNL     1       2.129   7.972  19.014  0.00  0.00    +0.000 A 
ATOM     21  C   UNL     1       1.888   7.018  20.011  0.00  0.00    +0.000 A 
ATOM     22  C   UNL     1       2.508   5.757  19.998  0.00  0.00    +0.000 A 
BRANCH  17  24
ATOM     23  C   UNL     1       3.692   3.321  18.029  0.00  0.00    +0.000 C 
ATOM     24  O   UNL     1       4.123   4.287  18.991  0.00  0.00    +0.000 OA
ENDBRANCH  17  24
BRANCH  22  25
ATOM     25  O   UNL     1       2.122   4.979  21.058  0.00  0.00    +0.000 OA
ATOM     26  C   UNL     1       1.235   3.895  20.835  0.00  0.00    +0.000 C 
ENDBRANCH  22  25
ENDBRANCH   1  20
TORSDOF 4
ENDMDL
