MODEL 1
REMARK VINA RESULT:      -7.1      0.000      0.000
REMARK  Name = 
REMARK  5 active torsions:
REMARK  status: ('A' for Active; 'I' for Inactive)
REMARK    1  A    between atoms: C_2  and  C_3
REMARK    2  A    between atoms: C_7  and  C_8
REMARK    3  A    between atoms: N_14  and  C_15
REMARK    4  A    between atoms: C_15  and  C_16
REMARK    5  A    between atoms: C_25  and  C_26
REMARK                            x       y       z     vdW  Elec       q    Type
REMARK                         _______ _______ _______ _____ _____    ______ ____
ROOT
ATOM      1  C   UNL     1      -3.993  12.065  19.299  0.00  0.00    +0.000 A 
ATOM      2  N   UNL     1      -4.185  11.252  18.189  0.00  0.00    +0.000 NA
ATOM      3  C   UNL     1      -3.183  10.553  17.606  0.00  0.00    +0.000 A 
ATOM      4  N   UNL     1      -3.453   9.734  16.519  0.00  0.00    +0.000 N 
ATOM      5  C   UNL     1      -1.900  10.738  18.156  0.00  0.00    +0.000 A 
ATOM      6  N   UNL     1      -0.739  10.178  17.781  0.00  0.00    +0.000 NA
ATOM      7  N   UNL     1       0.146  10.779  18.584  0.00  0.00    +0.000 N 
ATOM      8  N   UNL     1      -0.334  11.595  19.550  0.00  0.00    +0.000 NA
ATOM      9  C   UNL     1      -1.667  11.625  19.295  0.00  0.00    +0.000 A 
ATOM     10  C   UNL     1      -2.731  12.332  19.931  0.00  0.00    +0.000 A 
ATOM     11  H   UNL     1      -4.283  10.015  16.015  0.00  0.00    +0.000 HD
ATOM     12  H   UNL     1      -2.626   9.506  15.978  0.00  0.00    +0.000 HD
ENDROOT
BRANCH   1  17
ATOM     13  C   UNL     1      -7.059  12.763  21.468  0.00  0.00    +0.000 A 
ATOM     14  C   UNL     1      -7.851  13.537  20.622  0.00  0.00    +0.000 A 
ATOM     15  C   UNL     1      -7.362  13.909  19.375  0.00  0.00    +0.000 A 
ATOM     16  C   UNL     1      -6.084  13.504  18.974  0.00  0.00    +0.000 A 
ATOM     17  C   UNL     1      -5.307  12.626  19.750  0.00  0.00    +0.000 A 
ATOM     18  C   UNL     1      -5.814  12.297  21.027  0.00  0.00    +0.000 A 
BRANCH  13  20
ATOM     19  N   UNL     1      -7.916  12.206  23.851  0.00  0.00    +0.000 NA
ATOM     20  C   UNL     1      -7.524  12.435  22.784  0.00  0.00    +0.000 C 
ENDBRANCH  13  20
ENDBRANCH   1  17
BRANCH  10  21
ATOM     21  C   UNL     1      -2.513  13.151  21.142  0.00  0.00    +0.000 A 
ATOM     22  C   UNL     1      -2.307  12.574  22.405  0.00  0.00    +0.000 A 
ATOM     23  C   UNL     1      -1.781  13.348  23.431  0.00  0.00    +0.000 A 
ATOM     24  N   UNL     1      -1.538  14.669  23.324  0.00  0.00    +0.000 NA
ATOM     25  C   UNL     1      -1.859  15.242  22.146  0.00  0.00    +0.000 A 
ATOM     26  C   UNL     1      -2.337  14.539  21.049  0.00  0.00    +0.000 A 
ENDBRANCH  10  21
BRANCH   7  27
ATOM     27  C   UNL     1       1.553  10.415  18.491  0.00  0.00    +0.000 C 
BRANCH  27  28
ATOM     28  C   UNL     1       1.798   8.971  18.841  0.00  0.00    +0.000 A 
ATOM     29  N   UNL     1       2.358   8.187  17.872  0.00  0.00    +0.000 NA
ATOM     30  C   UNL     1       2.623   6.897  18.184  0.00  0.00    +0.000 A 
ATOM     31  C   UNL     1       2.366   6.329  19.423  0.00  0.00    +0.000 A 
ATOM     32  C   UNL     1       1.816   7.142  20.409  0.00  0.00    +0.000 A 
ATOM     33  C   UNL     1       1.544   8.473  20.118  0.00  0.00    +0.000 A 
ATOM     34  F   UNL     1       1.069   9.255  21.094  0.00  0.00    +0.000 F 
ENDBRANCH  27  28
ENDBRANCH   7  27
TORSDOF 5
ENDMDL
MODEL 2
REMARK VINA RESULT:      -7.1      3.605     10.015
REMARK  Name = 
REMARK  5 active torsions:
REMARK  status: ('A' for Active; 'I' for Inactive)
REMARK    1  A    between atoms: C_2  and  C_3
REMARK    2  A    between atoms: C_7  and  C_8
REMARK    3  A    between atoms: N_14  and  C_15
REMARK    4  A    between atoms: C_15  and  C_16
REMARK    5  A    between atoms: C_25  and  C_26
REMARK                            x       y       z     vdW  Elec       q    Type
REMARK                         _______ _______ _______ _____ _____    ______ ____
ROOT
ATOM      1  C   UNL     1       2.596   6.816  18.492  0.00  0.00    +0.000 A 
ATOM      2  N   UNL     1       2.750   8.039  17.850  0.00  0.00    +0.000 NA
ATOM      3  C   UNL     1       2.231   9.193  18.330  0.00  0.00    +0.000 A 
ATOM      4  N   UNL     1       2.453  10.384  17.654  0.00  0.00    +0.000 N 
ATOM      5  C   UNL     1       1.465   9.083  19.506  0.00  0.00    +0.000 A 
ATOM      6  N   UNL     1       0.841  10.053  20.193  0.00  0.00    +0.000 NA
ATOM      7  N   UNL     1       0.207   9.367  21.152  0.00  0.00    +0.000 N 
ATOM      8  N   UNL     1       0.455   8.042  21.245  0.00  0.00    +0.000 NA
ATOM      9  C   UNL     1       1.251   7.799  20.173  0.00  0.00    +0.000 A 
ATOM     10  C   UNL     1       1.829   6.589  19.685  0.00  0.00    +0.000 A 
ATOM     11  H   UNL     1       2.649  10.246  16.672  0.00  0.00    +0.000 HD
ATOM     12  H   UNL     1       1.793  11.113  17.906  0.00  0.00    +0.000 HD
ENDROOT
BRANCH   1  17
ATOM     13  C   UNL     1       5.314   5.122  16.410  0.00  0.00    +0.000 A 
ATOM     14  C   UNL     1       4.790   3.844  16.221  0.00  0.00    +0.000 A 
ATOM     15  C   UNL     1       3.593   3.496  16.836  0.00  0.00    +0.000 A 
ATOM     16  C   UNL     1       2.920   4.426  17.637  0.00  0.00    +0.000 A 
ATOM     17  C   UNL     1       3.356   5.757  17.753  0.00  0.00    +0.000 A 
ATOM     18  C   UNL     1       4.594   6.069  17.148  0.00  0.00    +0.000 A 
BRANCH  13  20
ATOM     19  N   UNL     1       7.598   5.732  15.344  0.00  0.00    +0.000 NA
ATOM     20  C   UNL     1       6.583   5.467  15.839  0.00  0.00    +0.000 C 
ENDBRANCH  13  20
ENDBRANCH   1  17
BRANCH  10  21
ATOM     21  C   UNL     1       1.695   5.309  20.411  0.00  0.00    +0.000 A 
ATOM     22  C   UNL     1       0.661   4.400  20.136  0.00  0.00    +0.000 A 
ATOM     23  C   UNL     1       0.765   3.092  20.590  0.00  0.00    +0.000 A 
ATOM     24  N   UNL     1       1.766   2.648  21.374  0.00  0.00    +0.000 NA
ATOM     25  C   UNL     1       2.689   3.561  21.740  0.00  0.00    +0.000 A 
ATOM     26  C   UNL     1       2.696   4.875  21.291  0.00  0.00    +0.000 A 
ENDBRANCH  10  21
BRANCH   7  27
ATOM     27  C   UNL     1      -0.586  10.090  22.137  0.00  0.00    +0.000 C 
BRANCH  27  28
ATOM     28  C   UNL     1      -0.776  11.539  21.772  0.00  0.00    +0.000 A 
ATOM     29  N   UNL     1      -0.138  12.461  22.553  0.00  0.00    +0.000 NA
ATOM     30  C   UNL     1      -0.264  13.765  22.213  0.00  0.00    +0.000 A 
ATOM     31  C   UNL     1      -0.995  14.217  21.125  0.00  0.00    +0.000 A 
ATOM     32  C   UNL     1      -1.622  13.268  20.324  0.00  0.00    +0.000 A 
ATOM     33  C   UNL     1      -1.500  11.922  20.644  0.00  0.00    +0.000 A 
ATOM     34  F   UNL     1      -2.063  11.020  19.832  0.00  0.00    +0.000 F 
ENDBRANCH  27  28
ENDBRANCH   7  27
TORSDOF 5
ENDMDL
MODEL 3
REMARK VINA RESULT:      -6.8      3.101     10.005
REMARK  Name = 
REMARK  5 active torsions:
REMARK  status: ('A' for Active; 'I' for Inactive)
REMARK    1  A    between atoms: C_2  and  C_3
REMARK    2  A    between atoms: C_7  and  C_8
REMARK    3  A    between atoms: N_14  and  C_15
REMARK    4  A    between atoms: C_15  and  C_16
REMARK    5  A    between atoms: C_25  and  C_26
REMARK                            x       y       z     vdW  Elec       q    Type
REMARK                         _______ _______ _______ _____ _____    ______ ____
ROOT
ATOM      1  C   UNL     1       2.580   6.795  18.527  0.00  0.00    +0.000 A 
ATOM      2  N   UNL     1       2.727   8.020  17.890  0.00  0.00    +0.000 NA
ATOM      3  C   UNL     1       2.234   9.176  18.393  0.00  0.00    +0.000 A 
ATOM      4  N   UNL     1       2.448  10.369  17.719  0.00  0.00    +0.000 N 
ATOM      5  C   UNL     1       1.501   9.064  19.590  0.00  0.00    +0.000 A 
ATOM      6  N   UNL     1       0.906  10.035  20.301  0.00  0.00    +0.000 NA
ATOM      7  N   UNL     1       0.293   9.349  21.273  0.00  0.00    +0.000 N 
ATOM      8  N   UNL     1       0.531   8.021  21.350  0.00  0.00    +0.000 NA
ATOM      9  C   UNL     1       1.293   7.778  20.253  0.00  0.00    +0.000 A 
ATOM     10  C   UNL     1       1.845   6.566  19.740  0.00  0.00    +0.000 A 
ATOM     11  H   UNL     1       2.614  10.236  16.731  0.00  0.00    +0.000 HD
ATOM     12  H   UNL     1       1.803  11.103  17.995  0.00  0.00    +0.000 HD
ENDROOT
BRANCH   1  17
ATOM     13  C   UNL     1       5.249   5.075  16.403  0.00  0.00    +0.000 A 
ATOM     14  C   UNL     1       4.685   3.821  16.175  0.00  0.00    +0.000 A 
ATOM     15  C   UNL     1       3.475   3.494  16.778  0.00  0.00    +0.000 A 
ATOM     16  C   UNL     1       2.830   4.421  17.604  0.00  0.00    +0.000 A 
ATOM     17  C   UNL     1       3.308   5.733  17.760  0.00  0.00    +0.000 A 
ATOM     18  C   UNL     1       4.557   6.023  17.167  0.00  0.00    +0.000 A 
BRANCH  13  20
ATOM     19  N   UNL     1       7.563   5.626  15.370  0.00  0.00    +0.000 NA
ATOM     20  C   UNL     1       6.530   5.396  15.846  0.00  0.00    +0.000 C 
ENDBRANCH  13  20
ENDBRANCH   1  17
BRANCH  10  21
ATOM     21  C   UNL     1       1.720   5.282  20.461  0.00  0.00    +0.000 A 
ATOM     22  C   UNL     1       0.670   4.385  20.208  0.00  0.00    +0.000 A 
ATOM     23  C   UNL     1       0.774   3.072  20.650  0.00  0.00    +0.000 A 
ATOM     24  N   UNL     1       1.792   2.614  21.404  0.00  0.00    +0.000 NA
ATOM     25  C   UNL     1       2.733   3.516  21.750  0.00  0.00    +0.000 A 
ATOM     26  C   UNL     1       2.740   4.833  21.311  0.00  0.00    +0.000 A 
ENDBRANCH  10  21
BRANCH   7  27
ATOM     27  C   UNL     1      -0.464  10.073  22.285  0.00  0.00    +0.000 C 
BRANCH  27  28
ATOM     28  C   UNL     1      -1.285  11.191  21.700  0.00  0.00    +0.000 A 
ATOM     29  N   UNL     1      -1.176  11.398  20.354  0.00  0.00    +0.000 NA
ATOM     30  C   UNL     1      -1.939  12.372  19.805  0.00  0.00    +0.000 A 
ATOM     31  C   UNL     1      -2.822  13.164  20.523  0.00  0.00    +0.000 A 
ATOM     32  C   UNL     1      -2.942  12.929  21.889  0.00  0.00    +0.000 A 
ATOM     33  C   UNL     1      -2.178  11.929  22.476  0.00  0.00    +0.000 A 
ATOM     34  F   UNL     1      -2.347  11.679  23.779  0.00  0.00    +0.000 F 
ENDBRANCH  27  28
ENDBRANCH   7  27
TORSDOF 5
ENDMDL
MODEL 4
REMARK VINA RESULT:      -6.8      0.650      1.050
REMARK  Name = 
REMARK  5 active torsions:
REMARK  status: ('A' for Active; 'I' for Inactive)
REMARK    1  A    between atoms: C_2  and  C_3
REMARK    2  A    between atoms: C_7  and  C_8
REMARK    3  A    between atoms: N_14  and  C_15
REMARK    4  A    between atoms: C_15  and  C_16
REMARK    5  A    between atoms: C_25  and  C_26
REMARK                            x       y       z     vdW  Elec       q    Type
REMARK                         _______ _______ _______ _____ _____    ______ ____
ROOT
ATOM      1  C   UNL     1      -3.820  11.759  18.824  0.00  0.00    +0.000 A 
ATOM      2  N   UNL     1      -3.916  10.996  17.667  0.00  0.00    +0.000 NA
ATOM      3  C   UNL     1      -2.871  10.305  17.152  0.00  0.00    +0.000 A 
ATOM      4  N   UNL     1      -3.047   9.535  16.012  0.00  0.00    +0.000 N 
ATOM      5  C   UNL     1      -1.645  10.447  17.829  0.00  0.00    +0.000 A 
ATOM      6  N   UNL     1      -0.460   9.884  17.541  0.00  0.00    +0.000 NA
ATOM      7  N   UNL     1       0.352  10.438  18.449  0.00  0.00    +0.000 N 
ATOM      8  N   UNL     1      -0.208  11.221  19.399  0.00  0.00    +0.000 NA
ATOM      9  C   UNL     1      -1.510  11.283  19.020  0.00  0.00    +0.000 A 
ATOM     10  C   UNL     1      -2.621  11.981  19.582  0.00  0.00    +0.000 A 
ATOM     11  H   UNL     1      -3.822   9.850  15.443  0.00  0.00    +0.000 HD
ATOM     12  H   UNL     1      -2.175   9.316  15.542  0.00  0.00    +0.000 HD
ENDROOT
BRANCH   1  17
ATOM     13  C   UNL     1      -6.986  12.567  20.804  0.00  0.00    +0.000 A 
ATOM     14  C   UNL     1      -7.762  13.239  19.861  0.00  0.00    +0.000 A 
ATOM     15  C   UNL     1      -7.234  13.508  18.604  0.00  0.00    +0.000 A 
ATOM     16  C   UNL     1      -5.931  13.104  18.289  0.00  0.00    +0.000 A 
ATOM     17  C   UNL     1      -5.164  12.323  19.171  0.00  0.00    +0.000 A 
ATOM     18  C   UNL     1      -5.714  12.098  20.453  0.00  0.00    +0.000 A 
BRANCH  13  20
ATOM     19  N   UNL     1      -7.917  12.136  23.185  0.00  0.00    +0.000 NA
ATOM     20  C   UNL     1      -7.494  12.349  22.126  0.00  0.00    +0.000 C 
ENDBRANCH  13  20
ENDBRANCH   1  17
BRANCH  10  21
ATOM     21  C   UNL     1      -2.509  12.746  20.842  0.00  0.00    +0.000 A 
ATOM     22  C   UNL     1      -2.636  14.144  20.879  0.00  0.00    +0.000 A 
ATOM     23  C   UNL     1      -2.858  14.776  22.096  0.00  0.00    +0.000 A 
ATOM     24  N   UNL     1      -2.865  14.137  23.281  0.00  0.00    +0.000 NA
ATOM     25  C   UNL     1      -2.615  12.813  23.249  0.00  0.00    +0.000 A 
ATOM     26  C   UNL     1      -2.436  12.088  22.078  0.00  0.00    +0.000 A 
ENDBRANCH  10  21
BRANCH   7  27
ATOM     27  C   UNL     1       1.757  10.055  18.474  0.00  0.00    +0.000 C 
BRANCH  27  28
ATOM     28  C   UNL     1       1.954   8.614  18.864  0.00  0.00    +0.000 A 
ATOM     29  N   UNL     1       2.535   7.797  17.936  0.00  0.00    +0.000 NA
ATOM     30  C   UNL     1       2.757   6.508  18.286  0.00  0.00    +0.000 A 
ATOM     31  C   UNL     1       2.437   5.974  19.525  0.00  0.00    +0.000 A 
ATOM     32  C   UNL     1       1.866   6.821  20.470  0.00  0.00    +0.000 A 
ATOM     33  C   UNL     1       1.637   8.150  20.140  0.00  0.00    +0.000 A 
ATOM     34  F   UNL     1       1.140   8.963  21.079  0.00  0.00    +0.000 F 
ENDBRANCH  27  28
ENDBRANCH   7  27
TORSDOF 5
ENDMDL
MODEL 5
REMARK VINA RESULT:      -6.7      4.583      6.420
REMARK  Name = 
REMARK  5 active torsions:
REMARK  status: ('A' for Active; 'I' for Inactive)
REMARK    1  A    between atoms: C_2  and  C_3
REMARK    2  A    between atoms: C_7  and  C_8
REMARK    3  A    between atoms: N_14  and  C_15
REMARK    4  A    between atoms: C_15  and  C_16
REMARK    5  A    between atoms: C_25  and  C_26
REMARK                            x       y       z     vdW  Elec       q    Type
REMARK                         _______ _______ _______ _____ _____    ______ ____
ROOT
ATOM      1  C   UNL     1       0.722  12.518  19.115  0.00  0.00    +0.000 A 
ATOM      2  N   UNL     1       1.407  13.162  18.092  0.00  0.00    +0.000 NA
ATOM      3  C   UNL     1       2.480  13.958  18.312  0.00  0.00    +0.000 A 
ATOM      4  N   UNL     1       3.137  14.543  17.239  0.00  0.00    +0.000 N 
ATOM      5  C   UNL     1       2.841  14.149  19.659  0.00  0.00    +0.000 A 
ATOM      6  N   UNL     1       3.851  14.879  20.160  0.00  0.00    +0.000 NA
ATOM      7  N   UNL     1       3.659  14.771  21.480  0.00  0.00    +0.000 N 
ATOM      8  N   UNL     1       2.691  13.930  21.908  0.00  0.00    +0.000 NA
ATOM      9  C   UNL     1       2.105  13.519  20.754  0.00  0.00    +0.000 A 
ATOM     10  C   UNL     1       0.997  12.652  20.519  0.00  0.00    +0.000 A 
ATOM     11  H   UNL     1       2.545  14.644  16.426  0.00  0.00    +0.000 HD
ATOM     12  H   UNL     1       3.710  15.337  17.508  0.00  0.00    +0.000 HD
ENDROOT
BRANCH   1  17
ATOM     13  C   UNL     1      -2.743  11.286  18.082  0.00  0.00    +0.000 A 
ATOM     14  C   UNL     1      -2.470  10.012  17.588  0.00  0.00    +0.000 A 
ATOM     15  C   UNL     1      -1.152   9.575  17.508  0.00  0.00    +0.000 A 
ATOM     16  C   UNL     1      -0.110  10.411  17.924  0.00  0.00    +0.000 A 
ATOM     17  C   UNL     1      -0.355  11.653  18.537  0.00  0.00    +0.000 A 
ATOM     18  C   UNL     1      -1.700  12.084  18.569  0.00  0.00    +0.000 A 
BRANCH  13  20
ATOM     19  N   UNL     1      -5.189  12.148  18.083  0.00  0.00    +0.000 NA
ATOM     20  C   UNL     1      -4.091  11.774  18.101  0.00  0.00    +0.000 C 
ENDBRANCH  13  20
ENDBRANCH   1  17
BRANCH  10  21
ATOM     21  C   UNL     1       0.315  11.937  21.618  0.00  0.00    +0.000 A 
ATOM     22  C   UNL     1      -0.753  12.507  22.329  0.00  0.00    +0.000 A 
ATOM     23  C   UNL     1      -1.567  11.693  23.105  0.00  0.00    +0.000 A 
ATOM     24  N   UNL     1      -1.342  10.380  23.304  0.00  0.00    +0.000 NA
ATOM     25  C   UNL     1      -0.240   9.867  22.720  0.00  0.00    +0.000 A 
ATOM     26  C   UNL     1       0.600  10.590  21.884  0.00  0.00    +0.000 A 
ENDBRANCH  10  21
BRANCH   7  27
ATOM     27  C   UNL     1       4.588  15.429  22.390  0.00  0.00    +0.000 C 
BRANCH  27  28
ATOM     28  C   UNL     1       5.452  14.448  23.137  0.00  0.00    +0.000 A 
ATOM     29  N   UNL     1       5.060  14.120  24.404  0.00  0.00    +0.000 NA
ATOM     30  C   UNL     1       5.802  13.208  25.075  0.00  0.00    +0.000 A 
ATOM     31  C   UNL     1       6.928  12.589  24.553  0.00  0.00    +0.000 A 
ATOM     32  C   UNL     1       7.306  12.914  23.254  0.00  0.00    +0.000 A 
ATOM     33  C   UNL     1       6.555  13.839  22.540  0.00  0.00    +0.000 A 
ATOM     34  F   UNL     1       6.899  14.098  21.273  0.00  0.00    +0.000 F 
ENDBRANCH  27  28
ENDBRANCH   7  27
TORSDOF 5
ENDMDL
MODEL 6
REMARK VINA RESULT:      -6.6      4.104      6.161
REMARK  Name = 
REMARK  5 active torsions:
REMARK  status: ('A' for Active; 'I' for Inactive)
REMARK    1  A    between atoms: C_2  and  C_3
REMARK    2  A    between atoms: C_7  and  C_8
REMARK    3  A    between atoms: N_14  and  C_15
REMARK    4  A    between atoms: C_15  and  C_16
REMARK    5  A    between atoms: C_25  and  C_26
REMARK                            x       y       z     vdW  Elec       q    Type
REMARK                         _______ _______ _______ _____ _____    ______ ____
ROOT
ATOM      1  C   UNL     1      -0.928  12.847  19.303  0.00  0.00    +0.000 A 
ATOM      2  N   UNL     1      -0.960  14.035  18.583  0.00  0.00    +0.000 NA
ATOM      3  C   UNL     1      -0.236  15.125  18.929  0.00  0.00    +0.000 A 
ATOM      4  N   UNL     1      -0.290  16.268  18.144  0.00  0.00    +0.000 N 
ATOM      5  C   UNL     1       0.523  15.013  20.109  0.00  0.00    +0.000 A 
ATOM      6  N   UNL     1       1.323  15.927  20.680  0.00  0.00    +0.000 NA
ATOM      7  N   UNL     1       1.703  15.316  21.808  0.00  0.00    +0.000 N 
ATOM      8  N   UNL     1       1.333  14.026  21.980  0.00  0.00    +0.000 NA
ATOM      9  C   UNL     1       0.534  13.789  20.909  0.00  0.00    +0.000 A 
ATOM     10  C   UNL     1      -0.201  12.629  20.522  0.00  0.00    +0.000 A 
ATOM     11  H   UNL     1      -1.144  16.332  17.606  0.00  0.00    +0.000 HD
ATOM     12  H   UNL     1       0.025  17.100  18.631  0.00  0.00    +0.000 HD
ENDROOT
BRANCH   1  17
ATOM     13  C   UNL     1      -3.999  10.911  18.115  0.00  0.00    +0.000 A 
ATOM     14  C   UNL     1      -3.428   9.822  17.459  0.00  0.00    +0.000 A 
ATOM     15  C   UNL     1      -2.046   9.751  17.323  0.00  0.00    +0.000 A 
ATOM     16  C   UNL     1      -1.237  10.766  17.846  0.00  0.00    +0.000 A 
ATOM     17  C   UNL     1      -1.769  11.815  18.615  0.00  0.00    +0.000 A 
ATOM     18  C   UNL     1      -3.178  11.880  18.703  0.00  0.00    +0.000 A 
BRANCH  13  20
ATOM     19  N   UNL     1      -6.576  11.142  18.297  0.00  0.00    +0.000 NA
ATOM     20  C   UNL     1      -5.425  11.030  18.196  0.00  0.00    +0.000 C 
ENDBRANCH  13  20
ENDBRANCH   1  17
BRANCH  10  21
ATOM     21  C   UNL     1      -0.113  11.359  21.275  0.00  0.00    +0.000 A 
ATOM     22  C   UNL     1       0.879  10.402  21.009  0.00  0.00    +0.000 A 
ATOM     23  C   UNL     1       1.129   9.403  21.941  0.00  0.00    +0.000 A 
ATOM     24  N   UNL     1       0.405   9.227  23.063  0.00  0.00    +0.000 NA
ATOM     25  C   UNL     1      -0.629  10.073  23.247  0.00  0.00    +0.000 A 
ATOM     26  C   UNL     1      -0.920  11.133  22.399  0.00  0.00    +0.000 A 
ENDBRANCH  10  21
BRANCH   7  27
ATOM     27  C   UNL     1       2.616  15.998  22.715  0.00  0.00    +0.000 C 
BRANCH  27  28
ATOM     28  C   UNL     1       4.028  15.486  22.603  0.00  0.00    +0.000 A 
ATOM     29  N   UNL     1       4.431  14.579  23.542  0.00  0.00    +0.000 NA
ATOM     30  C   UNL     1       5.683  14.076  23.431  0.00  0.00    +0.000 A 
ATOM     31  C   UNL     1       6.573  14.423  22.426  0.00  0.00    +0.000 A 
ATOM     32  C   UNL     1       6.144  15.331  21.463  0.00  0.00    +0.000 A 
ATOM     33  C   UNL     1       4.860  15.854  21.547  0.00  0.00    +0.000 A 
ATOM     34  F   UNL     1       4.445  16.682  20.582  0.00  0.00    +0.000 F 
ENDBRANCH  27  28
ENDBRANCH   7  27
TORSDOF 5
ENDMDL
MODEL 7
REMARK VINA RESULT:      -6.6      1.299      1.854
REMARK  Name = 
REMARK  5 active torsions:
REMARK  status: ('A' for Active; 'I' for Inactive)
REMARK    1  A    between atoms: C_2  and  C_3
REMARK    2  A    between atoms: C_7  and  C_8
REMARK    3  A    between atoms: N_14  and  C_15
REMARK    4  A    between atoms: C_15  and  C_16
REMARK    5  A    between atoms: C_25  and  C_26
REMARK                            x       y       z     vdW  Elec       q    Type
REMARK                         _______ _______ _______ _____ _____    ______ ____
ROOT
ATOM      1  C   UNL     1      -4.124  12.035  19.365  0.00  0.00    +0.000 A 
ATOM      2  N   UNL     1      -4.265  11.309  18.189  0.00  0.00    +0.000 NA
ATOM      3  C   UNL     1      -3.233  10.669  17.590  0.00  0.00    +0.000 A 
ATOM      4  N   UNL     1      -3.454   9.934  16.435  0.00  0.00    +0.000 N 
ATOM      5  C   UNL     1      -1.974  10.825  18.199  0.00  0.00    +0.000 A 
ATOM      6  N   UNL     1      -0.792  10.309  17.823  0.00  0.00    +0.000 NA
ATOM      7  N   UNL     1       0.056  10.857  18.702  0.00  0.00    +0.000 N 
ATOM      8  N   UNL     1      -0.470  11.589  19.710  0.00  0.00    +0.000 NA
ATOM      9  C   UNL     1      -1.793  11.624  19.410  0.00  0.00    +0.000 A 
ATOM     10  C   UNL     1      -2.888  12.267  20.060  0.00  0.00    +0.000 A 
ATOM     11  H   UNL     1      -4.270  10.243  15.924  0.00  0.00    +0.000 HD
ATOM     12  H   UNL     1      -2.605   9.758  15.907  0.00  0.00    +0.000 HD
ENDROOT
BRANCH   1  17
ATOM     13  C   UNL     1      -7.051  14.410  19.979  0.00  0.00    +0.000 A 
ATOM     14  C   UNL     1      -7.916  13.625  20.740  0.00  0.00    +0.000 A 
ATOM     15  C   UNL     1      -7.596  12.296  20.988  0.00  0.00    +0.000 A 
ATOM     16  C   UNL     1      -6.411  11.753  20.479  0.00  0.00    +0.000 A 
ATOM     17  C   UNL     1      -5.461  12.544  19.810  0.00  0.00    +0.000 A 
ATOM     18  C   UNL     1      -5.832  13.881  19.541  0.00  0.00    +0.000 A 
BRANCH  13  20
ATOM     19  N   UNL     1      -7.729  16.849  19.412  0.00  0.00    +0.000 NA
ATOM     20  C   UNL     1      -7.407  15.761  19.656  0.00  0.00    +0.000 C 
ENDBRANCH  13  20
ENDBRANCH   1  17
BRANCH  10  21
ATOM     21  C   UNL     1      -2.725  12.992  21.338  0.00  0.00    +0.000 A 
ATOM     22  C   UNL     1      -2.457  14.369  21.385  0.00  0.00    +0.000 A 
ATOM     23  C   UNL     1      -2.643  15.059  22.576  0.00  0.00    +0.000 A 
ATOM     24  N   UNL     1      -2.978  14.469  23.739  0.00  0.00    +0.000 NA
ATOM     25  C   UNL     1      -3.108  13.127  23.714  0.00  0.00    +0.000 A 
ATOM     26  C   UNL     1      -2.995  12.362  22.561  0.00  0.00    +0.000 A 
ENDBRANCH  10  21
BRANCH   7  27
ATOM     27  C   UNL     1       1.470  10.517  18.631  0.00  0.00    +0.000 C 
BRANCH  27  28
ATOM     28  C   UNL     1       1.729   9.065  18.933  0.00  0.00    +0.000 A 
ATOM     29  N   UNL     1       2.277   8.314  17.932  0.00  0.00    +0.000 NA
ATOM     30  C   UNL     1       2.554   7.017  18.200  0.00  0.00    +0.000 A 
ATOM     31  C   UNL     1       2.321   6.410  19.425  0.00  0.00    +0.000 A 
ATOM     32  C   UNL     1       1.784   7.190  20.444  0.00  0.00    +0.000 A 
ATOM     33  C   UNL     1       1.499   8.526  20.199  0.00  0.00    +0.000 A 
ATOM     34  F   UNL     1       1.036   9.275  21.206  0.00  0.00    +0.000 F 
ENDBRANCH  27  28
ENDBRANCH   7  27
TORSDOF 5
ENDMDL
MODEL 8
REMARK VINA RESULT:      -6.6      1.611      2.159
REMARK  Name = 
REMARK  5 active torsions:
REMARK  status: ('A' for Active; 'I' for Inactive)
REMARK    1  A    between atoms: C_2  and  C_3
REMARK    2  A    between atoms: C_7  and  C_8
REMARK    3  A    between atoms: N_14  and  C_15
REMARK    4  A    between atoms: C_15  and  C_16
REMARK    5  A    between atoms: C_25  and  C_26
REMARK                            x       y       z     vdW  Elec       q    Type
REMARK                         _______ _______ _______ _____ _____    ______ ____
ROOT
ATOM      1  C   UNL     1      -4.114  11.941  19.301  0.00  0.00    +0.000 A 
ATOM      2  N   UNL     1      -4.250  11.194  18.138  0.00  0.00    +0.000 NA
ATOM      3  C   UNL     1      -3.214  10.548  17.553  0.00  0.00    +0.000 A 
ATOM      4  N   UNL     1      -3.428   9.791  16.411  0.00  0.00    +0.000 N 
ATOM      5  C   UNL     1      -1.956  10.720  18.162  0.00  0.00    +0.000 A 
ATOM      6  N   UNL     1      -0.772  10.203  17.799  0.00  0.00    +0.000 NA
ATOM      7  N   UNL     1       0.072  10.769  18.670  0.00  0.00    +0.000 N 
ATOM      8  N   UNL     1      -0.459  11.517  19.663  0.00  0.00    +0.000 NA
ATOM      9  C   UNL     1      -1.782  11.541  19.360  0.00  0.00    +0.000 A 
ATOM     10  C   UNL     1      -2.882  12.191  19.996  0.00  0.00    +0.000 A 
ATOM     11  H   UNL     1      -4.244  10.088  15.892  0.00  0.00    +0.000 HD
ATOM     12  H   UNL     1      -2.577   9.609  15.888  0.00  0.00    +0.000 HD
ENDROOT
BRANCH   1  17
ATOM     13  C   UNL     1      -6.982  14.354  20.039  0.00  0.00    +0.000 A 
ATOM     14  C   UNL     1      -7.917  13.525  20.657  0.00  0.00    +0.000 A 
ATOM     15  C   UNL     1      -7.660  12.163  20.763  0.00  0.00    +0.000 A 
ATOM     16  C   UNL     1      -6.469  11.632  20.255  0.00  0.00    +0.000 A 
ATOM     17  C   UNL     1      -5.454  12.453  19.734  0.00  0.00    +0.000 A 
ATOM     18  C   UNL     1      -5.760  13.827  19.605  0.00  0.00    +0.000 A 
BRANCH  13  20
ATOM     19  N   UNL     1      -7.534  16.865  19.697  0.00  0.00    +0.000 NA
ATOM     20  C   UNL     1      -7.269  15.748  19.859  0.00  0.00    +0.000 C 
ENDBRANCH  13  20
ENDBRANCH   1  17
BRANCH  10  21
ATOM     21  C   UNL     1      -2.724  12.939  21.261  0.00  0.00    +0.000 A 
ATOM     22  C   UNL     1      -2.414  14.309  21.284  0.00  0.00    +0.000 A 
ATOM     23  C   UNL     1      -2.606  15.031  22.455  0.00  0.00    +0.000 A 
ATOM     24  N   UNL     1      -2.985  14.478  23.622  0.00  0.00    +0.000 NA
ATOM     25  C   UNL     1      -3.156  13.140  23.623  0.00  0.00    +0.000 A 
ATOM     26  C   UNL     1      -3.041  12.345  22.490  0.00  0.00    +0.000 A 
ENDBRANCH  10  21
BRANCH   7  27
ATOM     27  C   UNL     1       1.488  10.434  18.609  0.00  0.00    +0.000 C 
BRANCH  27  28
ATOM     28  C   UNL     1       1.770   9.036  19.093  0.00  0.00    +0.000 A 
ATOM     29  N   UNL     1       1.346   8.722  20.353  0.00  0.00    +0.000 NA
ATOM     30  C   UNL     1       1.554   7.457  20.788  0.00  0.00    +0.000 A 
ATOM     31  C   UNL     1       2.164   6.467  20.032  0.00  0.00    +0.000 A 
ATOM     32  C   UNL     1       2.572   6.792  18.742  0.00  0.00    +0.000 A 
ATOM     33  C   UNL     1       2.361   8.080  18.268  0.00  0.00    +0.000 A 
ATOM     34  F   UNL     1       2.707   8.360  17.006  0.00  0.00    +0.000 F 
ENDBRANCH  27  28
ENDBRANCH   7  27
TORSDOF 5
ENDMDL
MODEL 9
REMARK VINA RESULT:      -6.5      3.600      5.191
REMARK  Name = 
REMARK  5 active torsions:
REMARK  status: ('A' for Active; 'I' for Inactive)
REMARK    1  A    between atoms: C_2  and  C_3
REMARK    2  A    between atoms: C_7  and  C_8
REMARK    3  A    between atoms: N_14  and  C_15
REMARK    4  A    between atoms: C_15  and  C_16
REMARK    5  A    between atoms: C_25  and  C_26
REMARK                            x       y       z     vdW  Elec       q    Type
REMARK                         _______ _______ _______ _____ _____    ______ ____
ROOT
ATOM      1  C   UNL     1      -0.128  12.829  18.897  0.00  0.00    +0.000 A 
ATOM      2  N   UNL     1      -1.211  12.024  18.569  0.00  0.00    +0.000 NA
ATOM      3  C   UNL     1      -1.086  10.712  18.256  0.00  0.00    +0.000 A 
ATOM      4  N   UNL     1      -2.215   9.960  17.971  0.00  0.00    +0.000 N 
ATOM      5  C   UNL     1       0.228  10.208  18.226  0.00  0.00    +0.000 A 
ATOM      6  N   UNL     1       0.640   8.960  17.951  0.00  0.00    +0.000 NA
ATOM      7  N   UNL     1       1.973   9.082  17.979  0.00  0.00    +0.000 N 
ATOM      8  N   UNL     1       2.487  10.267  18.377  0.00  0.00    +0.000 NA
ATOM      9  C   UNL     1       1.387  11.049  18.522  0.00  0.00    +0.000 A 
ATOM     10  C   UNL     1       1.250  12.422  18.887  0.00  0.00    +0.000 A 
ATOM     11  H   UNL     1      -2.988  10.523  17.644  0.00  0.00    +0.000 HD
ATOM     12  H   UNL     1      -2.007   9.105  17.465  0.00  0.00    +0.000 HD
ENDROOT
BRANCH   1  17
ATOM     13  C   UNL     1      -0.686  16.606  18.786  0.00  0.00    +0.000 A 
ATOM     14  C   UNL     1      -1.363  16.841  19.981  0.00  0.00    +0.000 A 
ATOM     15  C   UNL     1      -1.718  15.769  20.791  0.00  0.00    +0.000 A 
ATOM     16  C   UNL     1      -1.393  14.463  20.408  0.00  0.00    +0.000 A 
ATOM     17  C   UNL     1      -0.608  14.198  19.271  0.00  0.00    +0.000 A 
ATOM     18  C   UNL     1      -0.297  15.304  18.450  0.00  0.00    +0.000 A 
BRANCH  13  20
ATOM     19  N   UNL     1      -0.117  18.600  17.228  0.00  0.00    +0.000 NA
ATOM     20  C   UNL     1      -0.381  17.698  17.908  0.00  0.00    +0.000 C 
ENDBRANCH  13  20
ENDBRANCH   1  17
BRANCH  10  21
ATOM     21  C   UNL     1       2.411  13.247  19.282  0.00  0.00    +0.000 A 
ATOM     22  C   UNL     1       3.222  13.895  18.337  0.00  0.00    +0.000 A 
ATOM     23  C   UNL     1       4.075  14.909  18.752  0.00  0.00    +0.000 A 
ATOM     24  N   UNL     1       4.253  15.258  20.041  0.00  0.00    +0.000 NA
ATOM     25  C   UNL     1       3.565  14.544  20.954  0.00  0.00    +0.000 A 
ATOM     26  C   UNL     1       2.651  13.550  20.630  0.00  0.00    +0.000 A 
ENDBRANCH  10  21
BRANCH   7  27
ATOM     27  C   UNL     1       2.799   7.906  17.740  0.00  0.00    +0.000 C 
BRANCH  27  28
ATOM     28  C   UNL     1       2.350   6.714  18.543  0.00  0.00    +0.000 A 
ATOM     29  N   UNL     1       2.257   5.523  17.880  0.00  0.00    +0.000 NA
ATOM     30  C   UNL     1       1.895   4.433  18.595  0.00  0.00    +0.000 A 
ATOM     31  C   UNL     1       1.619   4.453  19.954  0.00  0.00    +0.000 A 
ATOM     32  C   UNL     1       1.738   5.667  20.624  0.00  0.00    +0.000 A 
ATOM     33  C   UNL     1       2.118   6.799  19.915  0.00  0.00    +0.000 A 
ATOM     34  F   UNL     1       2.283   7.945  20.585  0.00  0.00    +0.000 F 
ENDBRANCH  27  28
ENDBRANCH   7  27
TORSDOF 5
ENDMDL
