MODEL 1
REMARK VINA RESULT:      -9.1      0.000      0.000
REMARK  Name = 
REMARK  2 active torsions:
REMARK  status: ('A' for Active; 'I' for Inactive)
REMARK    1  A    between atoms: C_5  and  C_6
REMARK    2  A    between atoms: C_9  and  C_10
REMARK                            x       y       z     vdW  Elec       q    Type
REMARK                         _______ _______ _______ _____ _____    ______ ____
ROOT
ATOM      1  C   UNL     1      -1.611  10.738  19.363  0.00  0.00    +0.000 A 
ATOM      2  N   UNL     1      -0.681   9.822  19.425  0.00  0.00    +0.000 NA
ATOM      3  C   UNL     1       0.077   9.712  20.544  0.00  0.00    +0.000 A 
ATOM      4  C   UNL     1       1.112   8.866  20.921  0.00  0.00    +0.000 A 
ATOM      5  C   UNL     1       1.433   9.272  22.233  0.00  0.00    +0.000 A 
ATOM      6  N   UNL     1       0.682  10.268  22.673  0.00  0.00    +0.000 NA
ATOM      7  N   UNL     1      -0.166  10.538  21.642  0.00  0.00    +0.000 N 
ATOM      8  C   UNL     1      -1.158  11.522  21.634  0.00  0.00    +0.000 A 
ATOM      9  C   UNL     1      -1.928  11.763  20.499  0.00  0.00    +0.000 A 
ATOM     10  C   UNL     1      -2.989  12.954  20.267  0.00  0.00    +0.000 C 
ATOM     11  C   UNL     1      -4.099  13.586  21.316  0.00  0.00    +0.000 C 
ATOM     12  C   UNL     1      -3.656  13.876  22.810  0.00  0.00    +0.000 C 
ATOM     13  C   UNL     1      -2.477  13.013  22.830  0.00  0.00    +0.000 C 
ATOM     14  C   UNL     1      -1.272  12.222  23.046  0.00  0.00    +0.000 C 
ENDROOT
BRANCH   1  19
ATOM     15  F   UNL     1      -3.979  10.633  14.236  0.00  0.00    +0.000 F 
ATOM     16  C   UNL     1      -3.485  10.619  15.481  0.00  0.00    +0.000 A 
ATOM     17  C   UNL     1      -2.382   9.831  15.768  0.00  0.00    +0.000 A 
ATOM     18  C   UNL     1      -1.857   9.841  17.063  0.00  0.00    +0.000 A 
ATOM     19  C   UNL     1      -2.410  10.653  18.080  0.00  0.00    +0.000 A 
ATOM     20  C   UNL     1      -3.512  11.454  17.759  0.00  0.00    +0.000 A 
ATOM     21  C   UNL     1      -4.062  11.418  16.466  0.00  0.00    +0.000 A 
ENDBRANCH   1  19
BRANCH   4  22
ATOM     22  C   UNL     1       1.712   7.760  20.189  0.00  0.00    +0.000 A 
ATOM     23  C   UNL     1       1.626   6.462  20.728  0.00  0.00    +0.000 A 
ATOM     24  C   UNL     1       2.014   5.340  19.990  0.00  0.00    +0.000 A 
ATOM     25  C   UNL     1       2.503   5.508  18.700  0.00  0.00    +0.000 A 
ATOM     26 CL   UNL     1       2.928   4.129  17.761  0.00  0.00    +0.000 Cl
ATOM     27  C   UNL     1       2.628   6.788  18.159  0.00  0.00    +0.000 A 
ATOM     28  C   UNL     1       2.239   7.913  18.902  0.00  0.00    +0.000 A 
ENDBRANCH   4  22
TORSDOF 2
ENDMDL
MODEL 2
REMARK VINA RESULT:      -8.7      0.408      1.347
REMARK  Name = 
REMARK  2 active torsions:
REMARK  status: ('A' for Active; 'I' for Inactive)
REMARK    1  A    between atoms: C_5  and  C_6
REMARK    2  A    between atoms: C_9  and  C_10
REMARK                            x       y       z     vdW  Elec       q    Type
REMARK                         _______ _______ _______ _____ _____    ______ ____
ROOT
ATOM      1  C   UNL     1      -1.376  10.773  19.293  0.00  0.00    +0.000 A 
ATOM      2  N   UNL     1      -0.519   9.791  19.397  0.00  0.00    +0.000 NA
ATOM      3  C   UNL     1       0.153   9.609  20.560  0.00  0.00    +0.000 A 
ATOM      4  C   UNL     1       1.099   8.685  20.985  0.00  0.00    +0.000 A 
ATOM      5  C   UNL     1       1.360   9.045  22.324  0.00  0.00    +0.000 A 
ATOM      6  N   UNL     1       0.653  10.085  22.736  0.00  0.00    +0.000 NA
ATOM      7  N   UNL     1      -0.103  10.432  21.657  0.00  0.00    +0.000 N 
ATOM      8  C   UNL     1      -1.021  11.485  21.605  0.00  0.00    +0.000 A 
ATOM      9  C   UNL     1      -1.694  11.800  20.428  0.00  0.00    +0.000 A 
ATOM     10  C   UNL     1      -2.650  13.067  20.153  0.00  0.00    +0.000 C 
ATOM     11  C   UNL     1      -3.781  13.760  21.141  0.00  0.00    +0.000 C 
ATOM     12  C   UNL     1      -3.419  13.992  22.666  0.00  0.00    +0.000 C 
ATOM     13  C   UNL     1      -2.308  13.047  22.744  0.00  0.00    +0.000 C 
ATOM     14  C   UNL     1      -1.178  12.168  23.022  0.00  0.00    +0.000 C 
ENDROOT
BRANCH   1  19
ATOM     15  F   UNL     1      -4.616  10.457  14.678  0.00  0.00    +0.000 F 
ATOM     16  C   UNL     1      -3.794  10.579  15.729  0.00  0.00    +0.000 A 
ATOM     17  C   UNL     1      -4.200  11.315  16.830  0.00  0.00    +0.000 A 
ATOM     18  C   UNL     1      -3.348  11.417  17.932  0.00  0.00    +0.000 A 
ATOM     19  C   UNL     1      -2.092  10.767  17.959  0.00  0.00    +0.000 A 
ATOM     20  C   UNL     1      -1.714  10.013  16.843  0.00  0.00    +0.000 A 
ATOM     21  C   UNL     1      -2.556   9.939  15.720  0.00  0.00    +0.000 A 
ENDBRANCH   1  19
BRANCH   4  22
ATOM     22  C   UNL     1       1.667   7.550  20.271  0.00  0.00    +0.000 A 
ATOM     23  C   UNL     1       2.317   7.776  19.043  0.00  0.00    +0.000 A 
ATOM     24  C   UNL     1       3.040   6.763  18.406  0.00  0.00    +0.000 A 
ATOM     25  C   UNL     1       3.114   5.505  18.991  0.00  0.00    +0.000 A 
ATOM     26 CL   UNL     1       4.051   4.269  18.245  0.00  0.00    +0.000 Cl
ATOM     27  C   UNL     1       2.449   5.251  20.192  0.00  0.00    +0.000 A 
ATOM     28  C   UNL     1       1.723   6.268  20.829  0.00  0.00    +0.000 A 
ENDBRANCH   4  22
TORSDOF 2
ENDMDL
MODEL 3
REMARK VINA RESULT:      -8.3      4.400      8.901
REMARK  Name = 
REMARK  2 active torsions:
REMARK  status: ('A' for Active; 'I' for Inactive)
REMARK    1  A    between atoms: C_5  and  C_6
REMARK    2  A    between atoms: C_9  and  C_10
REMARK                            x       y       z     vdW  Elec       q    Type
REMARK                         _______ _______ _______ _____ _____    ______ ____
ROOT
ATOM      1  C   UNL     1       2.952   5.618  19.056  0.00  0.00    +0.000 A 
ATOM      2  N   UNL     1       2.258   6.647  19.464  0.00  0.00    +0.000 NA
ATOM      3  C   UNL     1       2.369   7.830  18.811  0.00  0.00    +0.000 A 
ATOM      4  C   UNL     1       1.782   9.078  18.982  0.00  0.00    +0.000 A 
ATOM      5  C   UNL     1       2.313   9.859  17.936  0.00  0.00    +0.000 A 
ATOM      6  N   UNL     1       3.149   9.193  17.155  0.00  0.00    +0.000 NA
ATOM      7  N   UNL     1       3.180   7.938  17.682  0.00  0.00    +0.000 N 
ATOM      8  C   UNL     1       3.930   6.863  17.194  0.00  0.00    +0.000 A 
ATOM      9  C   UNL     1       3.944   5.635  17.849  0.00  0.00    +0.000 A 
ATOM     10  C   UNL     1       4.871   4.358  17.520  0.00  0.00    +0.000 C 
ATOM     11  C   UNL     1       5.307   3.731  16.054  0.00  0.00    +0.000 C 
ATOM     12  C   UNL     1       5.760   4.724  14.905  0.00  0.00    +0.000 C 
ATOM     13  C   UNL     1       5.169   5.939  15.461  0.00  0.00    +0.000 C 
ATOM     14  C   UNL     1       4.663   7.251  15.848  0.00  0.00    +0.000 C 
ENDROOT
BRANCH   1  19
ATOM     15  F   UNL     1       1.432   1.393  22.484  0.00  0.00    +0.000 F 
ATOM     16  C   UNL     1       1.814   2.338  21.614  0.00  0.00    +0.000 A 
ATOM     17  C   UNL     1       0.861   3.166  21.045  0.00  0.00    +0.000 A 
ATOM     18  C   UNL     1       1.269   4.166  20.159  0.00  0.00    +0.000 A 
ATOM     19  C   UNL     1       2.634   4.366  19.846  0.00  0.00    +0.000 A 
ATOM     20  C   UNL     1       3.579   3.528  20.449  0.00  0.00    +0.000 A 
ATOM     21  C   UNL     1       3.165   2.500  21.314  0.00  0.00    +0.000 A 
ENDBRANCH   1  19
BRANCH   4  22
ATOM     22  C   UNL     1       0.790   9.505  19.960  0.00  0.00    +0.000 A 
ATOM     23  C   UNL     1       0.867   9.000  21.272  0.00  0.00    +0.000 A 
ATOM     24  C   UNL     1       0.066   9.512  22.297  0.00  0.00    +0.000 A 
ATOM     25  C   UNL     1      -0.833  10.534  22.014  0.00  0.00    +0.000 A 
ATOM     26 CL   UNL     1      -1.782  11.210  23.281  0.00  0.00    +0.000 Cl
ATOM     27  C   UNL     1      -0.949  11.025  20.713  0.00  0.00    +0.000 A 
ATOM     28  C   UNL     1      -0.144  10.510  19.686  0.00  0.00    +0.000 A 
ENDBRANCH   4  22
TORSDOF 2
ENDMDL
MODEL 4
REMARK VINA RESULT:      -7.6      3.557      4.341
REMARK  Name = 
REMARK  2 active torsions:
REMARK  status: ('A' for Active; 'I' for Inactive)
REMARK    1  A    between atoms: C_5  and  C_6
REMARK    2  A    between atoms: C_9  and  C_10
REMARK                            x       y       z     vdW  Elec       q    Type
REMARK                         _______ _______ _______ _____ _____    ______ ____
ROOT
ATOM      1  C   UNL     1       0.948  12.655  20.822  0.00  0.00    +0.000 A 
ATOM      2  N   UNL     1       1.299  11.445  20.472  0.00  0.00    +0.000 NA
ATOM      3  C   UNL     1       0.676  10.379  21.032  0.00  0.00    +0.000 A 
ATOM      4  C   UNL     1       0.806   9.005  20.878  0.00  0.00    +0.000 A 
ATOM      5  C   UNL     1      -0.173   8.465  21.738  0.00  0.00    +0.000 A 
ATOM      6  N   UNL     1      -0.876   9.385  22.378  0.00  0.00    +0.000 NA
ATOM      7  N   UNL     1      -0.366  10.569  21.939  0.00  0.00    +0.000 N 
ATOM      8  C   UNL     1      -0.792  11.841  22.334  0.00  0.00    +0.000 A 
ATOM      9  C   UNL     1      -0.156  12.991  21.876  0.00  0.00    +0.000 A 
ATOM     10  C   UNL     1      -0.409  14.509  22.354  0.00  0.00    +0.000 C 
ATOM     11  C   UNL     1      -1.834  15.275  22.698  0.00  0.00    +0.000 C 
ATOM     12  C   UNL     1      -2.919  14.511  23.564  0.00  0.00    +0.000 C 
ATOM     13  C   UNL     1      -2.408  13.158  23.358  0.00  0.00    +0.000 C 
ATOM     14  C   UNL     1      -2.054  11.745  23.281  0.00  0.00    +0.000 C 
ENDROOT
BRANCH   1  19
ATOM     15  F   UNL     1       3.850  16.918  18.519  0.00  0.00    +0.000 F 
ATOM     16  C   UNL     1       3.162  15.869  18.991  0.00  0.00    +0.000 A 
ATOM     17  C   UNL     1       3.763  15.013  19.898  0.00  0.00    +0.000 A 
ATOM     18  C   UNL     1       3.031  13.936  20.405  0.00  0.00    +0.000 A 
ATOM     19  C   UNL     1       1.686  13.714  20.031  0.00  0.00    +0.000 A 
ATOM     20  C   UNL     1       1.096  14.605  19.127  0.00  0.00    +0.000 A 
ATOM     21  C   UNL     1       1.843  15.668  18.590  0.00  0.00    +0.000 A 
ENDBRANCH   1  19
BRANCH   4  22
ATOM     22  C   UNL     1       1.687   8.254  19.995  0.00  0.00    +0.000 A 
ATOM     23  C   UNL     1       2.165   6.998  20.417  0.00  0.00    +0.000 A 
ATOM     24  C   UNL     1       2.856   6.152  19.545  0.00  0.00    +0.000 A 
ATOM     25  C   UNL     1       3.084   6.560  18.237  0.00  0.00    +0.000 A 
ATOM     26 CL   UNL     1       3.882   5.501  17.139  0.00  0.00    +0.000 Cl
ATOM     27  C   UNL     1       2.648   7.814  17.808  0.00  0.00    +0.000 A 
ATOM     28  C   UNL     1       1.956   8.662  18.684  0.00  0.00    +0.000 A 
ENDBRANCH   4  22
TORSDOF 2
ENDMDL
MODEL 5
REMARK VINA RESULT:      -7.6      3.487      4.210
REMARK  Name = 
REMARK  2 active torsions:
REMARK  status: ('A' for Active; 'I' for Inactive)
REMARK    1  A    between atoms: C_5  and  C_6
REMARK    2  A    between atoms: C_9  and  C_10
REMARK                            x       y       z     vdW  Elec       q    Type
REMARK                         _______ _______ _______ _____ _____    ______ ____
ROOT
ATOM      1  C   UNL     1       1.130  12.409  20.833  0.00  0.00    +0.000 A 
ATOM      2  N   UNL     1       1.425  11.175  20.519  0.00  0.00    +0.000 NA
ATOM      3  C   UNL     1       0.727  10.157  21.080  0.00  0.00    +0.000 A 
ATOM      4  C   UNL     1       0.786   8.774  20.958  0.00  0.00    +0.000 A 
ATOM      5  C   UNL     1      -0.248   8.307  21.796  0.00  0.00    +0.000 A 
ATOM      6  N   UNL     1      -0.919   9.278  22.394  0.00  0.00    +0.000 NA
ATOM      7  N   UNL     1      -0.331  10.423  21.948  0.00  0.00    +0.000 N 
ATOM      8  C   UNL     1      -0.699  11.724  22.304  0.00  0.00    +0.000 A 
ATOM      9  C   UNL     1       0.014  12.828  21.844  0.00  0.00    +0.000 A 
ATOM     10  C   UNL     1      -0.171  14.367  22.283  0.00  0.00    +0.000 C 
ATOM     11  C   UNL     1      -1.561  15.217  22.565  0.00  0.00    +0.000 C 
ATOM     12  C   UNL     1      -2.713  14.531  23.410  0.00  0.00    +0.000 C 
ATOM     13  C   UNL     1      -2.271  13.149  23.248  0.00  0.00    +0.000 C 
ATOM     14  C   UNL     1      -1.994  11.718  23.211  0.00  0.00    +0.000 C 
ENDROOT
BRANCH   1  19
ATOM     15  F   UNL     1       4.360  15.580  17.455  0.00  0.00    +0.000 F 
ATOM     16  C   UNL     1       3.566  14.898  18.292  0.00  0.00    +0.000 A 
ATOM     17  C   UNL     1       2.469  14.220  17.789  0.00  0.00    +0.000 A 
ATOM     18  C   UNL     1       1.660  13.490  18.664  0.00  0.00    +0.000 A 
ATOM     19  C   UNL     1       1.949  13.409  20.046  0.00  0.00    +0.000 A 
ATOM     20  C   UNL     1       3.075  14.088  20.526  0.00  0.00    +0.000 A 
ATOM     21  C   UNL     1       3.869  14.850  19.651  0.00  0.00    +0.000 A 
ENDBRANCH   1  19
BRANCH   4  22
ATOM     22  C   UNL     1       1.651   7.957  20.119  0.00  0.00    +0.000 A 
ATOM     23  C   UNL     1       1.968   6.651  20.537  0.00  0.00    +0.000 A 
ATOM     24  C   UNL     1       2.635   5.758  19.692  0.00  0.00    +0.000 A 
ATOM     25  C   UNL     1       3.001   6.170  18.417  0.00  0.00    +0.000 A 
ATOM     26 CL   UNL     1       3.769   5.060  17.349  0.00  0.00    +0.000 Cl
ATOM     27  C   UNL     1       2.726   7.471  17.995  0.00  0.00    +0.000 A 
ATOM     28  C   UNL     1       2.057   8.366  18.844  0.00  0.00    +0.000 A 
ENDBRANCH   4  22
TORSDOF 2
ENDMDL
MODEL 6
REMARK VINA RESULT:      -7.6      3.444      4.169
REMARK  Name = 
REMARK  2 active torsions:
REMARK  status: ('A' for Active; 'I' for Inactive)
REMARK    1  A    between atoms: C_5  and  C_6
REMARK    2  A    between atoms: C_9  and  C_10
REMARK                            x       y       z     vdW  Elec       q    Type
REMARK                         _______ _______ _______ _____ _____    ______ ____
ROOT
ATOM      1  C   UNL     1       0.827  12.684  20.437  0.00  0.00    +0.000 A 
ATOM      2  N   UNL     1       1.155  11.462  20.108  0.00  0.00    +0.000 NA
ATOM      3  C   UNL     1       0.642  10.420  20.809  0.00  0.00    +0.000 A 
ATOM      4  C   UNL     1       0.782   9.041  20.714  0.00  0.00    +0.000 A 
ATOM      5  C   UNL     1      -0.053   8.537  21.732  0.00  0.00    +0.000 A 
ATOM      6  N   UNL     1      -0.681   9.481  22.413  0.00  0.00    +0.000 NA
ATOM      7  N   UNL     1      -0.267  10.646  21.842  0.00  0.00    +0.000 N 
ATOM      8  C   UNL     1      -0.663  11.931  22.223  0.00  0.00    +0.000 A 
ATOM      9  C   UNL     1      -0.125  13.063  21.617  0.00  0.00    +0.000 A 
ATOM     10  C   UNL     1      -0.346  14.602  22.041  0.00  0.00    +0.000 C 
ATOM     11  C   UNL     1      -1.726  15.363  22.540  0.00  0.00    +0.000 C 
ATOM     12  C   UNL     1      -2.660  14.633  23.592  0.00  0.00    +0.000 C 
ATOM     13  C   UNL     1      -2.150  13.279  23.391  0.00  0.00    +0.000 C 
ATOM     14  C   UNL     1      -1.777  11.870  23.342  0.00  0.00    +0.000 C 
ENDROOT
BRANCH   1  19
ATOM     15  F   UNL     1       3.613  16.526  17.375  0.00  0.00    +0.000 F 
ATOM     16  C   UNL     1       2.899  15.606  18.037  0.00  0.00    +0.000 A 
ATOM     17  C   UNL     1       3.461  14.368  18.301  0.00  0.00    +0.000 A 
ATOM     18  C   UNL     1       2.721  13.422  19.014  0.00  0.00    +0.000 A 
ATOM     19  C   UNL     1       1.421  13.708  19.493  0.00  0.00    +0.000 A 
ATOM     20  C   UNL     1       0.883  14.972  19.229  0.00  0.00    +0.000 A 
ATOM     21  C   UNL     1       1.615  15.912  18.482  0.00  0.00    +0.000 A 
ENDBRANCH   1  19
BRANCH   4  22
ATOM     22  C   UNL     1       1.548   8.255  19.757  0.00  0.00    +0.000 A 
ATOM     23  C   UNL     1       1.823   8.804  18.490  0.00  0.00    +0.000 A 
ATOM     24  C   UNL     1       2.706   8.181  17.603  0.00  0.00    +0.000 A 
ATOM     25  C   UNL     1       3.319   6.991  17.974  0.00  0.00    +0.000 A 
ATOM     26 CL   UNL     1       4.453   6.247  16.914  0.00  0.00    +0.000 Cl
ATOM     27  C   UNL     1       3.035   6.412  19.212  0.00  0.00    +0.000 A 
ATOM     28  C   UNL     1       2.148   7.039  20.100  0.00  0.00    +0.000 A 
ENDBRANCH   4  22
TORSDOF 2
ENDMDL
MODEL 7
REMARK VINA RESULT:      -7.5      4.791      8.590
REMARK  Name = 
REMARK  2 active torsions:
REMARK  status: ('A' for Active; 'I' for Inactive)
REMARK    1  A    between atoms: C_5  and  C_6
REMARK    2  A    between atoms: C_9  and  C_10
REMARK                            x       y       z     vdW  Elec       q    Type
REMARK                         _______ _______ _______ _____ _____    ______ ____
ROOT
ATOM      1  C   UNL     1       3.704   6.000  18.391  0.00  0.00    +0.000 A 
ATOM      2  N   UNL     1       3.172   7.188  18.507  0.00  0.00    +0.000 NA
ATOM      3  C   UNL     1       2.229   7.410  19.456  0.00  0.00    +0.000 A 
ATOM      4  C   UNL     1       1.493   8.526  19.832  0.00  0.00    +0.000 A 
ATOM      5  C   UNL     1       0.710   8.077  20.916  0.00  0.00    +0.000 A 
ATOM      6  N   UNL     1       0.919   6.808  21.225  0.00  0.00    +0.000 NA
ATOM      7  N   UNL     1       1.863   6.392  20.336  0.00  0.00    +0.000 N 
ATOM      8  C   UNL     1       2.414   5.108  20.266  0.00  0.00    +0.000 A 
ATOM      9  C   UNL     1       3.326   4.766  19.272  0.00  0.00    +0.000 A 
ATOM     10  C   UNL     1       3.925   3.305  18.951  0.00  0.00    +0.000 C 
ATOM     11  C   UNL     1       4.419   2.123  19.996  0.00  0.00    +0.000 C 
ATOM     12  C   UNL     1       3.518   1.798  21.259  0.00  0.00    +0.000 C 
ATOM     13  C   UNL     1       2.756   3.044  21.274  0.00  0.00    +0.000 C 
ATOM     14  C   UNL     1       1.891   4.204  21.453  0.00  0.00    +0.000 C 
ENDROOT
BRANCH   1  19
ATOM     15  F   UNL     1       7.756   5.136  14.552  0.00  0.00    +0.000 F 
ATOM     16  C   UNL     1       6.792   5.421  15.438  0.00  0.00    +0.000 A 
ATOM     17  C   UNL     1       5.527   4.885  15.265  0.00  0.00    +0.000 A 
ATOM     18  C   UNL     1       4.534   5.165  16.207  0.00  0.00    +0.000 A 
ATOM     19  C   UNL     1       4.797   5.964  17.344  0.00  0.00    +0.000 A 
ATOM     20  C   UNL     1       6.089   6.478  17.506  0.00  0.00    +0.000 A 
ATOM     21  C   UNL     1       7.078   6.224  16.540  0.00  0.00    +0.000 A 
ENDBRANCH   1  19
BRANCH   4  22
ATOM     22  C   UNL     1       1.538   9.882  19.304  0.00  0.00    +0.000 A 
ATOM     23  C   UNL     1       1.002  10.931  20.076  0.00  0.00    +0.000 A 
ATOM     24  C   UNL     1       1.182  12.269  19.710  0.00  0.00    +0.000 A 
ATOM     25  C   UNL     1       1.896  12.571  18.557  0.00  0.00    +0.000 A 
ATOM     26 CL   UNL     1       2.173  14.215  18.131  0.00  0.00    +0.000 Cl
ATOM     27  C   UNL     1       2.406  11.545  17.760  0.00  0.00    +0.000 A 
ATOM     28  C   UNL     1       2.224  10.204  18.128  0.00  0.00    +0.000 A 
ENDBRANCH   4  22
TORSDOF 2
ENDMDL
MODEL 8
REMARK VINA RESULT:      -7.4      4.121      6.939
REMARK  Name = 
REMARK  2 active torsions:
REMARK  status: ('A' for Active; 'I' for Inactive)
REMARK    1  A    between atoms: C_5  and  C_6
REMARK    2  A    between atoms: C_9  and  C_10
REMARK                            x       y       z     vdW  Elec       q    Type
REMARK                         _______ _______ _______ _____ _____    ______ ____
ROOT
ATOM      1  C   UNL     1      -0.653  12.538  20.040  0.00  0.00    +0.000 A 
ATOM      2  N   UNL     1      -1.587  12.748  20.930  0.00  0.00    +0.000 NA
ATOM      3  C   UNL     1      -1.325  13.536  22.001  0.00  0.00    +0.000 A 
ATOM      4  C   UNL     1      -2.079  13.951  23.092  0.00  0.00    +0.000 A 
ATOM      5  C   UNL     1      -1.208  14.791  23.817  0.00  0.00    +0.000 A 
ATOM      6  N   UNL     1      -0.017  14.922  23.257  0.00  0.00    +0.000 NA
ATOM      7  N   UNL     1      -0.085  14.160  22.130  0.00  0.00    +0.000 N 
ATOM      8  C   UNL     1       0.943  13.983  21.198  0.00  0.00    +0.000 A 
ATOM      9  C   UNL     1       0.793  13.125  20.112  0.00  0.00    +0.000 A 
ATOM     10  C   UNL     1       1.920  12.684  19.048  0.00  0.00    +0.000 C 
ATOM     11  C   UNL     1       3.101  13.595  18.335  0.00  0.00    +0.000 C 
ATOM     12  C   UNL     1       3.927  14.608  19.231  0.00  0.00    +0.000 C 
ATOM     13  C   UNL     1       2.984  14.688  20.345  0.00  0.00    +0.000 C 
ATOM     14  C   UNL     1       2.186  14.895  21.547  0.00  0.00    +0.000 C 
ENDROOT
BRANCH   1  19
ATOM     15  F   UNL     1      -3.116   9.332  16.095  0.00  0.00    +0.000 F 
ATOM     16  C   UNL     1      -2.475  10.115  16.974  0.00  0.00    +0.000 A 
ATOM     17  C   UNL     1      -3.083  11.274  17.425  0.00  0.00    +0.000 A 
ATOM     18  C   UNL     1      -2.419  12.071  18.360  0.00  0.00    +0.000 A 
ATOM     19  C   UNL     1      -1.152  11.710  18.874  0.00  0.00    +0.000 A 
ATOM     20  C   UNL     1      -0.567  10.524  18.416  0.00  0.00    +0.000 A 
ATOM     21  C   UNL     1      -1.220   9.739  17.449  0.00  0.00    +0.000 A 
ENDBRANCH   1  19
BRANCH   4  22
ATOM     22  C   UNL     1      -3.469  13.665  23.416  0.00  0.00    +0.000 A 
ATOM     23  C   UNL     1      -4.483  14.238  22.624  0.00  0.00    +0.000 A 
ATOM     24  C   UNL     1      -5.821  13.856  22.766  0.00  0.00    +0.000 A 
ATOM     25  C   UNL     1      -6.159  12.897  23.713  0.00  0.00    +0.000 A 
ATOM     26 CL   UNL     1      -7.793  12.376  23.854  0.00  0.00    +0.000 Cl
ATOM     27  C   UNL     1      -5.174  12.341  24.530  0.00  0.00    +0.000 A 
ATOM     28  C   UNL     1      -3.833  12.727  24.387  0.00  0.00    +0.000 A 
ENDBRANCH   4  22
TORSDOF 2
ENDMDL
MODEL 9
REMARK VINA RESULT:      -7.3      4.261      7.036
REMARK  Name = 
REMARK  2 active torsions:
REMARK  status: ('A' for Active; 'I' for Inactive)
REMARK    1  A    between atoms: C_5  and  C_6
REMARK    2  A    between atoms: C_9  and  C_10
REMARK                            x       y       z     vdW  Elec       q    Type
REMARK                         _______ _______ _______ _____ _____    ______ ____
ROOT
ATOM      1  C   UNL     1      -1.021  12.411  20.050  0.00  0.00    +0.000 A 
ATOM      2  N   UNL     1      -1.855  12.742  21.001  0.00  0.00    +0.000 NA
ATOM      3  C   UNL     1      -1.440  13.559  22.000  0.00  0.00    +0.000 A 
ATOM      4  C   UNL     1      -2.061  14.089  23.124  0.00  0.00    +0.000 A 
ATOM      5  C   UNL     1      -1.067  14.889  23.726  0.00  0.00    +0.000 A 
ATOM      6  N   UNL     1       0.077  14.893  23.062  0.00  0.00    +0.000 NA
ATOM      7  N   UNL     1      -0.148  14.084  21.990  0.00  0.00    +0.000 N 
ATOM      8  C   UNL     1       0.777  13.776  20.988  0.00  0.00    +0.000 A 
ATOM      9  C   UNL     1       0.467  12.879  19.968  0.00  0.00    +0.000 A 
ATOM     10  C   UNL     1       1.459  12.294  18.842  0.00  0.00    +0.000 C 
ATOM     11  C   UNL     1       2.641  13.066  17.983  0.00  0.00    +0.000 C 
ATOM     12  C   UNL     1       3.619  14.051  18.749  0.00  0.00    +0.000 C 
ATOM     13  C   UNL     1       2.786  14.265  19.930  0.00  0.00    +0.000 C 
ATOM     14  C   UNL     1       2.114  14.598  21.180  0.00  0.00    +0.000 C 
ENDROOT
BRANCH   1  19
ATOM     15  F   UNL     1      -2.878   9.378  15.662  0.00  0.00    +0.000 F 
ATOM     16  C   UNL     1      -2.502  10.068  16.747  0.00  0.00    +0.000 A 
ATOM     17  C   UNL     1      -1.342   9.711  17.414  0.00  0.00    +0.000 A 
ATOM     18  C   UNL     1      -0.943  10.452  18.529  0.00  0.00    +0.000 A 
ATOM     19  C   UNL     1      -1.683  11.570  18.979  0.00  0.00    +0.000 A 
ATOM     20  C   UNL     1      -2.841  11.921  18.276  0.00  0.00    +0.000 A 
ATOM     21  C   UNL     1      -3.261  11.156  17.175  0.00  0.00    +0.000 A 
ENDBRANCH   1  19
BRANCH   4  22
ATOM     22  C   UNL     1      -3.436  13.936  23.577  0.00  0.00    +0.000 A 
ATOM     23  C   UNL     1      -4.352  14.978  23.334  0.00  0.00    +0.000 A 
ATOM     24  C   UNL     1      -5.720  14.815  23.575  0.00  0.00    +0.000 A 
ATOM     25  C   UNL     1      -6.186  13.604  24.072  0.00  0.00    +0.000 A 
ATOM     26 CL   UNL     1      -7.874  13.374  24.316  0.00  0.00    +0.000 Cl
ATOM     27  C   UNL     1      -5.290  12.571  24.352  0.00  0.00    +0.000 A 
ATOM     28  C   UNL     1      -3.918  12.736  24.110  0.00  0.00    +0.000 A 
ENDBRANCH   4  22
TORSDOF 2
ENDMDL
