MODEL 1
REMARK VINA RESULT:      -8.2      0.000      0.000
REMARK  Name = 
REMARK  2 active torsions:
REMARK  status: ('A' for Active; 'I' for Inactive)
REMARK    1  A    between atoms: N_6  and  C_7
REMARK    2  A    between atoms: C_7  and  C_8
REMARK                            x       y       z     vdW  Elec       q    Type
REMARK                         _______ _______ _______ _____ _____    ______ ____
ROOT
ATOM      1  O   UNL     1       4.261   2.190  20.439  0.00  0.00    +0.000 OA
ATOM      2  S   UNL     1       3.438   2.584  19.320  0.00  0.00    +0.000 S 
ATOM      3  O   UNL     1       2.241   1.869  18.933  0.00  0.00    +0.000 OA
ATOM      4  N   UNL     1       4.420   2.718  17.980  0.00  0.00    +0.000 N 
ATOM      5  C   UNL     1       4.878   3.944  17.489  0.00  0.00    +0.000 C 
ATOM      6  N   UNL     1       5.857   3.735  16.572  0.00  0.00    +0.000 N 
ATOM      7  N   UNL     1       4.478   5.134  17.835  0.00  0.00    +0.000 NA
ATOM      8  C   UNL     1       3.502   5.267  18.834  0.00  0.00    +0.000 A 
ATOM      9  C   UNL     1       2.942   6.510  19.220  0.00  0.00    +0.000 A 
ATOM     10  C   UNL     1       2.053   6.329  20.255  0.00  0.00    +0.000 A 
ATOM     11 CL   UNL     1       1.148   7.548  21.058  0.00  0.00    +0.000 Cl
ATOM     12  S   UNL     1       1.885   4.706  20.738  0.00  0.00    +0.000 S 
ATOM     13  C   UNL     1       2.999   4.231  19.562  0.00  0.00    +0.000 A 
ATOM     14  H   UNL     1       4.968   1.883  17.807  0.00  0.00    +0.000 HD
ATOM     15  H   UNL     1       5.778   2.907  15.997  0.00  0.00    +0.000 HD
ENDROOT
BRANCH   6  16
ATOM     16  C   UNL     1       6.644   4.800  15.992  0.00  0.00    +0.000 C 
BRANCH  16  17
ATOM     17  C   UNL     1       6.752   4.573  14.502  0.00  0.00    +0.000 A 
ATOM     18  C   UNL     1       7.679   5.279  13.722  0.00  0.00    +0.000 A 
ATOM     19  C   UNL     1       7.765   5.054  12.346  0.00  0.00    +0.000 A 
ATOM     20  C   UNL     1       6.922   4.128  11.733  0.00  0.00    +0.000 A 
ATOM     21  C   UNL     1       5.985   3.432  12.492  0.00  0.00    +0.000 A 
ATOM     22  C   UNL     1       5.897   3.655  13.868  0.00  0.00    +0.000 A 
ENDBRANCH  16  17
ENDBRANCH   6  16
TORSDOF 2
ENDMDL
MODEL 2
REMARK VINA RESULT:      -8.2      0.039      1.080
REMARK  Name = 
REMARK  2 active torsions:
REMARK  status: ('A' for Active; 'I' for Inactive)
REMARK    1  A    between atoms: N_6  and  C_7
REMARK    2  A    between atoms: C_7  and  C_8
REMARK                            x       y       z     vdW  Elec       q    Type
REMARK                         _______ _______ _______ _____ _____    ______ ____
ROOT
ATOM      1  O   UNL     1       4.296   2.230  20.454  0.00  0.00    +0.000 OA
ATOM      2  S   UNL     1       3.466   2.613  19.336  0.00  0.00    +0.000 S 
ATOM      3  O   UNL     1       2.270   1.891  18.960  0.00  0.00    +0.000 OA
ATOM      4  N   UNL     1       4.442   2.739  17.990  0.00  0.00    +0.000 N 
ATOM      5  C   UNL     1       4.893   3.963  17.488  0.00  0.00    +0.000 C 
ATOM      6  N   UNL     1       5.868   3.750  16.567  0.00  0.00    +0.000 N 
ATOM      7  N   UNL     1       4.492   5.155  17.826  0.00  0.00    +0.000 NA
ATOM      8  C   UNL     1       3.520   5.292  18.828  0.00  0.00    +0.000 A 
ATOM      9  C   UNL     1       2.958   6.536  19.208  0.00  0.00    +0.000 A 
ATOM     10  C   UNL     1       2.074   6.360  20.248  0.00  0.00    +0.000 A 
ATOM     11 CL   UNL     1       1.169   7.583  21.047  0.00  0.00    +0.000 Cl
ATOM     12  S   UNL     1       1.914   4.741  20.745  0.00  0.00    +0.000 S 
ATOM     13  C   UNL     1       3.023   4.260  19.567  0.00  0.00    +0.000 A 
ATOM     14  H   UNL     1       4.992   1.905  17.821  0.00  0.00    +0.000 HD
ATOM     15  H   UNL     1       5.789   2.917  15.999  0.00  0.00    +0.000 HD
ENDROOT
BRANCH   6  16
ATOM     16  C   UNL     1       6.649   4.813  15.975  0.00  0.00    +0.000 C 
BRANCH  16  17
ATOM     17  C   UNL     1       6.744   4.579  14.485  0.00  0.00    +0.000 A 
ATOM     18  C   UNL     1       5.933   3.632  13.844  0.00  0.00    +0.000 A 
ATOM     19  C   UNL     1       6.034   3.430  12.465  0.00  0.00    +0.000 A 
ATOM     20  C   UNL     1       6.949   4.166  11.714  0.00  0.00    +0.000 A 
ATOM     21  C   UNL     1       7.772   5.098  12.341  0.00  0.00    +0.000 A 
ATOM     22  C   UNL     1       7.673   5.302  13.719  0.00  0.00    +0.000 A 
ENDBRANCH  16  17
ENDBRANCH   6  16
TORSDOF 2
ENDMDL
MODEL 3
REMARK VINA RESULT:      -7.6      1.686      3.007
REMARK  Name = 
REMARK  2 active torsions:
REMARK  status: ('A' for Active; 'I' for Inactive)
REMARK    1  A    between atoms: N_6  and  C_7
REMARK    2  A    between atoms: C_7  and  C_8
REMARK                            x       y       z     vdW  Elec       q    Type
REMARK                         _______ _______ _______ _____ _____    ______ ____
ROOT
ATOM      1  O   UNL     1       4.091   2.160  20.480  0.00  0.00    +0.000 OA
ATOM      2  S   UNL     1       3.219   2.521  19.387  0.00  0.00    +0.000 S 
ATOM      3  O   UNL     1       1.978   1.832  19.109  0.00  0.00    +0.000 OA
ATOM      4  N   UNL     1       4.127   2.542  17.990  0.00  0.00    +0.000 N 
ATOM      5  C   UNL     1       4.598   3.720  17.403  0.00  0.00    +0.000 C 
ATOM      6  N   UNL     1       5.515   3.423  16.447  0.00  0.00    +0.000 N 
ATOM      7  N   UNL     1       4.261   4.942  17.700  0.00  0.00    +0.000 NA
ATOM      8  C   UNL     1       3.349   5.168  18.742  0.00  0.00    +0.000 A 
ATOM      9  C   UNL     1       2.856   6.452  19.085  0.00  0.00    +0.000 A 
ATOM     10  C   UNL     1       2.021   6.363  20.176  0.00  0.00    +0.000 A 
ATOM     11 CL   UNL     1       1.207   7.660  20.955  0.00  0.00    +0.000 Cl
ATOM     12  S   UNL     1       1.825   4.778  20.762  0.00  0.00    +0.000 S 
ATOM     13  C   UNL     1       2.852   4.195  19.556  0.00  0.00    +0.000 A 
ATOM     14  H   UNL     1       4.635   1.679  17.836  0.00  0.00    +0.000 HD
ATOM     15  H   UNL     1       5.375   2.567  15.927  0.00  0.00    +0.000 HD
ENDROOT
BRANCH   6  16
ATOM     16  C   UNL     1       6.304   4.422  15.763  0.00  0.00    +0.000 C 
BRANCH  16  17
ATOM     17  C   UNL     1       6.950   5.322  16.791  0.00  0.00    +0.000 A 
ATOM     18  C   UNL     1       6.983   6.714  16.623  0.00  0.00    +0.000 A 
ATOM     19  C   UNL     1       7.584   7.530  17.585  0.00  0.00    +0.000 A 
ATOM     20  C   UNL     1       8.164   6.966  18.719  0.00  0.00    +0.000 A 
ATOM     21  C   UNL     1       8.153   5.584  18.891  0.00  0.00    +0.000 A 
ATOM     22  C   UNL     1       7.553   4.766  17.931  0.00  0.00    +0.000 A 
ENDBRANCH  16  17
ENDBRANCH   6  16
TORSDOF 2
ENDMDL
MODEL 4
REMARK VINA RESULT:      -7.6      1.689      3.098
REMARK  Name = 
REMARK  2 active torsions:
REMARK  status: ('A' for Active; 'I' for Inactive)
REMARK    1  A    between atoms: N_6  and  C_7
REMARK    2  A    between atoms: C_7  and  C_8
REMARK                            x       y       z     vdW  Elec       q    Type
REMARK                         _______ _______ _______ _____ _____    ______ ____
ROOT
ATOM      1  O   UNL     1       4.056   2.138  20.442  0.00  0.00    +0.000 OA
ATOM      2  S   UNL     1       3.194   2.517  19.347  0.00  0.00    +0.000 S 
ATOM      3  O   UNL     1       1.953   1.836  19.051  0.00  0.00    +0.000 OA
ATOM      4  N   UNL     1       4.113   2.552  17.956  0.00  0.00    +0.000 N 
ATOM      5  C   UNL     1       4.593   3.736  17.389  0.00  0.00    +0.000 C 
ATOM      6  N   UNL     1       5.516   3.448  16.436  0.00  0.00    +0.000 N 
ATOM      7  N   UNL     1       4.258   4.956  17.700  0.00  0.00    +0.000 NA
ATOM      8  C   UNL     1       3.339   5.171  18.737  0.00  0.00    +0.000 A 
ATOM      9  C   UNL     1       2.848   6.452  19.094  0.00  0.00    +0.000 A 
ATOM     10  C   UNL     1       2.005   6.353  20.177  0.00  0.00    +0.000 A 
ATOM     11 CL   UNL     1       1.190   7.642  20.967  0.00  0.00    +0.000 Cl
ATOM     12  S   UNL     1       1.798   4.761  20.741  0.00  0.00    +0.000 S 
ATOM     13  C   UNL     1       2.832   4.190  19.535  0.00  0.00    +0.000 A 
ATOM     14  H   UNL     1       4.619   1.689  17.795  0.00  0.00    +0.000 HD
ATOM     15  H   UNL     1       5.376   2.599  15.904  0.00  0.00    +0.000 HD
ENDROOT
BRANCH   6  16
ATOM     16  C   UNL     1       6.314   4.453  15.771  0.00  0.00    +0.000 C 
BRANCH  16  17
ATOM     17  C   UNL     1       6.973   5.324  16.816  0.00  0.00    +0.000 A 
ATOM     18  C   UNL     1       7.554   4.770  17.965  0.00  0.00    +0.000 A 
ATOM     19  C   UNL     1       8.160   5.591  18.919  0.00  0.00    +0.000 A 
ATOM     20  C   UNL     1       8.184   6.973  18.740  0.00  0.00    +0.000 A 
ATOM     21  C   UNL     1       7.595   7.538  17.612  0.00  0.00    +0.000 A 
ATOM     22  C   UNL     1       6.990   6.720  16.657  0.00  0.00    +0.000 A 
ENDBRANCH  16  17
ENDBRANCH   6  16
TORSDOF 2
ENDMDL
MODEL 5
REMARK VINA RESULT:      -7.5      3.880      7.005
REMARK  Name = 
REMARK  2 active torsions:
REMARK  status: ('A' for Active; 'I' for Inactive)
REMARK    1  A    between atoms: N_6  and  C_7
REMARK    2  A    between atoms: C_7  and  C_8
REMARK                            x       y       z     vdW  Elec       q    Type
REMARK                         _______ _______ _______ _____ _____    ______ ____
ROOT
ATOM      1  O   UNL     1       7.708   4.811  18.258  0.00  0.00    +0.000 OA
ATOM      2  S   UNL     1       7.148   5.884  17.470  0.00  0.00    +0.000 S 
ATOM      3  O   UNL     1       7.912   7.041  17.060  0.00  0.00    +0.000 OA
ATOM      4  N   UNL     1       5.767   6.418  18.237  0.00  0.00    +0.000 N 
ATOM      5  C   UNL     1       4.480   6.057  17.828  0.00  0.00    +0.000 C 
ATOM      6  N   UNL     1       3.579   6.413  18.779  0.00  0.00    +0.000 N 
ATOM      7  N   UNL     1       4.139   5.452  16.725  0.00  0.00    +0.000 NA
ATOM      8  C   UNL     1       5.137   5.065  15.819  0.00  0.00    +0.000 A 
ATOM      9  C   UNL     1       4.864   4.480  14.557  0.00  0.00    +0.000 A 
ATOM     10  C   UNL     1       6.040   4.161  13.917  0.00  0.00    +0.000 A 
ATOM     11 CL   UNL     1       6.204   3.420  12.376  0.00  0.00    +0.000 Cl
ATOM     12  S   UNL     1       7.435   4.569  14.803  0.00  0.00    +0.000 S 
ATOM     13  C   UNL     1       6.475   5.180  16.050  0.00  0.00    +0.000 A 
ATOM     14  H   UNL     1       5.924   6.664  19.207  0.00  0.00    +0.000 HD
ATOM     15  H   UNL     1       3.774   7.255  19.303  0.00  0.00    +0.000 HD
ENDROOT
BRANCH   6  16
ATOM     16  C   UNL     1       2.183   6.041  18.731  0.00  0.00    +0.000 C 
BRANCH  16  17
ATOM     17  C   UNL     1       1.982   4.789  19.553  0.00  0.00    +0.000 A 
ATOM     18  C   UNL     1       2.327   4.746  20.912  0.00  0.00    +0.000 A 
ATOM     19  C   UNL     1       2.133   3.580  21.655  0.00  0.00    +0.000 A 
ATOM     20  C   UNL     1       1.601   2.442  21.050  0.00  0.00    +0.000 A 
ATOM     21  C   UNL     1       1.270   2.466  19.698  0.00  0.00    +0.000 A 
ATOM     22  C   UNL     1       1.462   3.630  18.952  0.00  0.00    +0.000 A 
ENDBRANCH  16  17
ENDBRANCH   6  16
TORSDOF 2
ENDMDL
MODEL 6
REMARK VINA RESULT:      -7.5      3.904      7.073
REMARK  Name = 
REMARK  2 active torsions:
REMARK  status: ('A' for Active; 'I' for Inactive)
REMARK    1  A    between atoms: N_6  and  C_7
REMARK    2  A    between atoms: C_7  and  C_8
REMARK                            x       y       z     vdW  Elec       q    Type
REMARK                         _______ _______ _______ _____ _____    ______ ____
ROOT
ATOM      1  O   UNL     1       7.730   4.855  18.238  0.00  0.00    +0.000 OA
ATOM      2  S   UNL     1       7.151   5.917  17.449  0.00  0.00    +0.000 S 
ATOM      3  O   UNL     1       7.891   7.094  17.050  0.00  0.00    +0.000 OA
ATOM      4  N   UNL     1       5.750   6.414  18.203  0.00  0.00    +0.000 N 
ATOM      5  C   UNL     1       4.476   6.023  17.779  0.00  0.00    +0.000 C 
ATOM      6  N   UNL     1       3.557   6.354  18.722  0.00  0.00    +0.000 N 
ATOM      7  N   UNL     1       4.162   5.415  16.672  0.00  0.00    +0.000 NA
ATOM      8  C   UNL     1       5.178   5.055  15.774  0.00  0.00    +0.000 A 
ATOM      9  C   UNL     1       4.933   4.468  14.508  0.00  0.00    +0.000 A 
ATOM     10  C   UNL     1       6.123   4.181  13.879  0.00  0.00    +0.000 A 
ATOM     11 CL   UNL     1       6.320   3.449  12.337  0.00  0.00    +0.000 Cl
ATOM     12  S   UNL     1       7.498   4.619  14.781  0.00  0.00    +0.000 S 
ATOM     13  C   UNL     1       6.510   5.202  16.020  0.00  0.00    +0.000 A 
ATOM     14  H   UNL     1       5.891   6.661  19.175  0.00  0.00    +0.000 HD
ATOM     15  H   UNL     1       3.726   7.199  19.251  0.00  0.00    +0.000 HD
ENDROOT
BRANCH   6  16
ATOM     16  C   UNL     1       2.171   5.948  18.659  0.00  0.00    +0.000 C 
BRANCH  16  17
ATOM     17  C   UNL     1       1.984   4.712  19.508  0.00  0.00    +0.000 A 
ATOM     18  C   UNL     1       1.480   3.523  18.962  0.00  0.00    +0.000 A 
ATOM     19  C   UNL     1       1.315   2.390  19.763  0.00  0.00    +0.000 A 
ATOM     20  C   UNL     1       1.645   2.434  21.117  0.00  0.00    +0.000 A 
ATOM     21  C   UNL     1       2.132   3.613  21.675  0.00  0.00    +0.000 A 
ATOM     22  C   UNL     1       2.298   4.746  20.877  0.00  0.00    +0.000 A 
ENDBRANCH  16  17
ENDBRANCH   6  16
TORSDOF 2
ENDMDL
MODEL 7
REMARK VINA RESULT:      -7.5      3.780      8.068
REMARK  Name = 
REMARK  2 active torsions:
REMARK  status: ('A' for Active; 'I' for Inactive)
REMARK    1  A    between atoms: N_6  and  C_7
REMARK    2  A    between atoms: C_7  and  C_8
REMARK                            x       y       z     vdW  Elec       q    Type
REMARK                         _______ _______ _______ _____ _____    ______ ____
ROOT
ATOM      1  O   UNL     1       0.856   3.095  19.631  0.00  0.00    +0.000 OA
ATOM      2  S   UNL     1       2.101   3.604  20.157  0.00  0.00    +0.000 S 
ATOM      3  O   UNL     1       2.930   2.857  21.077  0.00  0.00    +0.000 OA
ATOM      4  N   UNL     1       1.803   5.103  20.825  0.00  0.00    +0.000 N 
ATOM      5  C   UNL     1       2.114   6.302  20.177  0.00  0.00    +0.000 C 
ATOM      6  N   UNL     1       1.526   7.340  20.825  0.00  0.00    +0.000 N 
ATOM      7  N   UNL     1       2.834   6.458  19.103  0.00  0.00    +0.000 NA
ATOM      8  C   UNL     1       3.359   5.328  18.459  0.00  0.00    +0.000 A 
ATOM      9  C   UNL     1       4.222   5.398  17.337  0.00  0.00    +0.000 A 
ATOM     10  C   UNL     1       4.528   4.131  16.894  0.00  0.00    +0.000 A 
ATOM     11 CL   UNL     1       5.524   3.723  15.555  0.00  0.00    +0.000 Cl
ATOM     12  S   UNL     1       3.809   2.892  17.812  0.00  0.00    +0.000 S 
ATOM     13  C   UNL     1       3.085   4.042  18.814  0.00  0.00    +0.000 A 
ATOM     14  H   UNL     1       1.050   5.091  21.502  0.00  0.00    +0.000 HD
ATOM     15  H   UNL     1       1.439   7.263  21.829  0.00  0.00    +0.000 HD
ENDROOT
BRANCH   6  16
ATOM     16  C   UNL     1       1.524   8.694  20.320  0.00  0.00    +0.000 C 
BRANCH  16  17
ATOM     17  C   UNL     1       0.630   9.542  21.196  0.00  0.00    +0.000 A 
ATOM     18  C   UNL     1       0.229  10.826  20.801  0.00  0.00    +0.000 A 
ATOM     19  C   UNL     1      -0.599  11.593  21.624  0.00  0.00    +0.000 A 
ATOM     20  C   UNL     1      -1.028  11.091  22.852  0.00  0.00    +0.000 A 
ATOM     21  C   UNL     1      -0.623   9.824  23.264  0.00  0.00    +0.000 A 
ATOM     22  C   UNL     1       0.204   9.055  22.443  0.00  0.00    +0.000 A 
ENDBRANCH  16  17
ENDBRANCH   6  16
TORSDOF 2
ENDMDL
MODEL 8
REMARK VINA RESULT:      -7.4      3.787      8.111
REMARK  Name = 
REMARK  2 active torsions:
REMARK  status: ('A' for Active; 'I' for Inactive)
REMARK    1  A    between atoms: N_6  and  C_7
REMARK    2  A    between atoms: C_7  and  C_8
REMARK                            x       y       z     vdW  Elec       q    Type
REMARK                         _______ _______ _______ _____ _____    ______ ____
ROOT
ATOM      1  O   UNL     1       0.939   3.125  19.545  0.00  0.00    +0.000 OA
ATOM      2  S   UNL     1       2.182   3.650  20.061  0.00  0.00    +0.000 S 
ATOM      3  O   UNL     1       3.038   2.906  20.957  0.00  0.00    +0.000 OA
ATOM      4  N   UNL     1       1.866   5.133  20.754  0.00  0.00    +0.000 N 
ATOM      5  C   UNL     1       2.145   6.347  20.119  0.00  0.00    +0.000 C 
ATOM      6  N   UNL     1       1.548   7.365  20.790  0.00  0.00    +0.000 N 
ATOM      7  N   UNL     1       2.846   6.532  19.037  0.00  0.00    +0.000 NA
ATOM      8  C   UNL     1       3.383   5.421  18.369  0.00  0.00    +0.000 A 
ATOM      9  C   UNL     1       4.228   5.522  17.236  0.00  0.00    +0.000 A 
ATOM     10  C   UNL     1       4.551   4.268  16.771  0.00  0.00    +0.000 A 
ATOM     11 CL   UNL     1       5.534   3.897  15.412  0.00  0.00    +0.000 Cl
ATOM     12  S   UNL     1       3.868   3.002  17.681  0.00  0.00    +0.000 S 
ATOM     13  C   UNL     1       3.138   4.124  18.710  0.00  0.00    +0.000 A 
ATOM     14  H   UNL     1       1.123   5.097  21.442  0.00  0.00    +0.000 HD
ATOM     15  H   UNL     1       1.477   7.272  21.795  0.00  0.00    +0.000 HD
ENDROOT
BRANCH   6  16
ATOM     16  C   UNL     1       1.513   8.726  20.305  0.00  0.00    +0.000 C 
BRANCH  16  17
ATOM     17  C   UNL     1       0.618   9.544  21.206  0.00  0.00    +0.000 A 
ATOM     18  C   UNL     1       0.254   9.086  22.481  0.00  0.00    +0.000 A 
ATOM     19  C   UNL     1      -0.574   9.858  23.300  0.00  0.00    +0.000 A 
ATOM     20  C   UNL     1      -1.054  11.088  22.854  0.00  0.00    +0.000 A 
ATOM     21  C   UNL     1      -0.714  11.546  21.583  0.00  0.00    +0.000 A 
ATOM     22  C   UNL     1       0.114  10.778  20.763  0.00  0.00    +0.000 A 
ENDBRANCH  16  17
ENDBRANCH   6  16
TORSDOF 2
ENDMDL
MODEL 9
REMARK VINA RESULT:      -7.2      5.396      6.413
REMARK  Name = 
REMARK  2 active torsions:
REMARK  status: ('A' for Active; 'I' for Inactive)
REMARK    1  A    between atoms: N_6  and  C_7
REMARK    2  A    between atoms: C_7  and  C_8
REMARK                            x       y       z     vdW  Elec       q    Type
REMARK                         _______ _______ _______ _____ _____    ______ ____
ROOT
ATOM      1  O   UNL     1       1.807   9.624  22.896  0.00  0.00    +0.000 OA
ATOM      2  S   UNL     1       0.793   9.033  22.055  0.00  0.00    +0.000 S 
ATOM      3  O   UNL     1      -0.552   8.765  22.514  0.00  0.00    +0.000 OA
ATOM      4  N   UNL     1       1.413   7.625  21.412  0.00  0.00    +0.000 N 
ATOM      5  C   UNL     1       1.903   7.534  20.106  0.00  0.00    +0.000 C 
ATOM      6  N   UNL     1       2.577   6.366  19.949  0.00  0.00    +0.000 N 
ATOM      7  N   UNL     1       1.779   8.411  19.151  0.00  0.00    +0.000 NA
ATOM      8  C   UNL     1       1.116   9.619  19.411  0.00  0.00    +0.000 A 
ATOM      9  C   UNL     1       0.856  10.598  18.419  0.00  0.00    +0.000 A 
ATOM     10  C   UNL     1       0.241  11.693  18.983  0.00  0.00    +0.000 A 
ATOM     11 CL   UNL     1      -0.247  13.128  18.174  0.00  0.00    +0.000 Cl
ATOM     12  S   UNL     1      -0.030  11.541  20.656  0.00  0.00    +0.000 S 
ATOM     13  C   UNL     1       0.670  10.005  20.639  0.00  0.00    +0.000 A 
ATOM     14  H   UNL     1       1.774   6.995  22.118  0.00  0.00    +0.000 HD
ATOM     15  H   UNL     1       2.238   5.567  20.467  0.00  0.00    +0.000 HD
ENDROOT
BRANCH   6  16
ATOM     16  C   UNL     1       3.336   6.040  18.763  0.00  0.00    +0.000 C 
BRANCH  16  17
ATOM     17  C   UNL     1       3.341   4.539  18.583  0.00  0.00    +0.000 A 
ATOM     18  C   UNL     1       2.546   3.920  17.608  0.00  0.00    +0.000 A 
ATOM     19  C   UNL     1       2.566   2.531  17.456  0.00  0.00    +0.000 A 
ATOM     20  C   UNL     1       3.371   1.746  18.280  0.00  0.00    +0.000 A 
ATOM     21  C   UNL     1       4.152   2.348  19.264  0.00  0.00    +0.000 A 
ATOM     22  C   UNL     1       4.136   3.735  19.417  0.00  0.00    +0.000 A 
ENDBRANCH  16  17
ENDBRANCH   6  16
TORSDOF 2
ENDMDL
