MODEL 1
REMARK VINA RESULT:      -8.3      0.000      0.000
REMARK  Name = 
REMARK  10 active torsions:
REMARK  status: ('A' for Active; 'I' for Inactive)
REMARK    1  A    between atoms: C_2  and  O_3
REMARK    2  A    between atoms: C_2  and  C_4
REMARK    3  A    between atoms: C_6  and  O_7
REMARK    4  A    between atoms: O_7  and  C_8
REMARK    5  A    between atoms: C_10  and  O_11
REMARK    6  A    between atoms: C_15  and  C_16
REMARK    7  A    between atoms: C_19  and  O_20
REMARK    8  A    between atoms: C_27  and  O_28
REMARK    9  A    between atoms: C_29  and  O_30
REMARK   10  A    between atoms: C_31  and  O_32
REMARK                            x       y       z     vdW  Elec       q    Type
REMARK                         _______ _______ _______ _____ _____    ______ ____
ROOT
ATOM      1  C   UNL     1       1.850   8.331  18.767  0.00  0.00    +0.000 A 
ATOM      2  C   UNL     1       1.963   7.903  20.090  0.00  0.00    +0.000 A 
ATOM      3  C   UNL     1       1.355   8.628  21.115  0.00  0.00    +0.000 A 
ATOM      4  C   UNL     1       0.602   9.770  20.829  0.00  0.00    +0.000 A 
ATOM      5  C   UNL     1      -0.008  10.609  21.888  0.00  0.00    +0.000 A 
ATOM      6  O   UNL     1       0.199  10.432  23.082  0.00  0.00    +0.000 OA
ATOM      7  C   UNL     1      -0.879  11.717  21.424  0.00  0.00    +0.000 A 
ATOM      8  C   UNL     1      -0.973  11.934  20.108  0.00  0.00    +0.000 A 
ATOM      9  O   UNL     1      -0.328  11.235  19.119  0.00  0.00    +0.000 OA
ATOM     10  C   UNL     1       0.433  10.154  19.495  0.00  0.00    +0.000 A 
ATOM     11  C   UNL     1       1.057   9.439  18.467  0.00  0.00    +0.000 A 
ENDROOT
BRANCH   7  12
ATOM     12  C   UNL     1      -1.616  12.559  22.374  0.00  0.00    +0.000 A 
ATOM     13  C   UNL     1      -0.982  13.649  22.986  0.00  0.00    +0.000 A 
ATOM     14  C   UNL     1      -1.667  14.432  23.918  0.00  0.00    +0.000 A 
ATOM     15  C   UNL     1      -2.987  14.121  24.231  0.00  0.00    +0.000 A 
ATOM     16  C   UNL     1      -3.637  13.060  23.613  0.00  0.00    +0.000 A 
ATOM     17  C   UNL     1      -2.952  12.276  22.684  0.00  0.00    +0.000 A 
BRANCH  15  18
ATOM     18  O   UNL     1      -3.685  14.843  25.154  0.00  0.00    +0.000 OA
ATOM     19  H   UNL     1      -3.448  15.781  25.056  0.00  0.00    +0.000 HD
ENDBRANCH  15  18
ENDBRANCH   7  12
BRANCH   3  20
ATOM     20  O   UNL     1       1.499   8.179  22.396  0.00  0.00    +0.000 OA
ATOM     21  H   UNL     1       2.112   8.740  22.896  0.00  0.00    +0.000 HD
ENDBRANCH   3  20
BRANCH   1  22
ATOM     22  O   UNL     1       2.462   7.718  17.706  0.00  0.00    +0.000 OA
BRANCH  22  25
ATOM     23  C   UNL     1       5.818   6.288  17.670  0.00  0.00    +0.000 C 
ATOM     24  O   UNL     1       4.715   7.156  17.368  0.00  0.00    +0.000 OA
ATOM     25  C   UNL     1       3.508   6.790  18.046  0.00  0.00    +0.000 C 
ATOM     26  C   UNL     1       3.056   5.368  17.653  0.00  0.00    +0.000 C 
ATOM     27  C   UNL     1       4.223   4.379  17.823  0.00  0.00    +0.000 C 
ATOM     28  C   UNL     1       5.517   4.880  17.152  0.00  0.00    +0.000 C 
BRANCH  23  30
ATOM     29  O   UNL     1       7.522   7.991  17.283  0.00  0.00    +0.000 OA
ATOM     30  C   UNL     1       7.058   6.895  17.015  0.00  0.00    +0.000 C 
BRANCH  30  31
ATOM     31  O   UNL     1       7.565   6.107  16.031  0.00  0.00    +0.000 OA
ATOM     32  H   UNL     1       6.871   5.480  15.723  0.00  0.00    +0.000 HD
ENDBRANCH  30  31
ENDBRANCH  23  30
BRANCH  26  33
ATOM     33  O   UNL     1       1.935   4.972  18.462  0.00  0.00    +0.000 OA
ATOM     34  H   UNL     1       1.125   4.981  17.923  0.00  0.00    +0.000 HD
ENDBRANCH  26  33
BRANCH  27  35
ATOM     35  O   UNL     1       3.844   3.087  17.339  0.00  0.00    +0.000 OA
ATOM     36  H   UNL     1       4.157   2.411  17.967  0.00  0.00    +0.000 HD
ENDBRANCH  27  35
BRANCH  28  37
ATOM     37  O   UNL     1       6.569   3.953  17.405  0.00  0.00    +0.000 OA
ATOM     38  H   UNL     1       6.345   3.075  17.053  0.00  0.00    +0.000 HD
ENDBRANCH  28  37
ENDBRANCH  22  25
ENDBRANCH   1  22
TORSDOF 10
ENDMDL
MODEL 2
REMARK VINA RESULT:      -8.3      1.142      2.145
REMARK  Name = 
REMARK  10 active torsions:
REMARK  status: ('A' for Active; 'I' for Inactive)
REMARK    1  A    between atoms: C_2  and  O_3
REMARK    2  A    between atoms: C_2  and  C_4
REMARK    3  A    between atoms: C_6  and  O_7
REMARK    4  A    between atoms: O_7  and  C_8
REMARK    5  A    between atoms: C_10  and  O_11
REMARK    6  A    between atoms: C_15  and  C_16
REMARK    7  A    between atoms: C_19  and  O_20
REMARK    8  A    between atoms: C_27  and  O_28
REMARK    9  A    between atoms: C_29  and  O_30
REMARK   10  A    between atoms: C_31  and  O_32
REMARK                            x       y       z     vdW  Elec       q    Type
REMARK                         _______ _______ _______ _____ _____    ______ ____
ROOT
ATOM      1  C   UNL     1       2.025   7.732  18.619  0.00  0.00    +0.000 A 
ATOM      2  C   UNL     1       2.080   8.953  17.949  0.00  0.00    +0.000 A 
ATOM      3  C   UNL     1       1.489  10.086  18.508  0.00  0.00    +0.000 A 
ATOM      4  C   UNL     1       0.862  10.021  19.755  0.00  0.00    +0.000 A 
ATOM      5  C   UNL     1       0.164  11.180  20.359  0.00  0.00    +0.000 A 
ATOM      6  O   UNL     1      -0.015  12.235  19.765  0.00  0.00    +0.000 OA
ATOM      7  C   UNL     1      -0.347  10.990  21.740  0.00  0.00    +0.000 A 
ATOM      8  C   UNL     1      -0.226   9.779  22.294  0.00  0.00    +0.000 A 
ATOM      9  O   UNL     1       0.320   8.665  21.705  0.00  0.00    +0.000 OA
ATOM     10  C   UNL     1       0.871   8.810  20.455  0.00  0.00    +0.000 A 
ATOM     11  C   UNL     1       1.448   7.668  19.889  0.00  0.00    +0.000 A 
ENDROOT
BRANCH   7  12
ATOM     12  C   UNL     1      -0.971  12.091  22.482  0.00  0.00    +0.000 A 
ATOM     13  C   UNL     1      -2.224  11.911  23.084  0.00  0.00    +0.000 A 
ATOM     14  C   UNL     1      -2.840  12.967  23.761  0.00  0.00    +0.000 A 
ATOM     15  C   UNL     1      -2.195  14.198  23.835  0.00  0.00    +0.000 A 
ATOM     16  C   UNL     1      -0.941  14.384  23.266  0.00  0.00    +0.000 A 
ATOM     17  C   UNL     1      -0.327  13.330  22.588  0.00  0.00    +0.000 A 
BRANCH  15  18
ATOM     18  O   UNL     1      -2.771  15.262  24.464  0.00  0.00    +0.000 OA
ATOM     19  H   UNL     1      -3.552  15.537  23.955  0.00  0.00    +0.000 HD
ENDBRANCH  15  18
ENDBRANCH   7  12
BRANCH   3  20
ATOM     20  O   UNL     1       1.558  11.260  17.814  0.00  0.00    +0.000 OA
ATOM     21  H   UNL     1       2.285  11.243  17.172  0.00  0.00    +0.000 HD
ENDBRANCH   3  20
BRANCH   1  22
ATOM     22  O   UNL     1       2.524   6.557  18.120  0.00  0.00    +0.000 OA
BRANCH  22  25
ATOM     23  C   UNL     1       6.159   6.262  18.054  0.00  0.00    +0.000 C 
ATOM     24  O   UNL     1       4.820   6.578  17.643  0.00  0.00    +0.000 OA
ATOM     25  C   UNL     1       3.829   6.187  18.599  0.00  0.00    +0.000 C 
ATOM     26  C   UNL     1       3.856   4.663  18.839  0.00  0.00    +0.000 C 
ATOM     27  C   UNL     1       5.289   4.206  19.163  0.00  0.00    +0.000 C 
ATOM     28  C   UNL     1       6.318   4.743  18.149  0.00  0.00    +0.000 C 
BRANCH  23  30
ATOM     29  O   UNL     1       7.479   8.042  17.034  0.00  0.00    +0.000 OA
ATOM     30  C   UNL     1       7.103   6.881  17.025  0.00  0.00    +0.000 C 
BRANCH  30  31
ATOM     31  O   UNL     1       7.435   6.013  16.035  0.00  0.00    +0.000 OA
ATOM     32  H   UNL     1       8.155   6.400  15.486  0.00  0.00    +0.000 HD
ENDBRANCH  30  31
ENDBRANCH  23  30
BRANCH  26  33
ATOM     33  O   UNL     1       2.960   4.322  19.911  0.00  0.00    +0.000 OA
ATOM     34  H   UNL     1       2.045   4.319  19.582  0.00  0.00    +0.000 HD
ENDBRANCH  26  33
BRANCH  27  35
ATOM     35  O   UNL     1       5.338   2.780  19.259  0.00  0.00    +0.000 OA
ATOM     36  H   UNL     1       4.800   2.397  18.542  0.00  0.00    +0.000 HD
ENDBRANCH  27  35
BRANCH  28  37
ATOM     37  O   UNL     1       7.626   4.340  18.546  0.00  0.00    +0.000 OA
ATOM     38  H   UNL     1       8.053   5.035  19.076  0.00  0.00    +0.000 HD
ENDBRANCH  28  37
ENDBRANCH  22  25
ENDBRANCH   1  22
TORSDOF 10
ENDMDL
MODEL 3
REMARK VINA RESULT:      -8.3      1.134      2.037
REMARK  Name = 
REMARK  10 active torsions:
REMARK  status: ('A' for Active; 'I' for Inactive)
REMARK    1  A    between atoms: C_2  and  O_3
REMARK    2  A    between atoms: C_2  and  C_4
REMARK    3  A    between atoms: C_6  and  O_7
REMARK    4  A    between atoms: O_7  and  C_8
REMARK    5  A    between atoms: C_10  and  O_11
REMARK    6  A    between atoms: C_15  and  C_16
REMARK    7  A    between atoms: C_19  and  O_20
REMARK    8  A    between atoms: C_27  and  O_28
REMARK    9  A    between atoms: C_29  and  O_30
REMARK   10  A    between atoms: C_31  and  O_32
REMARK                            x       y       z     vdW  Elec       q    Type
REMARK                         _______ _______ _______ _____ _____    ______ ____
ROOT
ATOM      1  C   UNL     1       2.019   7.838  18.577  0.00  0.00    +0.000 A 
ATOM      2  C   UNL     1       2.089   9.074  17.935  0.00  0.00    +0.000 A 
ATOM      3  C   UNL     1       1.484  10.195  18.506  0.00  0.00    +0.000 A 
ATOM      4  C   UNL     1       0.829  10.101  19.737  0.00  0.00    +0.000 A 
ATOM      5  C   UNL     1       0.117  11.246  20.350  0.00  0.00    +0.000 A 
ATOM      6  O   UNL     1      -0.049  12.314  19.776  0.00  0.00    +0.000 OA
ATOM      7  C   UNL     1      -0.425  11.025  21.715  0.00  0.00    +0.000 A 
ATOM      8  C   UNL     1      -0.316   9.801  22.244  0.00  0.00    +0.000 A 
ATOM      9  O   UNL     1       0.244   8.701  21.643  0.00  0.00    +0.000 OA
ATOM     10  C   UNL     1       0.823   8.875  20.409  0.00  0.00    +0.000 A 
ATOM     11  C   UNL     1       1.414   7.745  19.831  0.00  0.00    +0.000 A 
ENDROOT
BRANCH   7  12
ATOM     12  C   UNL     1      -1.067  12.109  22.468  0.00  0.00    +0.000 A 
ATOM     13  C   UNL     1      -0.408  13.335  22.633  0.00  0.00    +0.000 A 
ATOM     14  C   UNL     1      -0.999  14.358  23.379  0.00  0.00    +0.000 A 
ATOM     15  C   UNL     1      -2.249  14.149  23.954  0.00  0.00    +0.000 A 
ATOM     16  C   UNL     1      -2.925  12.948  23.777  0.00  0.00    +0.000 A 
ATOM     17  C   UNL     1      -2.335  11.925  23.034  0.00  0.00    +0.000 A 
BRANCH  15  18
ATOM     18  O   UNL     1      -2.851  15.110  24.711  0.00  0.00    +0.000 OA
ATOM     19  H   UNL     1      -2.665  15.977  24.314  0.00  0.00    +0.000 HD
ENDBRANCH  15  18
ENDBRANCH   7  12
BRANCH   3  20
ATOM     20  O   UNL     1       1.569  11.383  17.840  0.00  0.00    +0.000 OA
ATOM     21  H   UNL     1       0.818  11.959  18.056  0.00  0.00    +0.000 HD
ENDBRANCH   3  20
BRANCH   1  22
ATOM     22  O   UNL     1       2.530   6.675  18.063  0.00  0.00    +0.000 OA
BRANCH  22  25
ATOM     23  C   UNL     1       6.157   6.297  17.976  0.00  0.00    +0.000 C 
ATOM     24  O   UNL     1       4.820   6.619  17.561  0.00  0.00    +0.000 OA
ATOM     25  C   UNL     1       3.832   6.304  18.548  0.00  0.00    +0.000 C 
ATOM     26  C   UNL     1       3.830   4.796  18.874  0.00  0.00    +0.000 C 
ATOM     27  C   UNL     1       5.257   4.327  19.209  0.00  0.00    +0.000 C 
ATOM     28  C   UNL     1       6.285   4.783  18.156  0.00  0.00    +0.000 C 
BRANCH  23  30
ATOM     29  O   UNL     1       7.523   6.190  15.958  0.00  0.00    +0.000 OA
ATOM     30  C   UNL     1       7.102   6.836  16.903  0.00  0.00    +0.000 C 
BRANCH  30  31
ATOM     31  O   UNL     1       7.494   8.113  17.149  0.00  0.00    +0.000 OA
ATOM     32  H   UNL     1       6.991   8.728  16.568  0.00  0.00    +0.000 HD
ENDBRANCH  30  31
ENDBRANCH  23  30
BRANCH  26  33
ATOM     33  O   UNL     1       2.940   4.536  19.974  0.00  0.00    +0.000 OA
ATOM     34  H   UNL     1       2.064   4.913  19.780  0.00  0.00    +0.000 HD
ENDBRANCH  26  33
BRANCH  27  35
ATOM     35  O   UNL     1       5.276   2.908  19.386  0.00  0.00    +0.000 OA
ATOM     36  H   UNL     1       5.133   2.480  18.523  0.00  0.00    +0.000 HD
ENDBRANCH  27  35
BRANCH  28  37
ATOM     37  O   UNL     1       7.588   4.375  18.562  0.00  0.00    +0.000 OA
ATOM     38  H   UNL     1       7.554   3.513  19.011  0.00  0.00    +0.000 HD
ENDBRANCH  28  37
ENDBRANCH  22  25
ENDBRANCH   1  22
TORSDOF 10
ENDMDL
MODEL 4
REMARK VINA RESULT:      -8.1      1.041      1.436
REMARK  Name = 
REMARK  10 active torsions:
REMARK  status: ('A' for Active; 'I' for Inactive)
REMARK    1  A    between atoms: C_2  and  O_3
REMARK    2  A    between atoms: C_2  and  C_4
REMARK    3  A    between atoms: C_6  and  O_7
REMARK    4  A    between atoms: O_7  and  C_8
REMARK    5  A    between atoms: C_10  and  O_11
REMARK    6  A    between atoms: C_15  and  C_16
REMARK    7  A    between atoms: C_19  and  O_20
REMARK    8  A    between atoms: C_27  and  O_28
REMARK    9  A    between atoms: C_29  and  O_30
REMARK   10  A    between atoms: C_31  and  O_32
REMARK                            x       y       z     vdW  Elec       q    Type
REMARK                         _______ _______ _______ _____ _____    ______ ____
ROOT
ATOM      1  C   UNL     1       2.295   7.883  18.404  0.00  0.00    +0.000 A 
ATOM      2  C   UNL     1       2.181   7.474  19.733  0.00  0.00    +0.000 A 
ATOM      3  C   UNL     1       1.548   8.295  20.666  0.00  0.00    +0.000 A 
ATOM      4  C   UNL     1       0.996   9.519  20.280  0.00  0.00    +0.000 A 
ATOM      5  C   UNL     1       0.372  10.454  21.247  0.00  0.00    +0.000 A 
ATOM      6  O   UNL     1       0.400  10.278  22.458  0.00  0.00    +0.000 OA
ATOM      7  C   UNL     1      -0.279  11.656  20.668  0.00  0.00    +0.000 A 
ATOM      8  C   UNL     1      -0.175  11.854  19.349  0.00  0.00    +0.000 A 
ATOM      9  O   UNL     1       0.493  11.054  18.456  0.00  0.00    +0.000 OA
ATOM     10  C   UNL     1       1.050   9.892  18.933  0.00  0.00    +0.000 A 
ATOM     11  C   UNL     1       1.700   9.078  17.998  0.00  0.00    +0.000 A 
ENDROOT
BRANCH   7  12
ATOM     12  C   UNL     1      -1.012  12.608  21.510  0.00  0.00    +0.000 A 
ATOM     13  C   UNL     1      -2.394  12.462  21.694  0.00  0.00    +0.000 A 
ATOM     14  C   UNL     1      -3.104  13.386  22.465  0.00  0.00    +0.000 A 
ATOM     15  C   UNL     1      -2.425  14.451  23.051  0.00  0.00    +0.000 A 
ATOM     16  C   UNL     1      -1.051  14.593  22.898  0.00  0.00    +0.000 A 
ATOM     17  C   UNL     1      -0.342  13.672  22.126  0.00  0.00    +0.000 A 
BRANCH  15  18
ATOM     18  O   UNL     1      -3.082  15.390  23.790  0.00  0.00    +0.000 OA
ATOM     19  H   UNL     1      -3.521  16.009  23.183  0.00  0.00    +0.000 HD
ENDBRANCH  15  18
ENDBRANCH   7  12
BRANCH   3  20
ATOM     20  O   UNL     1       1.467   7.861  21.958  0.00  0.00    +0.000 OA
ATOM     21  H   UNL     1       2.086   7.132  22.121  0.00  0.00    +0.000 HD
ENDBRANCH   3  20
BRANCH   1  22
ATOM     22  O   UNL     1       2.951   7.172  17.434  0.00  0.00    +0.000 OA
BRANCH  22  25
ATOM     23  C   UNL     1       6.414   6.269  18.139  0.00  0.00    +0.000 C 
ATOM     24  O   UNL     1       5.278   7.020  17.683  0.00  0.00    +0.000 OA
ATOM     25  C   UNL     1       4.034   6.346  17.898  0.00  0.00    +0.000 C 
ATOM     26  C   UNL     1       3.990   5.001  17.144  0.00  0.00    +0.000 C 
ATOM     27  C   UNL     1       5.244   4.172  17.473  0.00  0.00    +0.000 C 
ATOM     28  C   UNL     1       6.543   4.987  17.314  0.00  0.00    +0.000 C 
BRANCH  23  30
ATOM     29  O   UNL     1       7.836   7.936  17.066  0.00  0.00    +0.000 OA
ATOM     30  C   UNL     1       7.637   7.174  17.998  0.00  0.00    +0.000 C 
BRANCH  30  31
ATOM     31  O   UNL     1       8.536   6.994  19.000  0.00  0.00    +0.000 OA
ATOM     32  H   UNL     1       9.069   6.186  18.821  0.00  0.00    +0.000 HD
ENDBRANCH  30  31
ENDBRANCH  23  30
BRANCH  26  33
ATOM     33  O   UNL     1       2.798   4.280  17.501  0.00  0.00    +0.000 OA
ATOM     34  H   UNL     1       2.015   4.801  17.253  0.00  0.00    +0.000 HD
ENDBRANCH  26  33
BRANCH  27  35
ATOM     35  O   UNL     1       5.267   2.983  16.678  0.00  0.00    +0.000 OA
ATOM     36  H   UNL     1       6.143   2.564  16.762  0.00  0.00    +0.000 HD
ENDBRANCH  27  35
BRANCH  28  37
ATOM     37  O   UNL     1       7.654   4.182  17.699  0.00  0.00    +0.000 OA
ATOM     38  H   UNL     1       8.323   4.718  18.159  0.00  0.00    +0.000 HD
ENDBRANCH  28  37
ENDBRANCH  22  25
ENDBRANCH   1  22
TORSDOF 10
ENDMDL
MODEL 5
REMARK VINA RESULT:      -8.0      1.787     10.483
REMARK  Name = 
REMARK  10 active torsions:
REMARK  status: ('A' for Active; 'I' for Inactive)
REMARK    1  A    between atoms: C_2  and  O_3
REMARK    2  A    between atoms: C_2  and  C_4
REMARK    3  A    between atoms: C_6  and  O_7
REMARK    4  A    between atoms: O_7  and  C_8
REMARK    5  A    between atoms: C_10  and  O_11
REMARK    6  A    between atoms: C_15  and  C_16
REMARK    7  A    between atoms: C_19  and  O_20
REMARK    8  A    between atoms: C_27  and  O_28
REMARK    9  A    between atoms: C_29  and  O_30
REMARK   10  A    between atoms: C_31  and  O_32
REMARK                            x       y       z     vdW  Elec       q    Type
REMARK                         _______ _______ _______ _____ _____    ______ ____
ROOT
ATOM      1  C   UNL     1      -0.334  11.236  20.791  0.00  0.00    +0.000 A 
ATOM      2  C   UNL     1       0.163  10.430  21.815  0.00  0.00    +0.000 A 
ATOM      3  C   UNL     1       0.933   9.308  21.512  0.00  0.00    +0.000 A 
ATOM      4  C   UNL     1       1.241   8.993  20.186  0.00  0.00    +0.000 A 
ATOM      5  C   UNL     1       2.000   7.776  19.810  0.00  0.00    +0.000 A 
ATOM      6  O   UNL     1       2.306   6.906  20.614  0.00  0.00    +0.000 OA
ATOM      7  C   UNL     1       2.354   7.643  18.375  0.00  0.00    +0.000 A 
ATOM      8  C   UNL     1       1.891   8.566  17.524  0.00  0.00    +0.000 A 
ATOM      9  O   UNL     1       1.095   9.639  17.841  0.00  0.00    +0.000 OA
ATOM     10  C   UNL     1       0.800   9.844  19.168  0.00  0.00    +0.000 A 
ATOM     11  C   UNL     1       0.013  10.961  19.468  0.00  0.00    +0.000 A 
ENDROOT
BRANCH   7  12
ATOM     12  C   UNL     1       3.184   6.533  17.892  0.00  0.00    +0.000 A 
ATOM     13  C   UNL     1       4.477   6.781  17.408  0.00  0.00    +0.000 A 
ATOM     14  C   UNL     1       5.257   5.734  16.914  0.00  0.00    +0.000 A 
ATOM     15  C   UNL     1       4.741   4.441  16.910  0.00  0.00    +0.000 A 
ATOM     16  C   UNL     1       3.472   4.176  17.410  0.00  0.00    +0.000 A 
ATOM     17  C   UNL     1       2.691   5.223  17.902  0.00  0.00    +0.000 A 
BRANCH  15  18
ATOM     18  O   UNL     1       5.459   3.393  16.413  0.00  0.00    +0.000 OA
ATOM     19  H   UNL     1       6.064   3.078  17.105  0.00  0.00    +0.000 HD
ENDBRANCH  15  18
ENDBRANCH   7  12
BRANCH   3  20
ATOM     20  O   UNL     1       1.391   8.541  22.544  0.00  0.00    +0.000 OA
ATOM     21  H   UNL     1       1.067   7.630  22.473  0.00  0.00    +0.000 HD
ENDBRANCH   3  20
BRANCH   1  22
ATOM     22  O   UNL     1      -1.146  12.322  20.992  0.00  0.00    +0.000 OA
BRANCH  22  25
ATOM     23  C   UNL     1      -3.140  12.816  24.006  0.00  0.00    +0.000 C 
ATOM     24  O   UNL     1      -2.801  12.518  22.643  0.00  0.00    +0.000 OA
ATOM     25  C   UNL     1      -1.402  12.656  22.368  0.00  0.00    +0.000 C 
ATOM     26  C   UNL     1      -0.923  14.100  22.625  0.00  0.00    +0.000 C 
ATOM     27  C   UNL     1      -1.357  14.557  24.029  0.00  0.00    +0.000 C 
ATOM     28  C   UNL     1      -2.852  14.291  24.294  0.00  0.00    +0.000 C 
BRANCH  23  30
ATOM     29  O   UNL     1      -5.451  12.486  23.297  0.00  0.00    +0.000 OA
ATOM     30  C   UNL     1      -4.617  12.468  24.187  0.00  0.00    +0.000 C 
BRANCH  30  31
ATOM     31  O   UNL     1      -4.934  12.199  25.480  0.00  0.00    +0.000 OA
ATOM     32  H   UNL     1      -4.275  12.625  26.075  0.00  0.00    +0.000 HD
ENDBRANCH  30  31
ENDBRANCH  23  30
BRANCH  26  33
ATOM     33  O   UNL     1       0.507  14.170  22.489  0.00  0.00    +0.000 OA
ATOM     34  H   UNL     1       0.928  13.868  23.313  0.00  0.00    +0.000 HD
ENDBRANCH  26  33
BRANCH  27  35
ATOM     35  O   UNL     1      -1.025  15.935  24.219  0.00  0.00    +0.000 OA
ATOM     36  H   UNL     1      -0.439  16.221  23.494  0.00  0.00    +0.000 HD
ENDBRANCH  27  35
BRANCH  28  37
ATOM     37  O   UNL     1      -3.169  14.674  25.629  0.00  0.00    +0.000 OA
ATOM     38  H   UNL     1      -3.513  13.915  26.131  0.00  0.00    +0.000 HD
ENDBRANCH  28  37
ENDBRANCH  22  25
ENDBRANCH   1  22
TORSDOF 10
ENDMDL
MODEL 6
REMARK VINA RESULT:      -8.0      2.385      3.871
REMARK  Name = 
REMARK  10 active torsions:
REMARK  status: ('A' for Active; 'I' for Inactive)
REMARK    1  A    between atoms: C_2  and  O_3
REMARK    2  A    between atoms: C_2  and  C_4
REMARK    3  A    between atoms: C_6  and  O_7
REMARK    4  A    between atoms: O_7  and  C_8
REMARK    5  A    between atoms: C_10  and  O_11
REMARK    6  A    between atoms: C_15  and  C_16
REMARK    7  A    between atoms: C_19  and  O_20
REMARK    8  A    between atoms: C_27  and  O_28
REMARK    9  A    between atoms: C_29  and  O_30
REMARK   10  A    between atoms: C_31  and  O_32
REMARK                            x       y       z     vdW  Elec       q    Type
REMARK                         _______ _______ _______ _____ _____    ______ ____
ROOT
ATOM      1  C   UNL     1       1.877   8.053  20.085  0.00  0.00    +0.000 A 
ATOM      2  C   UNL     1       1.554   9.009  19.121  0.00  0.00    +0.000 A 
ATOM      3  C   UNL     1       0.697  10.063  19.440  0.00  0.00    +0.000 A 
ATOM      4  C   UNL     1       0.176  10.191  20.730  0.00  0.00    +0.000 A 
ATOM      5  C   UNL     1      -0.789  11.255  21.098  0.00  0.00    +0.000 A 
ATOM      6  O   UNL     1      -1.286  12.018  20.280  0.00  0.00    +0.000 OA
ATOM      7  C   UNL     1      -1.157  11.336  22.534  0.00  0.00    +0.000 A 
ATOM      8  C   UNL     1      -0.674  10.403  23.361  0.00  0.00    +0.000 A 
ATOM      9  O   UNL     1       0.133   9.347  23.014  0.00  0.00    +0.000 OA
ATOM     10  C   UNL     1       0.559   9.271  21.710  0.00  0.00    +0.000 A 
ATOM     11  C   UNL     1       1.405   8.203  21.389  0.00  0.00    +0.000 A 
ENDROOT
BRANCH   7  12
ATOM     12  C   UNL     1      -2.027  12.403  23.040  0.00  0.00    +0.000 A 
ATOM     13  C   UNL     1      -1.476  13.626  23.450  0.00  0.00    +0.000 A 
ATOM     14  C   UNL     1      -2.296  14.631  23.967  0.00  0.00    +0.000 A 
ATOM     15  C   UNL     1      -3.667  14.410  24.068  0.00  0.00    +0.000 A 
ATOM     16  C   UNL     1      -4.230  13.213  23.642  0.00  0.00    +0.000 A 
ATOM     17  C   UNL     1      -3.411  12.207  23.128  0.00  0.00    +0.000 A 
BRANCH  15  18
ATOM     18  O   UNL     1      -4.500  15.354  24.590  0.00  0.00    +0.000 OA
ATOM     19  H   UNL     1      -4.441  16.155  24.043  0.00  0.00    +0.000 HD
ENDBRANCH  15  18
ENDBRANCH   7  12
BRANCH   3  20
ATOM     20  O   UNL     1       0.400  10.970  18.464  0.00  0.00    +0.000 OA
ATOM     21  H   UNL     1      -0.502  11.312  18.568  0.00  0.00    +0.000 HD
ENDBRANCH   3  20
BRANCH   1  22
ATOM     22  O   UNL     1       2.660   6.955  19.846  0.00  0.00    +0.000 OA
BRANCH  22  25
ATOM     23  C   UNL     1       1.603   3.525  20.501  0.00  0.00    +0.000 C 
ATOM     24  O   UNL     1       2.289   4.779  20.641  0.00  0.00    +0.000 OA
ATOM     25  C   UNL     1       1.948   5.725  19.621  0.00  0.00    +0.000 C 
ATOM     26  C   UNL     1       2.311   5.190  18.220  0.00  0.00    +0.000 C 
ATOM     27  C   UNL     1       1.722   3.782  18.025  0.00  0.00    +0.000 C 
ATOM     28  C   UNL     1       2.045   2.844  19.204  0.00  0.00    +0.000 C 
BRANCH  23  30
ATOM     29  O   UNL     1       3.048   2.272  22.016  0.00  0.00    +0.000 OA
ATOM     30  C   UNL     1       1.937   2.692  21.737  0.00  0.00    +0.000 C 
BRANCH  30  31
ATOM     31  O   UNL     1       0.836   2.395  22.477  0.00  0.00    +0.000 OA
ATOM     32  H   UNL     1       0.026   2.606  21.959  0.00  0.00    +0.000 HD
ENDBRANCH  30  31
ENDBRANCH  23  30
BRANCH  26  33
ATOM     33  O   UNL     1       1.819   6.090  17.212  0.00  0.00    +0.000 OA
ATOM     34  H   UNL     1       1.781   5.629  16.356  0.00  0.00    +0.000 HD
ENDBRANCH  26  33
BRANCH  27  35
ATOM     35  O   UNL     1       2.164   3.235  16.779  0.00  0.00    +0.000 OA
ATOM     36  H   UNL     1       3.072   2.897  16.888  0.00  0.00    +0.000 HD
ENDBRANCH  27  35
BRANCH  28  37
ATOM     37  O   UNL     1       1.415   1.584  18.991  0.00  0.00    +0.000 OA
ATOM     38  H   UNL     1       0.476   1.623  19.241  0.00  0.00    +0.000 HD
ENDBRANCH  28  37
ENDBRANCH  22  25
ENDBRANCH   1  22
TORSDOF 10
ENDMDL
MODEL 7
REMARK VINA RESULT:      -8.0      1.553      2.453
REMARK  Name = 
REMARK  10 active torsions:
REMARK  status: ('A' for Active; 'I' for Inactive)
REMARK    1  A    between atoms: C_2  and  O_3
REMARK    2  A    between atoms: C_2  and  C_4
REMARK    3  A    between atoms: C_6  and  O_7
REMARK    4  A    between atoms: O_7  and  C_8
REMARK    5  A    between atoms: C_10  and  O_11
REMARK    6  A    between atoms: C_15  and  C_16
REMARK    7  A    between atoms: C_19  and  O_20
REMARK    8  A    between atoms: C_27  and  O_28
REMARK    9  A    between atoms: C_29  and  O_30
REMARK   10  A    between atoms: C_31  and  O_32
REMARK                            x       y       z     vdW  Elec       q    Type
REMARK                         _______ _______ _______ _____ _____    ______ ____
ROOT
ATOM      1  C   UNL     1       2.313   8.166  18.303  0.00  0.00    +0.000 A 
ATOM      2  C   UNL     1       2.296   9.450  17.759  0.00  0.00    +0.000 A 
ATOM      3  C   UNL     1       1.615  10.478  18.411  0.00  0.00    +0.000 A 
ATOM      4  C   UNL     1       0.968  10.244  19.627  0.00  0.00    +0.000 A 
ATOM      5  C   UNL     1       0.177  11.286  20.324  0.00  0.00    +0.000 A 
ATOM      6  O   UNL     1      -0.063  12.381  19.833  0.00  0.00    +0.000 OA
ATOM      7  C   UNL     1      -0.347  10.923  21.664  0.00  0.00    +0.000 A 
ATOM      8  C   UNL     1      -0.153   9.672  22.098  0.00  0.00    +0.000 A 
ATOM      9  O   UNL     1       0.483   8.664  21.417  0.00  0.00    +0.000 OA
ATOM     10  C   UNL     1       1.048   8.972  20.203  0.00  0.00    +0.000 A 
ATOM     11  C   UNL     1       1.716   7.935  19.543  0.00  0.00    +0.000 A 
ENDROOT
BRANCH   7  12
ATOM     12  C   UNL     1      -1.063  11.898  22.495  0.00  0.00    +0.000 A 
ATOM     13  C   UNL     1      -2.308  11.569  23.049  0.00  0.00    +0.000 A 
ATOM     14  C   UNL     1      -3.011  12.506  23.810  0.00  0.00    +0.000 A 
ATOM     15  C   UNL     1      -2.462  13.768  24.016  0.00  0.00    +0.000 A 
ATOM     16  C   UNL     1      -1.217  14.100  23.494  0.00  0.00    +0.000 A 
ATOM     17  C   UNL     1      -0.516  13.165  22.732  0.00  0.00    +0.000 A 
BRANCH  15  18
ATOM     18  O   UNL     1      -3.125  14.721  24.731  0.00  0.00    +0.000 OA
ATOM     19  H   UNL     1      -3.770  15.153  24.146  0.00  0.00    +0.000 HD
ENDBRANCH  15  18
ENDBRANCH   7  12
BRANCH   3  20
ATOM     20  O   UNL     1       1.615  11.717  17.839  0.00  0.00    +0.000 OA
ATOM     21  H   UNL     1       2.512  12.084  17.801  0.00  0.00    +0.000 HD
ENDBRANCH   3  20
BRANCH   1  22
ATOM     22  O   UNL     1       2.905   7.084  17.704  0.00  0.00    +0.000 OA
BRANCH  22  25
ATOM     23  C   UNL     1       5.268   4.899  19.419  0.00  0.00    +0.000 C 
ATOM     24  O   UNL     1       4.756   5.912  18.539  0.00  0.00    +0.000 OA
ATOM     25  C   UNL     1       3.331   6.040  18.596  0.00  0.00    +0.000 C 
ATOM     26  C   UNL     1       2.636   4.724  18.188  0.00  0.00    +0.000 C 
ATOM     27  C   UNL     1       3.216   3.549  18.995  0.00  0.00    +0.000 C 
ATOM     28  C   UNL     1       4.757   3.528  18.972  0.00  0.00    +0.000 C 
BRANCH  23  30
ATOM     29  O   UNL     1       7.475   5.632  20.158  0.00  0.00    +0.000 OA
ATOM     30  C   UNL     1       6.792   4.993  19.373  0.00  0.00    +0.000 C 
BRANCH  30  31
ATOM     31  O   UNL     1       7.322   4.341  18.306  0.00  0.00    +0.000 OA
ATOM     32  H   UNL     1       7.452   3.392  18.534  0.00  0.00    +0.000 HD
ENDBRANCH  30  31
ENDBRANCH  23  30
BRANCH  26  33
ATOM     33  O   UNL     1       1.218   4.835  18.402  0.00  0.00    +0.000 OA
ATOM     34  H   UNL     1       0.765   4.923  17.546  0.00  0.00    +0.000 HD
ENDBRANCH  26  33
BRANCH  27  35
ATOM     35  O   UNL     1       2.664   2.315  18.528  0.00  0.00    +0.000 OA
ATOM     36  H   UNL     1       1.943   2.509  17.902  0.00  0.00    +0.000 HD
ENDBRANCH  27  35
BRANCH  28  37
ATOM     37  O   UNL     1       5.226   2.461  19.791  0.00  0.00    +0.000 OA
ATOM     38  H   UNL     1       5.590   2.803  20.626  0.00  0.00    +0.000 HD
ENDBRANCH  28  37
ENDBRANCH  22  25
ENDBRANCH   1  22
TORSDOF 10
ENDMDL
MODEL 8
REMARK VINA RESULT:      -7.9      1.957      3.231
REMARK  Name = 
REMARK  10 active torsions:
REMARK  status: ('A' for Active; 'I' for Inactive)
REMARK    1  A    between atoms: C_2  and  O_3
REMARK    2  A    between atoms: C_2  and  C_4
REMARK    3  A    between atoms: C_6  and  O_7
REMARK    4  A    between atoms: O_7  and  C_8
REMARK    5  A    between atoms: C_10  and  O_11
REMARK    6  A    between atoms: C_15  and  C_16
REMARK    7  A    between atoms: C_19  and  O_20
REMARK    8  A    between atoms: C_27  and  O_28
REMARK    9  A    between atoms: C_29  and  O_30
REMARK   10  A    between atoms: C_31  and  O_32
REMARK                            x       y       z     vdW  Elec       q    Type
REMARK                         _______ _______ _______ _____ _____    ______ ____
ROOT
ATOM      1  C   UNL     1       2.653   5.874  19.477  0.00  0.00    +0.000 A 
ATOM      2  C   UNL     1       2.854   6.651  18.336  0.00  0.00    +0.000 A 
ATOM      3  C   UNL     1       2.352   7.951  18.278  0.00  0.00    +0.000 A 
ATOM      4  C   UNL     1       1.672   8.501  19.367  0.00  0.00    +0.000 A 
ATOM      5  C   UNL     1       1.065   9.853  19.329  0.00  0.00    +0.000 A 
ATOM      6  O   UNL     1       1.013  10.533  18.312  0.00  0.00    +0.000 OA
ATOM      7  C   UNL     1       0.484  10.346  20.603  0.00  0.00    +0.000 A 
ATOM      8  C   UNL     1       0.465   9.513  21.649  0.00  0.00    +0.000 A 
ATOM      9  O   UNL     1       0.924   8.220  21.669  0.00  0.00    +0.000 OA
ATOM     10  C   UNL     1       1.536   7.743  20.534  0.00  0.00    +0.000 A 
ATOM     11  C   UNL     1       2.023   6.432  20.590  0.00  0.00    +0.000 A 
ENDROOT
BRANCH   7  12
ATOM     12  C   UNL     1      -0.061  11.704  20.720  0.00  0.00    +0.000 A 
ATOM     13  C   UNL     1      -1.426  11.935  20.500  0.00  0.00    +0.000 A 
ATOM     14  C   UNL     1      -1.943  13.230  20.574  0.00  0.00    +0.000 A 
ATOM     15  C   UNL     1      -1.090  14.289  20.871  0.00  0.00    +0.000 A 
ATOM     16  C   UNL     1       0.260  14.072  21.117  0.00  0.00    +0.000 A 
ATOM     17  C   UNL     1       0.778  12.779  21.041  0.00  0.00    +0.000 A 
BRANCH  15  18
ATOM     18  O   UNL     1      -1.548  15.572  20.928  0.00  0.00    +0.000 OA
ATOM     19  H   UNL     1      -0.830  16.143  21.250  0.00  0.00    +0.000 HD
ENDBRANCH  15  18
ENDBRANCH   7  12
BRANCH   3  20
ATOM     20  O   UNL     1       2.562   8.673  17.139  0.00  0.00    +0.000 OA
ATOM     21  H   UNL     1       1.724   8.888  16.702  0.00  0.00    +0.000 HD
ENDBRANCH   3  20
BRANCH   1  22
ATOM     22  O   UNL     1       3.056   4.570  19.600  0.00  0.00    +0.000 OA
BRANCH  22  25
ATOM     23  C   UNL     1       6.567   4.878  18.661  0.00  0.00    +0.000 C 
ATOM     24  O   UNL     1       5.306   5.156  19.287  0.00  0.00    +0.000 OA
ATOM     25  C   UNL     1       4.277   4.232  18.916  0.00  0.00    +0.000 C 
ATOM     26  C   UNL     1       4.019   4.265  17.396  0.00  0.00    +0.000 C 
ATOM     27  C   UNL     1       5.345   4.101  16.632  0.00  0.00    +0.000 C 
ATOM     28  C   UNL     1       6.437   5.059  17.147  0.00  0.00    +0.000 C 
BRANCH  23  30
ATOM     29  O   UNL     1       8.075   6.795  18.702  0.00  0.00    +0.000 OA
ATOM     30  C   UNL     1       7.592   5.831  19.273  0.00  0.00    +0.000 C 
BRANCH  30  31
ATOM     31  O   UNL     1       7.977   5.451  20.519  0.00  0.00    +0.000 OA
ATOM     32  H   UNL     1       8.044   6.245  21.098  0.00  0.00    +0.000 HD
ENDBRANCH  30  31
ENDBRANCH  23  30
BRANCH  26  33
ATOM     33  O   UNL     1       3.095   3.223  17.035  0.00  0.00    +0.000 OA
ATOM     34  H   UNL     1       3.580   2.483  16.630  0.00  0.00    +0.000 HD
ENDBRANCH  26  33
BRANCH  27  35
ATOM     35  O   UNL     1       5.124   4.259  15.228  0.00  0.00    +0.000 OA
ATOM     36  H   UNL     1       5.583   5.063  14.925  0.00  0.00    +0.000 HD
ENDBRANCH  27  35
BRANCH  28  37
ATOM     37  O   UNL     1       7.652   4.807  16.446  0.00  0.00    +0.000 OA
ATOM     38  H   UNL     1       8.192   4.151  16.919  0.00  0.00    +0.000 HD
ENDBRANCH  28  37
ENDBRANCH  22  25
ENDBRANCH   1  22
TORSDOF 10
ENDMDL
MODEL 9
REMARK VINA RESULT:      -7.9      2.870      5.592
REMARK  Name = 
REMARK  10 active torsions:
REMARK  status: ('A' for Active; 'I' for Inactive)
REMARK    1  A    between atoms: C_2  and  O_3
REMARK    2  A    between atoms: C_2  and  C_4
REMARK    3  A    between atoms: C_6  and  O_7
REMARK    4  A    between atoms: O_7  and  C_8
REMARK    5  A    between atoms: C_10  and  O_11
REMARK    6  A    between atoms: C_15  and  C_16
REMARK    7  A    between atoms: C_19  and  O_20
REMARK    8  A    between atoms: C_27  and  O_28
REMARK    9  A    between atoms: C_29  and  O_30
REMARK   10  A    between atoms: C_31  and  O_32
REMARK                            x       y       z     vdW  Elec       q    Type
REMARK                         _______ _______ _______ _____ _____    ______ ____
ROOT
ATOM      1  C   UNL     1       4.800   4.255  17.216  0.00  0.00    +0.000 A 
ATOM      2  C   UNL     1       4.157   3.604  18.268  0.00  0.00    +0.000 A 
ATOM      3  C   UNL     1       3.316   4.316  19.124  0.00  0.00    +0.000 A 
ATOM      4  C   UNL     1       3.084   5.679  18.922  0.00  0.00    +0.000 A 
ATOM      5  C   UNL     1       2.252   6.491  19.841  0.00  0.00    +0.000 A 
ATOM      6  O   UNL     1       1.809   6.060  20.898  0.00  0.00    +0.000 OA
ATOM      7  C   UNL     1       1.998   7.894  19.427  0.00  0.00    +0.000 A 
ATOM      8  C   UNL     1       2.606   8.344  18.324  0.00  0.00    +0.000 A 
ATOM      9  O   UNL     1       3.466   7.636  17.522  0.00  0.00    +0.000 OA
ATOM     10  C   UNL     1       3.675   6.311  17.824  0.00  0.00    +0.000 A 
ATOM     11  C   UNL     1       4.533   5.604  16.974  0.00  0.00    +0.000 A 
ENDROOT
BRANCH   7  12
ATOM     12  C   UNL     1       1.113   8.771  20.202  0.00  0.00    +0.000 A 
ATOM     13  C   UNL     1       0.373   9.771  19.556  0.00  0.00    +0.000 A 
ATOM     14  C   UNL     1      -0.443  10.632  20.293  0.00  0.00    +0.000 A 
ATOM     15  C   UNL     1      -0.518  10.486  21.675  0.00  0.00    +0.000 A 
ATOM     16  C   UNL     1       0.189   9.483  22.326  0.00  0.00    +0.000 A 
ATOM     17  C   UNL     1       1.007   8.624  21.591  0.00  0.00    +0.000 A 
BRANCH  15  18
ATOM     18  O   UNL     1      -1.282  11.321  22.435  0.00  0.00    +0.000 OA
ATOM     19  H   UNL     1      -1.825  11.868  21.843  0.00  0.00    +0.000 HD
ENDBRANCH  15  18
ENDBRANCH   7  12
BRANCH   3  20
ATOM     20  O   UNL     1       2.714   3.641  20.146  0.00  0.00    +0.000 OA
ATOM     21  H   UNL     1       3.369   3.184  20.696  0.00  0.00    +0.000 HD
ENDBRANCH   3  20
BRANCH   1  22
ATOM     22  O   UNL     1       5.687   3.651  16.364  0.00  0.00    +0.000 OA
BRANCH  22  25
ATOM     23  C   UNL     1       5.691   3.885  12.724  0.00  0.00    +0.000 C 
ATOM     24  O   UNL     1       5.580   3.329  14.043  0.00  0.00    +0.000 OA
ATOM     25  C   UNL     1       5.840   4.282  15.080  0.00  0.00    +0.000 C 
ATOM     26  C   UNL     1       7.271   4.848  14.972  0.00  0.00    +0.000 C 
ATOM     27  C   UNL     1       7.530   5.355  13.543  0.00  0.00    +0.000 C 
ATOM     28  C   UNL     1       7.138   4.317  12.473  0.00  0.00    +0.000 C 
BRANCH  23  30
ATOM     29  O   UNL     1       4.149   2.802  11.176  0.00  0.00    +0.000 OA
ATOM     30  C   UNL     1       5.229   2.809  11.743  0.00  0.00    +0.000 C 
BRANCH  30  31
ATOM     31  O   UNL     1       6.129   1.800  11.616  0.00  0.00    +0.000 OA
ATOM     32  H   UNL     1       5.652   0.951  11.474  0.00  0.00    +0.000 HD
ENDBRANCH  30  31
ENDBRANCH  23  30
BRANCH  26  33
ATOM     33  O   UNL     1       7.449   5.909  15.927  0.00  0.00    +0.000 OA
ATOM     34  H   UNL     1       8.195   5.697  16.514  0.00  0.00    +0.000 HD
ENDBRANCH  26  33
BRANCH  27  35
ATOM     35  O   UNL     1       8.894   5.762  13.408  0.00  0.00    +0.000 OA
ATOM     36  H   UNL     1       9.372   5.094  12.883  0.00  0.00    +0.000 HD
ENDBRANCH  27  35
BRANCH  28  37
ATOM     37  O   UNL     1       7.338   4.876  11.178  0.00  0.00    +0.000 OA
ATOM     38  H   UNL     1       7.303   4.184  10.496  0.00  0.00    +0.000 HD
ENDBRANCH  28  37
ENDBRANCH  22  25
ENDBRANCH   1  22
TORSDOF 10
ENDMDL
