MODEL 1
REMARK VINA RESULT:      -8.1      0.000      0.000
REMARK  Name = 
REMARK  5 active torsions:
REMARK  status: ('A' for Active; 'I' for Inactive)
REMARK    1  A    between atoms: C_2  and  O_3
REMARK    2  A    between atoms: C_2  and  C_10
REMARK    3  A    between atoms: O_3  and  C_4
REMARK    4  A    between atoms: C_12  and  N_13
REMARK    5  A    between atoms: C_17  and  N_18
REMARK                            x       y       z     vdW  Elec       q    Type
REMARK                         _______ _______ _______ _____ _____    ______ ____
ROOT
ATOM      1  C   UNL     1       4.898   3.857  17.198  0.00  0.00    +0.000 A 
ATOM      2  C   UNL     1       5.639   4.445  18.236  0.00  0.00    +0.000 A 
ATOM      3  C   UNL     1       6.818   5.147  17.943  0.00  0.00    +0.000 A 
ATOM      4  C   UNL     1       7.286   5.249  16.626  0.00  0.00    +0.000 A 
ATOM      5  C   UNL     1       6.553   4.640  15.600  0.00  0.00    +0.000 A 
ATOM      6  C   UNL     1       5.366   3.944  15.877  0.00  0.00    +0.000 A 
ENDROOT
BRANCH   3   7
ATOM      7  N   UNL     1       7.546   5.826  19.024  0.00  0.00    +0.000 N 
ATOM      8  O   UNL     1       7.479   5.336  20.158  0.00  0.00    +0.000 OA
ATOM      9  O   UNL     1       8.173   6.853  18.734  0.00  0.00    +0.000 OA
ENDBRANCH   3   7
BRANCH   5  10
ATOM     10  N   UNL     1       7.010   4.762  14.208  0.00  0.00    +0.000 N 
ATOM     11  O   UNL     1       7.900   5.587  13.967  0.00  0.00    +0.000 OA
ATOM     12  O   UNL     1       6.473   4.033  13.363  0.00  0.00    +0.000 OA
ENDBRANCH   5  10
BRANCH   1  14
ATOM     13  O   UNL     1       3.486   2.059  17.889  0.00  0.00    +0.000 OA
ATOM     14  C   UNL     1       3.593   3.222  17.544  0.00  0.00    +0.000 C 
BRANCH  14  15
ATOM     15  O   UNL     1       2.604   4.192  17.488  0.00  0.00    +0.000 OA
BRANCH  15  16
ATOM     16  C   UNL     1       2.328   5.184  18.461  0.00  0.00    +0.000 A 
ATOM     17  C   UNL     1       2.525   6.495  18.021  0.00  0.00    +0.000 A 
ATOM     18  C   UNL     1       2.343   7.557  18.906  0.00  0.00    +0.000 A 
ATOM     19  C   UNL     1       1.957   7.303  20.222  0.00  0.00    +0.000 A 
ATOM     20  C   UNL     1       1.744   5.991  20.647  0.00  0.00    +0.000 A 
ATOM     21  C   UNL     1       1.929   4.923  19.766  0.00  0.00    +0.000 A 
ENDBRANCH  15  16
ENDBRANCH  14  15
ENDBRANCH   1  14
TORSDOF 5
ENDMDL
MODEL 2
REMARK VINA RESULT:      -8.0      0.283      1.092
REMARK  Name = 
REMARK  5 active torsions:
REMARK  status: ('A' for Active; 'I' for Inactive)
REMARK    1  A    between atoms: C_2  and  O_3
REMARK    2  A    between atoms: C_2  and  C_10
REMARK    3  A    between atoms: O_3  and  C_4
REMARK    4  A    between atoms: C_12  and  N_13
REMARK    5  A    between atoms: C_17  and  N_18
REMARK                            x       y       z     vdW  Elec       q    Type
REMARK                         _______ _______ _______ _____ _____    ______ ____
ROOT
ATOM      1  C   UNL     1       4.909   3.832  17.525  0.00  0.00    +0.000 A 
ATOM      2  C   UNL     1       5.706   4.437  18.509  0.00  0.00    +0.000 A 
ATOM      3  C   UNL     1       6.868   5.131  18.138  0.00  0.00    +0.000 A 
ATOM      4  C   UNL     1       7.262   5.209  16.795  0.00  0.00    +0.000 A 
ATOM      5  C   UNL     1       6.472   4.584  15.823  0.00  0.00    +0.000 A 
ATOM      6  C   UNL     1       5.301   3.895  16.179  0.00  0.00    +0.000 A 
ENDROOT
BRANCH   3   7
ATOM      7  N   UNL     1       7.656   5.827  19.165  0.00  0.00    +0.000 N 
ATOM      8  O   UNL     1       7.680   5.338  20.301  0.00  0.00    +0.000 OA
ATOM      9  O   UNL     1       8.239   6.867  18.830  0.00  0.00    +0.000 OA
ENDBRANCH   3   7
BRANCH   5  10
ATOM     10  N   UNL     1       6.851   4.680  14.405  0.00  0.00    +0.000 N 
ATOM     11  O   UNL     1       7.757   5.467  14.106  0.00  0.00    +0.000 OA
ATOM     12  O   UNL     1       6.236   3.969  13.599  0.00  0.00    +0.000 OA
ENDBRANCH   5  10
BRANCH   1  14
ATOM     13  O   UNL     1       3.552   2.090  18.437  0.00  0.00    +0.000 OA
ATOM     14  C   UNL     1       3.624   3.207  17.955  0.00  0.00    +0.000 C 
BRANCH  14  15
ATOM     15  O   UNL     1       2.607   4.134  17.791  0.00  0.00    +0.000 OA
BRANCH  15  16
ATOM     16  C   UNL     1       2.432   5.341  18.511  0.00  0.00    +0.000 A 
ATOM     17  C   UNL     1       2.032   5.170  19.838  0.00  0.00    +0.000 A 
ATOM     18  C   UNL     1       1.771   6.286  20.632  0.00  0.00    +0.000 A 
ATOM     19  C   UNL     1       1.918   7.565  20.099  0.00  0.00    +0.000 A 
ATOM     20  C   UNL     1       2.337   7.727  18.777  0.00  0.00    +0.000 A 
ATOM     21  C   UNL     1       2.597   6.613  17.975  0.00  0.00    +0.000 A 
ENDBRANCH  15  16
ENDBRANCH  14  15
ENDBRANCH   1  14
TORSDOF 5
ENDMDL
MODEL 3
REMARK VINA RESULT:      -8.0      0.280      3.279
REMARK  Name = 
REMARK  5 active torsions:
REMARK  status: ('A' for Active; 'I' for Inactive)
REMARK    1  A    between atoms: C_2  and  O_3
REMARK    2  A    between atoms: C_2  and  C_10
REMARK    3  A    between atoms: O_3  and  C_4
REMARK    4  A    between atoms: C_12  and  N_13
REMARK    5  A    between atoms: C_17  and  N_18
REMARK                            x       y       z     vdW  Elec       q    Type
REMARK                         _______ _______ _______ _____ _____    ______ ____
ROOT
ATOM      1  C   UNL     1       4.878   3.941  17.534  0.00  0.00    +0.000 A 
ATOM      2  C   UNL     1       5.268   4.012  16.188  0.00  0.00    +0.000 A 
ATOM      3  C   UNL     1       6.460   4.665  15.840  0.00  0.00    +0.000 A 
ATOM      4  C   UNL     1       7.259   5.275  16.817  0.00  0.00    +0.000 A 
ATOM      5  C   UNL     1       6.850   5.219  18.154  0.00  0.00    +0.000 A 
ATOM      6  C   UNL     1       5.665   4.559  18.519  0.00  0.00    +0.000 A 
ENDROOT
BRANCH   3   7
ATOM      7  N   UNL     1       6.903   4.669  14.438  0.00  0.00    +0.000 N 
ATOM      8  O   UNL     1       7.778   5.480  14.113  0.00  0.00    +0.000 OA
ATOM      9  O   UNL     1       6.362   3.865  13.667  0.00  0.00    +0.000 OA
ENDBRANCH   3   7
BRANCH   5  10
ATOM     10  N   UNL     1       7.688   5.826  19.198  0.00  0.00    +0.000 N 
ATOM     11  O   UNL     1       8.335   6.837  18.898  0.00  0.00    +0.000 OA
ATOM     12  O   UNL     1       7.698   5.284  20.311  0.00  0.00    +0.000 OA
ENDBRANCH   5  10
BRANCH   1  14
ATOM     13  O   UNL     1       3.712   1.964  18.198  0.00  0.00    +0.000 OA
ATOM     14  C   UNL     1       3.666   3.136  17.869  0.00  0.00    +0.000 C 
BRANCH  14  15
ATOM     15  O   UNL     1       2.559   3.968  17.821  0.00  0.00    +0.000 OA
BRANCH  15  16
ATOM     16  C   UNL     1       2.311   5.102  18.633  0.00  0.00    +0.000 A 
ATOM     17  C   UNL     1       2.513   6.327  17.992  0.00  0.00    +0.000 A 
ATOM     18  C   UNL     1       2.358   7.515  18.703  0.00  0.00    +0.000 A 
ATOM     19  C   UNL     1       1.995   7.474  20.049  0.00  0.00    +0.000 A 
ATOM     20  C   UNL     1       1.777   6.246  20.676  0.00  0.00    +0.000 A 
ATOM     21  C   UNL     1       1.934   5.052  19.969  0.00  0.00    +0.000 A 
ENDBRANCH  15  16
ENDBRANCH  14  15
ENDBRANCH   1  14
TORSDOF 5
ENDMDL
MODEL 4
REMARK VINA RESULT:      -7.8      0.190      3.398
REMARK  Name = 
REMARK  5 active torsions:
REMARK  status: ('A' for Active; 'I' for Inactive)
REMARK    1  A    between atoms: C_2  and  O_3
REMARK    2  A    between atoms: C_2  and  C_10
REMARK    3  A    between atoms: O_3  and  C_4
REMARK    4  A    between atoms: C_12  and  N_13
REMARK    5  A    between atoms: C_17  and  N_18
REMARK                            x       y       z     vdW  Elec       q    Type
REMARK                         _______ _______ _______ _____ _____    ______ ____
ROOT
ATOM      1  C   UNL     1       4.902   4.056  17.321  0.00  0.00    +0.000 A 
ATOM      2  C   UNL     1       5.298   4.108  15.975  0.00  0.00    +0.000 A 
ATOM      3  C   UNL     1       6.509   4.726  15.627  0.00  0.00    +0.000 A 
ATOM      4  C   UNL     1       7.321   5.319  16.603  0.00  0.00    +0.000 A 
ATOM      5  C   UNL     1       6.907   5.282  17.939  0.00  0.00    +0.000 A 
ATOM      6  C   UNL     1       5.703   4.658  18.304  0.00  0.00    +0.000 A 
ENDROOT
BRANCH   3   7
ATOM      7  N   UNL     1       6.955   4.709  14.226  0.00  0.00    +0.000 N 
ATOM      8  O   UNL     1       6.408   3.908  13.458  0.00  0.00    +0.000 OA
ATOM      9  O   UNL     1       7.860   5.491  13.905  0.00  0.00    +0.000 OA
ENDBRANCH   3   7
BRANCH   5  10
ATOM     10  N   UNL     1       7.760   5.871  18.982  0.00  0.00    +0.000 N 
ATOM     11  O   UNL     1       8.237   6.992  18.766  0.00  0.00    +0.000 OA
ATOM     12  O   UNL     1       7.950   5.207  20.009  0.00  0.00    +0.000 OA
ENDBRANCH   5  10
BRANCH   1  14
ATOM     13  O   UNL     1       3.676   2.109  17.962  0.00  0.00    +0.000 OA
ATOM     14  C   UNL     1       3.667   3.288  17.656  0.00  0.00    +0.000 C 
BRANCH  14  15
ATOM     15  O   UNL     1       2.589   4.159  17.640  0.00  0.00    +0.000 OA
BRANCH  15  16
ATOM     16  C   UNL     1       2.409   5.304  18.454  0.00  0.00    +0.000 A 
ATOM     17  C   UNL     1       2.024   5.025  19.768  0.00  0.00    +0.000 A 
ATOM     18  C   UNL     1       1.759   6.072  20.649  0.00  0.00    +0.000 A 
ATOM     19  C   UNL     1       1.887   7.391  20.216  0.00  0.00    +0.000 A 
ATOM     20  C   UNL     1       2.292   7.660  18.908  0.00  0.00    +0.000 A 
ATOM     21  C   UNL     1       2.555   6.616  18.019  0.00  0.00    +0.000 A 
ENDBRANCH  15  16
ENDBRANCH  14  15
ENDBRANCH   1  14
TORSDOF 5
ENDMDL
MODEL 5
REMARK VINA RESULT:      -7.8      1.855      3.946
REMARK  Name = 
REMARK  5 active torsions:
REMARK  status: ('A' for Active; 'I' for Inactive)
REMARK    1  A    between atoms: C_2  and  O_3
REMARK    2  A    between atoms: C_2  and  C_10
REMARK    3  A    between atoms: O_3  and  C_4
REMARK    4  A    between atoms: C_12  and  N_13
REMARK    5  A    between atoms: C_17  and  N_18
REMARK                            x       y       z     vdW  Elec       q    Type
REMARK                         _______ _______ _______ _____ _____    ______ ____
ROOT
ATOM      1  C   UNL     1       4.701   4.201  16.904  0.00  0.00    +0.000 A 
ATOM      2  C   UNL     1       5.246   4.265  15.612  0.00  0.00    +0.000 A 
ATOM      3  C   UNL     1       6.504   4.855  15.412  0.00  0.00    +0.000 A 
ATOM      4  C   UNL     1       7.217   5.408  16.484  0.00  0.00    +0.000 A 
ATOM      5  C   UNL     1       6.656   5.360  17.765  0.00  0.00    +0.000 A 
ATOM      6  C   UNL     1       5.403   4.763  17.981  0.00  0.00    +0.000 A 
ENDROOT
BRANCH   3   7
ATOM      7  N   UNL     1       7.102   4.850  14.070  0.00  0.00    +0.000 N 
ATOM      8  O   UNL     1       8.045   5.623  13.857  0.00  0.00    +0.000 OA
ATOM      9  O   UNL     1       6.618   4.079  13.231  0.00  0.00    +0.000 OA
ENDBRANCH   3   7
BRANCH   5  10
ATOM     10  N   UNL     1       7.402   5.907  18.908  0.00  0.00    +0.000 N 
ATOM     11  O   UNL     1       8.132   6.885  18.701  0.00  0.00    +0.000 OA
ATOM     12  O   UNL     1       7.256   5.352  20.005  0.00  0.00    +0.000 OA
ENDBRANCH   5  10
BRANCH   1  14
ATOM     13  O   UNL     1       2.467   3.579  16.330  0.00  0.00    +0.000 OA
ATOM     14  C   UNL     1       3.417   3.461  17.084  0.00  0.00    +0.000 C 
BRANCH  14  15
ATOM     15  O   UNL     1       3.554   2.599  18.160  0.00  0.00    +0.000 OA
BRANCH  15  16
ATOM     16  C   UNL     1       2.846   2.649  19.386  0.00  0.00    +0.000 A 
ATOM     17  C   UNL     1       1.483   2.929  19.255  0.00  0.00    +0.000 A 
ATOM     18  C   UNL     1       0.691   3.062  20.394  0.00  0.00    +0.000 A 
ATOM     19  C   UNL     1       1.262   2.907  21.657  0.00  0.00    +0.000 A 
ATOM     20  C   UNL     1       2.620   2.609  21.777  0.00  0.00    +0.000 A 
ATOM     21  C   UNL     1       3.420   2.478  20.639  0.00  0.00    +0.000 A 
ENDBRANCH  15  16
ENDBRANCH  14  15
ENDBRANCH   1  14
TORSDOF 5
ENDMDL
MODEL 6
REMARK VINA RESULT:      -7.7      1.883      2.306
REMARK  Name = 
REMARK  5 active torsions:
REMARK  status: ('A' for Active; 'I' for Inactive)
REMARK    1  A    between atoms: C_2  and  O_3
REMARK    2  A    between atoms: C_2  and  C_10
REMARK    3  A    between atoms: O_3  and  C_4
REMARK    4  A    between atoms: C_12  and  N_13
REMARK    5  A    between atoms: C_17  and  N_18
REMARK                            x       y       z     vdW  Elec       q    Type
REMARK                         _______ _______ _______ _____ _____    ______ ____
ROOT
ATOM      1  C   UNL     1       4.850   3.976  16.858  0.00  0.00    +0.000 A 
ATOM      2  C   UNL     1       5.537   4.532  17.949  0.00  0.00    +0.000 A 
ATOM      3  C   UNL     1       6.750   5.206  17.741  0.00  0.00    +0.000 A 
ATOM      4  C   UNL     1       7.304   5.311  16.458  0.00  0.00    +0.000 A 
ATOM      5  C   UNL     1       6.624   4.734  15.380  0.00  0.00    +0.000 A 
ATOM      6  C   UNL     1       5.403   4.066  15.572  0.00  0.00    +0.000 A 
ENDROOT
BRANCH   3   7
ATOM      7  N   UNL     1       7.424   5.852  18.876  0.00  0.00    +0.000 N 
ATOM      8  O   UNL     1       8.129   6.842  18.639  0.00  0.00    +0.000 OA
ATOM      9  O   UNL     1       7.253   5.359  19.999  0.00  0.00    +0.000 OA
ENDBRANCH   3   7
BRANCH   5  10
ATOM     10  N   UNL     1       7.173   4.860  14.022  0.00  0.00    +0.000 N 
ATOM     11  O   UNL     1       8.092   5.670  13.847  0.00  0.00    +0.000 OA
ATOM     12  O   UNL     1       6.677   4.150  13.137  0.00  0.00    +0.000 OA
ENDBRANCH   5  10
BRANCH   1  14
ATOM     13  O   UNL     1       2.545   3.559  16.390  0.00  0.00    +0.000 OA
ATOM     14  C   UNL     1       3.509   3.373  17.112  0.00  0.00    +0.000 C 
BRANCH  14  15
ATOM     15  O   UNL     1       3.604   2.535  18.212  0.00  0.00    +0.000 OA
BRANCH  15  16
ATOM     16  C   UNL     1       2.864   2.625  19.416  0.00  0.00    +0.000 A 
ATOM     17  C   UNL     1       1.511   2.927  19.242  0.00  0.00    +0.000 A 
ATOM     18  C   UNL     1       0.690   3.099  20.355  0.00  0.00    +0.000 A 
ATOM     19  C   UNL     1       1.224   2.960  21.636  0.00  0.00    +0.000 A 
ATOM     20  C   UNL     1       2.572   2.639  21.800  0.00  0.00    +0.000 A 
ATOM     21  C   UNL     1       3.400   2.469  20.688  0.00  0.00    +0.000 A 
ENDBRANCH  15  16
ENDBRANCH  14  15
ENDBRANCH   1  14
TORSDOF 5
ENDMDL
MODEL 7
REMARK VINA RESULT:      -7.7      1.519      2.401
REMARK  Name = 
REMARK  5 active torsions:
REMARK  status: ('A' for Active; 'I' for Inactive)
REMARK    1  A    between atoms: C_2  and  O_3
REMARK    2  A    between atoms: C_2  and  C_10
REMARK    3  A    between atoms: O_3  and  C_4
REMARK    4  A    between atoms: C_12  and  N_13
REMARK    5  A    between atoms: C_17  and  N_18
REMARK                            x       y       z     vdW  Elec       q    Type
REMARK                         _______ _______ _______ _____ _____    ______ ____
ROOT
ATOM      1  C   UNL     1       4.451   5.963  17.483  0.00  0.00    +0.000 A 
ATOM      2  C   UNL     1       5.413   6.095  18.497  0.00  0.00    +0.000 A 
ATOM      3  C   UNL     1       6.762   5.827  18.219  0.00  0.00    +0.000 A 
ATOM      4  C   UNL     1       7.164   5.402  16.946  0.00  0.00    +0.000 A 
ATOM      5  C   UNL     1       6.195   5.251  15.948  0.00  0.00    +0.000 A 
ATOM      6  C   UNL     1       4.842   5.527  16.208  0.00  0.00    +0.000 A 
ENDROOT
BRANCH   3   7
ATOM      7  N   UNL     1       7.774   6.041  19.264  0.00  0.00    +0.000 N 
ATOM      8  O   UNL     1       7.768   5.276  20.236  0.00  0.00    +0.000 OA
ATOM      9  O   UNL     1       8.564   6.982  19.109  0.00  0.00    +0.000 OA
ENDBRANCH   3   7
BRANCH   5  10
ATOM     10  N   UNL     1       6.600   4.836  14.596  0.00  0.00    +0.000 N 
ATOM     11  O   UNL     1       7.622   5.347  14.122  0.00  0.00    +0.000 OA
ATOM     12  O   UNL     1       5.889   4.004  14.017  0.00  0.00    +0.000 OA
ENDBRANCH   5  10
BRANCH   1  14
ATOM     13  O   UNL     1       2.719   7.527  17.992  0.00  0.00    +0.000 OA
ATOM     14  C   UNL     1       3.049   6.372  17.794  0.00  0.00    +0.000 C 
BRANCH  14  15
ATOM     15  O   UNL     1       2.238   5.250  17.720  0.00  0.00    +0.000 OA
BRANCH  15  16
ATOM     16  C   UNL     1       1.880   4.388  18.785  0.00  0.00    +0.000 A 
ATOM     17  C   UNL     1       2.156   4.895  20.057  0.00  0.00    +0.000 A 
ATOM     18  C   UNL     1       1.902   4.114  21.184  0.00  0.00    +0.000 A 
ATOM     19  C   UNL     1       1.366   2.836  21.034  0.00  0.00    +0.000 A 
ATOM     20  C   UNL     1       1.074   2.346  19.760  0.00  0.00    +0.000 A 
ATOM     21  C   UNL     1       1.330   3.122  18.627  0.00  0.00    +0.000 A 
ENDBRANCH  15  16
ENDBRANCH  14  15
ENDBRANCH   1  14
TORSDOF 5
ENDMDL
MODEL 8
REMARK VINA RESULT:      -7.6      1.254      1.919
REMARK  Name = 
REMARK  5 active torsions:
REMARK  status: ('A' for Active; 'I' for Inactive)
REMARK    1  A    between atoms: C_2  and  O_3
REMARK    2  A    between atoms: C_2  and  C_10
REMARK    3  A    between atoms: O_3  and  C_4
REMARK    4  A    between atoms: C_12  and  N_13
REMARK    5  A    between atoms: C_17  and  N_18
REMARK                            x       y       z     vdW  Elec       q    Type
REMARK                         _______ _______ _______ _____ _____    ______ ____
ROOT
ATOM      1  C   UNL     1       4.418   5.170  17.751  0.00  0.00    +0.000 A 
ATOM      2  C   UNL     1       5.407   5.481  18.697  0.00  0.00    +0.000 A 
ATOM      3  C   UNL     1       6.750   5.575  18.299  0.00  0.00    +0.000 A 
ATOM      4  C   UNL     1       7.125   5.334  16.970  0.00  0.00    +0.000 A 
ATOM      5  C   UNL     1       6.134   5.001  16.039  0.00  0.00    +0.000 A 
ATOM      6  C   UNL     1       4.785   4.915  16.421  0.00  0.00    +0.000 A 
ENDROOT
BRANCH   3   7
ATOM      7  N   UNL     1       7.770   5.978  19.277  0.00  0.00    +0.000 N 
ATOM      8  O   UNL     1       7.861   5.316  20.319  0.00  0.00    +0.000 OA
ATOM      9  O   UNL     1       8.468   6.962  19.002  0.00  0.00    +0.000 OA
ENDBRANCH   3   7
BRANCH   5  10
ATOM     10  N   UNL     1       6.503   4.775  14.634  0.00  0.00    +0.000 N 
ATOM     11  O   UNL     1       5.742   4.082  13.946  0.00  0.00    +0.000 OA
ATOM     12  O   UNL     1       7.554   5.288  14.228  0.00  0.00    +0.000 OA
ENDBRANCH   5  10
BRANCH   1  14
ATOM     13  O   UNL     1       2.130   4.484  17.716  0.00  0.00    +0.000 OA
ATOM     14  C   UNL     1       2.994   5.197  18.196  0.00  0.00    +0.000 C 
BRANCH  14  15
ATOM     15  O   UNL     1       2.883   6.075  19.262  0.00  0.00    +0.000 OA
BRANCH  15  16
ATOM     16  C   UNL     1       2.225   7.329  19.267  0.00  0.00    +0.000 A 
ATOM     17  C   UNL     1       2.259   8.005  18.044  0.00  0.00    +0.000 A 
ATOM     18  C   UNL     1       1.696   9.276  17.939  0.00  0.00    +0.000 A 
ATOM     19  C   UNL     1       1.095   9.861  19.052  0.00  0.00    +0.000 A 
ATOM     20  C   UNL     1       1.048   9.171  20.264  0.00  0.00    +0.000 A 
ATOM     21  C   UNL     1       1.614   7.899  20.377  0.00  0.00    +0.000 A 
ENDBRANCH  15  16
ENDBRANCH  14  15
ENDBRANCH   1  14
TORSDOF 5
ENDMDL
MODEL 9
REMARK VINA RESULT:      -7.5      1.568      2.589
REMARK  Name = 
REMARK  5 active torsions:
REMARK  status: ('A' for Active; 'I' for Inactive)
REMARK    1  A    between atoms: C_2  and  O_3
REMARK    2  A    between atoms: C_2  and  C_10
REMARK    3  A    between atoms: O_3  and  C_4
REMARK    4  A    between atoms: C_12  and  N_13
REMARK    5  A    between atoms: C_17  and  N_18
REMARK                            x       y       z     vdW  Elec       q    Type
REMARK                         _______ _______ _______ _____ _____    ______ ____
ROOT
ATOM      1  C   UNL     1       4.587   6.010  17.428  0.00  0.00    +0.000 A 
ATOM      2  C   UNL     1       5.513   5.774  18.456  0.00  0.00    +0.000 A 
ATOM      3  C   UNL     1       6.788   5.274  18.148  0.00  0.00    +0.000 A 
ATOM      4  C   UNL     1       7.144   4.978  16.825  0.00  0.00    +0.000 A 
ATOM      5  C   UNL     1       6.206   5.194  15.809  0.00  0.00    +0.000 A 
ATOM      6  C   UNL     1       4.930   5.705  16.102  0.00  0.00    +0.000 A 
ENDROOT
BRANCH   3   7
ATOM      7  N   UNL     1       7.779   5.103  19.220  0.00  0.00    +0.000 N 
ATOM      8  O   UNL     1       8.821   4.494  18.948  0.00  0.00    +0.000 OA
ATOM      9  O   UNL     1       7.503   5.571  20.332  0.00  0.00    +0.000 OA
ENDBRANCH   3   7
BRANCH   5  10
ATOM     10  N   UNL     1       6.570   4.919  14.411  0.00  0.00    +0.000 N 
ATOM     11  O   UNL     1       5.820   4.183  13.758  0.00  0.00    +0.000 OA
ATOM     12  O   UNL     1       7.607   5.439  13.978  0.00  0.00    +0.000 OA
ENDBRANCH   5  10
BRANCH   1  14
ATOM     13  O   UNL     1       3.168   7.848  17.989  0.00  0.00    +0.000 OA
ATOM     14  C   UNL     1       3.289   6.651  17.791  0.00  0.00    +0.000 C 
BRANCH  14  15
ATOM     15  O   UNL     1       2.298   5.683  17.766  0.00  0.00    +0.000 OA
BRANCH  15  16
ATOM     16  C   UNL     1       1.996   4.747  18.784  0.00  0.00    +0.000 A 
ATOM     17  C   UNL     1       1.653   3.475  18.317  0.00  0.00    +0.000 A 
ATOM     18  C   UNL     1       1.279   2.483  19.222  0.00  0.00    +0.000 A 
ATOM     19  C   UNL     1       1.257   2.764  20.587  0.00  0.00    +0.000 A 
ATOM     20  C   UNL     1       1.620   4.031  21.046  0.00  0.00    +0.000 A 
ATOM     21  C   UNL     1       1.992   5.031  20.144  0.00  0.00    +0.000 A 
ENDBRANCH  15  16
ENDBRANCH  14  15
ENDBRANCH   1  14
TORSDOF 5
ENDMDL
