MODEL 1
REMARK VINA RESULT:      -7.4      0.000      0.000
REMARK  Name = 
REMARK  8 active torsions:
REMARK  status: ('A' for Active; 'I' for Inactive)
REMARK    1  A    between atoms: C_2  and  C_10
REMARK    2  A    between atoms: N_3  and  C_4
REMARK    3  A    between atoms: C_4  and  C_5
REMARK    4  A    between atoms: C_5  and  N_6
REMARK    5  A    between atoms: N_6  and  C_7
REMARK    6  A    between atoms: C_7  and  C_8
REMARK    7  A    between atoms: C_8  and  O_9
REMARK    8  A    between atoms: C_11  and  O_12
REMARK                            x       y       z     vdW  Elec       q    Type
REMARK                         _______ _______ _______ _____ _____    ______ ____
ROOT
ATOM      1  C   UNL     1       4.588   4.517  17.231  0.00  0.00    +0.000 A 
ATOM      2  C   UNL     1       4.062   3.431  17.829  0.00  0.00    +0.000 A 
ATOM      3  C   UNL     1       3.041   3.580  18.881  0.00  0.00    +0.000 A 
ATOM      4  C   UNL     1       2.504   2.461  19.536  0.00  0.00    +0.000 A 
ATOM      5  C   UNL     1       1.587   2.617  20.570  0.00  0.00    +0.000 A 
ATOM      6  C   UNL     1       1.198   3.893  20.957  0.00  0.00    +0.000 A 
ATOM      7  C   UNL     1       1.722   5.031  20.318  0.00  0.00    +0.000 A 
ATOM      8  C   UNL     1       2.642   4.870  19.279  0.00  0.00    +0.000 A 
ATOM      9  N   UNL     1       3.183   5.995  18.616  0.00  0.00    +0.000 N 
ATOM     10  C   UNL     1       4.096   5.879  17.588  0.00  0.00    +0.000 A 
ATOM     11  O   UNL     1       4.524   6.861  16.973  0.00  0.00    +0.000 OA
ATOM     12  C   UNL     1       2.844   7.348  18.998  0.00  0.00    +0.000 C 
ATOM     13  C   UNL     1       1.837   7.580  20.107  0.00  0.00    +0.000 C 
ATOM     14  C   UNL     1       1.270   6.368  20.810  0.00  0.00    +0.000 C 
ENDROOT
BRANCH   1  16
ATOM     15  O   UNL     1       6.875   4.282  16.675  0.00  0.00    +0.000 OA
ATOM     16  C   UNL     1       5.709   4.354  16.267  0.00  0.00    +0.000 C 
ATOM     17  N   UNL     1       5.395   4.303  14.939  0.00  0.00    +0.000 N 
ATOM     18  H   UNL     1       4.459   4.591  14.651  0.00  0.00    +0.000 HD
BRANCH  17  19
ATOM     19  C   UNL     1       6.407   4.091  13.929  0.00  0.00    +0.000 C 
BRANCH  19  20
ATOM     20  C   UNL     1       5.836   3.650  12.567  0.00  0.00    +0.000 C 
BRANCH  20  21
ATOM     21  N   UNL     1       6.538   2.467  12.040  0.00  0.00    +0.000 NA
ATOM     22  H   UNL     1       6.920   1.944  12.825  0.00  0.00    +0.000 HD
BRANCH  21  23
ATOM     23  C   UNL     1       5.619   1.613  11.269  0.00  0.00    +0.000 C 
BRANCH  23  24
ATOM     24  C   UNL     1       6.289   0.285  10.896  0.00  0.00    +0.000 C 
BRANCH  24  25
ATOM     25  O   UNL     1       6.082  -0.689  11.917  0.00  0.00    +0.000 OA
ATOM     26  H   UNL     1       6.542  -0.353  12.705  0.00  0.00    +0.000 HD
ENDBRANCH  24  25
ENDBRANCH  23  24
ENDBRANCH  21  23
ENDBRANCH  20  21
ENDBRANCH  19  20
ENDBRANCH  17  19
ENDBRANCH   1  16
BRANCH   2  27
ATOM     27  O   UNL     1       4.429   2.120  17.548  0.00  0.00    +0.000 OA
ATOM     28  H   UNL     1       5.300   2.126  17.092  0.00  0.00    +0.000 HD
ENDBRANCH   2  27
TORSDOF 8
ENDMDL
MODEL 2
REMARK VINA RESULT:      -7.3      1.313      2.987
REMARK  Name = 
REMARK  8 active torsions:
REMARK  status: ('A' for Active; 'I' for Inactive)
REMARK    1  A    between atoms: C_2  and  C_10
REMARK    2  A    between atoms: N_3  and  C_4
REMARK    3  A    between atoms: C_4  and  C_5
REMARK    4  A    between atoms: C_5  and  N_6
REMARK    5  A    between atoms: N_6  and  C_7
REMARK    6  A    between atoms: C_7  and  C_8
REMARK    7  A    between atoms: C_8  and  O_9
REMARK    8  A    between atoms: C_11  and  O_12
REMARK                            x       y       z     vdW  Elec       q    Type
REMARK                         _______ _______ _______ _____ _____    ______ ____
ROOT
ATOM      1  C   UNL     1       4.514   5.341  16.899  0.00  0.00    +0.000 A 
ATOM      2  C   UNL     1       4.045   6.323  17.692  0.00  0.00    +0.000 A 
ATOM      3  C   UNL     1       3.073   6.021  18.756  0.00  0.00    +0.000 A 
ATOM      4  C   UNL     1       2.551   7.036  19.573  0.00  0.00    +0.000 A 
ATOM      5  C   UNL     1       1.586   6.748  20.534  0.00  0.00    +0.000 A 
ATOM      6  C   UNL     1       1.137   5.443  20.687  0.00  0.00    +0.000 A 
ATOM      7  C   UNL     1       1.642   4.407  19.880  0.00  0.00    +0.000 A 
ATOM      8  C   UNL     1       2.611   4.700  18.918  0.00  0.00    +0.000 A 
ATOM      9  N   UNL     1       3.140   3.680  18.095  0.00  0.00    +0.000 N 
ATOM     10  C   UNL     1       4.097   3.928  17.131  0.00  0.00    +0.000 A 
ATOM     11  O   UNL     1       4.597   3.026  16.453  0.00  0.00    +0.000 OA
ATOM     12  C   UNL     1       2.686   2.310  18.183  0.00  0.00    +0.000 C 
ATOM     13  C   UNL     1       1.650   1.933  19.223  0.00  0.00    +0.000 C 
ATOM     14  C   UNL     1       1.090   3.035  20.092  0.00  0.00    +0.000 C 
ENDROOT
BRANCH   1  16
ATOM     15  O   UNL     1       5.193   6.717  15.099  0.00  0.00    +0.000 OA
ATOM     16  C   UNL     1       5.392   5.683  15.748  0.00  0.00    +0.000 C 
ATOM     17  N   UNL     1       6.396   4.809  15.440  0.00  0.00    +0.000 N 
ATOM     18  H   UNL     1       6.372   3.878  15.857  0.00  0.00    +0.000 HD
BRANCH  17  19
ATOM     19  C   UNL     1       7.336   5.080  14.376  0.00  0.00    +0.000 C 
BRANCH  19  20
ATOM     20  C   UNL     1       6.894   4.525  13.008  0.00  0.00    +0.000 C 
BRANCH  20  21
ATOM     21  N   UNL     1       6.115   3.283  13.151  0.00  0.00    +0.000 NA
ATOM     22  H   UNL     1       5.406   3.429  13.866  0.00  0.00    +0.000 HD
BRANCH  21  23
ATOM     23  C   UNL     1       5.474   2.917  11.877  0.00  0.00    +0.000 C 
BRANCH  23  24
ATOM     24  C   UNL     1       5.930   1.528  11.413  0.00  0.00    +0.000 C 
BRANCH  24  25
ATOM     25  O   UNL     1       7.342   1.504  11.207  0.00  0.00    +0.000 OA
ATOM     26  H   UNL     1       7.740   1.812  12.039  0.00  0.00    +0.000 HD
ENDBRANCH  24  25
ENDBRANCH  23  24
ENDBRANCH  21  23
ENDBRANCH  20  21
ENDBRANCH  19  20
ENDBRANCH  17  19
ENDBRANCH   1  16
BRANCH   2  27
ATOM     27  O   UNL     1       4.394   7.663  17.577  0.00  0.00    +0.000 OA
ATOM     28  H   UNL     1       5.334   7.724  17.299  0.00  0.00    +0.000 HD
ENDBRANCH   2  27
TORSDOF 8
ENDMDL
MODEL 3
REMARK VINA RESULT:      -7.1      1.514      1.631
REMARK  Name = 
REMARK  8 active torsions:
REMARK  status: ('A' for Active; 'I' for Inactive)
REMARK    1  A    between atoms: C_2  and  C_10
REMARK    2  A    between atoms: N_3  and  C_4
REMARK    3  A    between atoms: C_4  and  C_5
REMARK    4  A    between atoms: C_5  and  N_6
REMARK    5  A    between atoms: N_6  and  C_7
REMARK    6  A    between atoms: C_7  and  C_8
REMARK    7  A    between atoms: C_8  and  O_9
REMARK    8  A    between atoms: C_11  and  O_12
REMARK                            x       y       z     vdW  Elec       q    Type
REMARK                         _______ _______ _______ _____ _____    ______ ____
ROOT
ATOM      1  C   UNL     1       4.693   4.586  17.155  0.00  0.00    +0.000 A 
ATOM      2  C   UNL     1       4.126   3.459  17.626  0.00  0.00    +0.000 A 
ATOM      3  C   UNL     1       3.052   3.528  18.631  0.00  0.00    +0.000 A 
ATOM      4  C   UNL     1       2.470   2.363  19.155  0.00  0.00    +0.000 A 
ATOM      5  C   UNL     1       1.500   2.440  20.150  0.00  0.00    +0.000 A 
ATOM      6  C   UNL     1       1.101   3.682  20.626  0.00  0.00    +0.000 A 
ATOM      7  C   UNL     1       1.669   4.865  20.119  0.00  0.00    +0.000 A 
ATOM      8  C   UNL     1       2.642   4.783  19.120  0.00  0.00    +0.000 A 
ATOM      9  N   UNL     1       3.228   5.955  18.589  0.00  0.00    +0.000 N 
ATOM     10  C   UNL     1       4.194   5.917  17.604  0.00  0.00    +0.000 A 
ATOM     11  O   UNL     1       4.663   6.944  17.102  0.00  0.00    +0.000 OA
ATOM     12  C   UNL     1       2.881   7.274  19.070  0.00  0.00    +0.000 C 
ATOM     13  C   UNL     1       1.817   7.421  20.140  0.00  0.00    +0.000 C 
ATOM     14  C   UNL     1       1.203   6.159  20.702  0.00  0.00    +0.000 C 
ENDROOT
BRANCH   1  16
ATOM     15  O   UNL     1       6.984   4.221  16.691  0.00  0.00    +0.000 OA
ATOM     16  C   UNL     1       5.863   4.493  16.242  0.00  0.00    +0.000 C 
ATOM     17  N   UNL     1       5.646   4.732  14.915  0.00  0.00    +0.000 N 
ATOM     18  H   UNL     1       4.766   5.168  14.639  0.00  0.00    +0.000 HD
BRANCH  17  19
ATOM     19  C   UNL     1       6.708   4.612  13.939  0.00  0.00    +0.000 C 
BRANCH  19  20
ATOM     20  C   UNL     1       6.359   3.683  12.761  0.00  0.00    +0.000 C 
BRANCH  20  21
ATOM     21  N   UNL     1       4.902   3.527  12.604  0.00  0.00    +0.000 NA
ATOM     22  H   UNL     1       4.476   4.451  12.626  0.00  0.00    +0.000 HD
BRANCH  21  23
ATOM     23  C   UNL     1       4.581   2.857  11.333  0.00  0.00    +0.000 C 
BRANCH  23  24
ATOM     24  C   UNL     1       3.199   3.284  10.823  0.00  0.00    +0.000 C 
BRANCH  24  25
ATOM     25  O   UNL     1       3.323   4.244   9.776  0.00  0.00    +0.000 OA
ATOM     26  H   UNL     1       2.541   4.819   9.845  0.00  0.00    +0.000 HD
ENDBRANCH  24  25
ENDBRANCH  23  24
ENDBRANCH  21  23
ENDBRANCH  20  21
ENDBRANCH  19  20
ENDBRANCH  17  19
ENDBRANCH   1  16
BRANCH   2  27
ATOM     27  O   UNL     1       4.498   2.173  17.250  0.00  0.00    +0.000 OA
ATOM     28  H   UNL     1       4.902   1.721  18.024  0.00  0.00    +0.000 HD
ENDBRANCH   2  27
TORSDOF 8
ENDMDL
MODEL 4
REMARK VINA RESULT:      -7.1      1.806      3.286
REMARK  Name = 
REMARK  8 active torsions:
REMARK  status: ('A' for Active; 'I' for Inactive)
REMARK    1  A    between atoms: C_2  and  C_10
REMARK    2  A    between atoms: N_3  and  C_4
REMARK    3  A    between atoms: C_4  and  C_5
REMARK    4  A    between atoms: C_5  and  N_6
REMARK    5  A    between atoms: N_6  and  C_7
REMARK    6  A    between atoms: C_7  and  C_8
REMARK    7  A    between atoms: C_8  and  O_9
REMARK    8  A    between atoms: C_11  and  O_12
REMARK                            x       y       z     vdW  Elec       q    Type
REMARK                         _______ _______ _______ _____ _____    ______ ____
ROOT
ATOM      1  C   UNL     1       4.813   4.912  16.963  0.00  0.00    +0.000 A 
ATOM      2  C   UNL     1       4.383   6.032  17.573  0.00  0.00    +0.000 A 
ATOM      3  C   UNL     1       3.354   5.960  18.624  0.00  0.00    +0.000 A 
ATOM      4  C   UNL     1       2.872   7.121  19.250  0.00  0.00    +0.000 A 
ATOM      5  C   UNL     1       1.855   7.046  20.197  0.00  0.00    +0.000 A 
ATOM      6  C   UNL     1       1.313   5.811  20.527  0.00  0.00    +0.000 A 
ATOM      7  C   UNL     1       1.777   4.633  19.914  0.00  0.00    +0.000 A 
ATOM      8  C   UNL     1       2.798   4.712  18.964  0.00  0.00    +0.000 A 
ATOM      9  N   UNL     1       3.287   3.545  18.334  0.00  0.00    +0.000 N 
ATOM     10  C   UNL     1       4.293   3.581  17.390  0.00  0.00    +0.000 A 
ATOM     11  O   UNL     1       4.757   2.555  16.882  0.00  0.00    +0.000 OA
ATOM     12  C   UNL     1       2.739   2.236  18.610  0.00  0.00    +0.000 C 
ATOM     13  C   UNL     1       1.641   2.090  19.645  0.00  0.00    +0.000 C 
ATOM     14  C   UNL     1       1.125   3.347  20.308  0.00  0.00    +0.000 C 
ENDROOT
BRANCH   1  16
ATOM     15  O   UNL     1       6.684   5.831  15.844  0.00  0.00    +0.000 OA
ATOM     16  C   UNL     1       5.754   5.015  15.815  0.00  0.00    +0.000 C 
ATOM     17  N   UNL     1       5.537   4.193  14.747  0.00  0.00    +0.000 N 
ATOM     18  H   UNL     1       4.639   3.712  14.681  0.00  0.00    +0.000 HD
BRANCH  17  19
ATOM     19  C   UNL     1       6.428   4.179  13.607  0.00  0.00    +0.000 C 
BRANCH  19  20
ATOM     20  C   UNL     1       5.903   3.342  12.425  0.00  0.00    +0.000 C 
BRANCH  20  21
ATOM     21  N   UNL     1       4.445   3.482  12.265  0.00  0.00    +0.000 NA
ATOM     22  H   UNL     1       4.202   4.464  12.376  0.00  0.00    +0.000 HD
BRANCH  21  23
ATOM     23  C   UNL     1       4.016   3.008  10.939  0.00  0.00    +0.000 C 
BRANCH  23  24
ATOM     24  C   UNL     1       3.302   4.122  10.164  0.00  0.00    +0.000 C 
BRANCH  24  25
ATOM     25  O   UNL     1       2.819   3.636   8.912  0.00  0.00    +0.000 OA
ATOM     26  H   UNL     1       2.072   3.051   9.121  0.00  0.00    +0.000 HD
ENDBRANCH  24  25
ENDBRANCH  23  24
ENDBRANCH  21  23
ENDBRANCH  20  21
ENDBRANCH  19  20
ENDBRANCH  17  19
ENDBRANCH   1  16
BRANCH   2  27
ATOM     27  O   UNL     1       4.825   7.314  17.270  0.00  0.00    +0.000 OA
ATOM     28  H   UNL     1       5.200   7.314  16.361  0.00  0.00    +0.000 HD
ENDBRANCH   2  27
TORSDOF 8
ENDMDL
MODEL 5
REMARK VINA RESULT:      -7.0      1.457      1.707
REMARK  Name = 
REMARK  8 active torsions:
REMARK  status: ('A' for Active; 'I' for Inactive)
REMARK    1  A    between atoms: C_2  and  C_10
REMARK    2  A    between atoms: N_3  and  C_4
REMARK    3  A    between atoms: C_4  and  C_5
REMARK    4  A    between atoms: C_5  and  N_6
REMARK    5  A    between atoms: N_6  and  C_7
REMARK    6  A    between atoms: C_7  and  C_8
REMARK    7  A    between atoms: C_8  and  O_9
REMARK    8  A    between atoms: C_11  and  O_12
REMARK                            x       y       z     vdW  Elec       q    Type
REMARK                         _______ _______ _______ _____ _____    ______ ____
ROOT
ATOM      1  C   UNL     1       4.953   4.995  17.207  0.00  0.00    +0.000 A 
ATOM      2  C   UNL     1       4.512   4.199  18.200  0.00  0.00    +0.000 A 
ATOM      3  C   UNL     1       3.483   4.679  19.139  0.00  0.00    +0.000 A 
ATOM      4  C   UNL     1       3.033   3.874  20.197  0.00  0.00    +0.000 A 
ATOM      5  C   UNL     1       2.107   4.361  21.115  0.00  0.00    +0.000 A 
ATOM      6  C   UNL     1       1.621   5.655  20.980  0.00  0.00    +0.000 A 
ATOM      7  C   UNL     1       2.057   6.483  19.930  0.00  0.00    +0.000 A 
ATOM      8  C   UNL     1       2.986   5.990  19.010  0.00  0.00    +0.000 A 
ATOM      9  N   UNL     1       3.440   6.798  17.942  0.00  0.00    +0.000 N 
ATOM     10  C   UNL     1       4.358   6.349  17.015  0.00  0.00    +0.000 A 
ATOM     11  O   UNL     1       4.710   7.037  16.051  0.00  0.00    +0.000 OA
ATOM     12  C   UNL     1       2.998   8.164  17.771  0.00  0.00    +0.000 C 
ATOM     13  C   UNL     1       1.976   8.743  18.729  0.00  0.00    +0.000 C 
ATOM     14  C   UNL     1       1.504   7.870  19.869  0.00  0.00    +0.000 C 
ENDROOT
BRANCH   1  16
ATOM     15  O   UNL     1       7.198   4.342  16.849  0.00  0.00    +0.000 OA
ATOM     16  C   UNL     1       6.083   4.545  16.352  0.00  0.00    +0.000 C 
ATOM     17  N   UNL     1       5.838   4.383  15.018  0.00  0.00    +0.000 N 
ATOM     18  H   UNL     1       4.979   4.777  14.633  0.00  0.00    +0.000 HD
BRANCH  17  19
ATOM     19  C   UNL     1       6.855   3.896  14.114  0.00  0.00    +0.000 C 
BRANCH  19  20
ATOM     20  C   UNL     1       6.448   3.971  12.630  0.00  0.00    +0.000 C 
BRANCH  20  21
ATOM     21  N   UNL     1       6.600   2.669  11.957  0.00  0.00    +0.000 NA
ATOM     22  H   UNL     1       6.977   2.003  12.628  0.00  0.00    +0.000 HD
BRANCH  21  23
ATOM     23  C   UNL     1       5.305   2.189  11.448  0.00  0.00    +0.000 C 
BRANCH  23  24
ATOM     24  C   UNL     1       4.234   3.281  11.558  0.00  0.00    +0.000 C 
BRANCH  24  25
ATOM     25  O   UNL     1       3.392   3.280  10.406  0.00  0.00    +0.000 OA
ATOM     26  H   UNL     1       3.983   3.385   9.642  0.00  0.00    +0.000 HD
ENDBRANCH  24  25
ENDBRANCH  23  24
ENDBRANCH  21  23
ENDBRANCH  20  21
ENDBRANCH  19  20
ENDBRANCH  17  19
ENDBRANCH   1  16
BRANCH   2  27
ATOM     27  O   UNL     1       4.979   2.914  18.446  0.00  0.00    +0.000 OA
ATOM     28  H   UNL     1       4.218   2.341  18.690  0.00  0.00    +0.000 HD
ENDBRANCH   2  27
TORSDOF 8
ENDMDL
MODEL 6
REMARK VINA RESULT:      -7.0      0.925      1.080
REMARK  Name = 
REMARK  8 active torsions:
REMARK  status: ('A' for Active; 'I' for Inactive)
REMARK    1  A    between atoms: C_2  and  C_10
REMARK    2  A    between atoms: N_3  and  C_4
REMARK    3  A    between atoms: C_4  and  C_5
REMARK    4  A    between atoms: C_5  and  N_6
REMARK    5  A    between atoms: N_6  and  C_7
REMARK    6  A    between atoms: C_7  and  C_8
REMARK    7  A    between atoms: C_8  and  O_9
REMARK    8  A    between atoms: C_11  and  O_12
REMARK                            x       y       z     vdW  Elec       q    Type
REMARK                         _______ _______ _______ _____ _____    ______ ____
ROOT
ATOM      1  C   UNL     1       4.457   4.235  17.149  0.00  0.00    +0.000 A 
ATOM      2  C   UNL     1       3.959   3.201  17.854  0.00  0.00    +0.000 A 
ATOM      3  C   UNL     1       3.013   3.438  18.957  0.00  0.00    +0.000 A 
ATOM      4  C   UNL     1       2.506   2.376  19.722  0.00  0.00    +0.000 A 
ATOM      5  C   UNL     1       1.662   2.617  20.801  0.00  0.00    +0.000 A 
ATOM      6  C   UNL     1       1.315   3.923  21.124  0.00  0.00    +0.000 A 
ATOM      7  C   UNL     1       1.810   5.006  20.375  0.00  0.00    +0.000 A 
ATOM      8  C   UNL     1       2.656   4.759  19.291  0.00  0.00    +0.000 A 
ATOM      9  N   UNL     1       3.166   5.828  18.519  0.00  0.00    +0.000 N 
ATOM     10  C   UNL     1       4.007   5.626  17.443  0.00  0.00    +0.000 A 
ATOM     11  O   UNL     1       4.405   6.557  16.735  0.00  0.00    +0.000 OA
ATOM     12  C   UNL     1       2.870   7.209  18.827  0.00  0.00    +0.000 C 
ATOM     13  C   UNL     1       1.942   7.532  19.981  0.00  0.00    +0.000 C 
ATOM     14  C   UNL     1       1.408   6.381  20.801  0.00  0.00    +0.000 C 
ENDROOT
BRANCH   1  16
ATOM     15  O   UNL     1       5.580   2.892  15.558  0.00  0.00    +0.000 OA
ATOM     16  C   UNL     1       5.510   3.988  16.128  0.00  0.00    +0.000 C 
ATOM     17  N   UNL     1       6.385   5.004  15.867  0.00  0.00    +0.000 N 
ATOM     18  H   UNL     1       6.422   5.790  16.517  0.00  0.00    +0.000 HD
BRANCH  17  19
ATOM     19  C   UNL     1       7.408   4.881  14.852  0.00  0.00    +0.000 C 
BRANCH  19  20
ATOM     20  C   UNL     1       6.851   4.857  13.416  0.00  0.00    +0.000 C 
BRANCH  20  21
ATOM     21  N   UNL     1       6.851   3.495  12.856  0.00  0.00    +0.000 NA
ATOM     22  H   UNL     1       6.966   2.833  13.620  0.00  0.00    +0.000 HD
BRANCH  21  23
ATOM     23  C   UNL     1       5.593   3.222  12.142  0.00  0.00    +0.000 C 
BRANCH  23  24
ATOM     24  C   UNL     1       5.680   1.905  11.362  0.00  0.00    +0.000 C 
BRANCH  24  25
ATOM     25  O   UNL     1       7.024   1.428  11.326  0.00  0.00    +0.000 OA
ATOM     26  H   UNL     1       7.089   0.757  12.027  0.00  0.00    +0.000 HD
ENDBRANCH  24  25
ENDBRANCH  23  24
ENDBRANCH  21  23
ENDBRANCH  20  21
ENDBRANCH  19  20
ENDBRANCH  17  19
ENDBRANCH   1  16
BRANCH   2  27
ATOM     27  O   UNL     1       4.291   1.869  17.640  0.00  0.00    +0.000 OA
ATOM     28  H   UNL     1       5.268   1.792  17.574  0.00  0.00    +0.000 HD
ENDBRANCH   2  27
TORSDOF 8
ENDMDL
MODEL 7
REMARK VINA RESULT:      -7.0      3.924      5.943
REMARK  Name = 
REMARK  8 active torsions:
REMARK  status: ('A' for Active; 'I' for Inactive)
REMARK    1  A    between atoms: C_2  and  C_10
REMARK    2  A    between atoms: N_3  and  C_4
REMARK    3  A    between atoms: C_4  and  C_5
REMARK    4  A    between atoms: C_5  and  N_6
REMARK    5  A    between atoms: N_6  and  C_7
REMARK    6  A    between atoms: C_7  and  C_8
REMARK    7  A    between atoms: C_8  and  O_9
REMARK    8  A    between atoms: C_11  and  O_12
REMARK                            x       y       z     vdW  Elec       q    Type
REMARK                         _______ _______ _______ _____ _____    ______ ____
ROOT
ATOM      1  C   UNL     1       2.512   6.991  19.124  0.00  0.00    +0.000 A 
ATOM      2  C   UNL     1       1.874   6.958  20.310  0.00  0.00    +0.000 A 
ATOM      3  C   UNL     1       1.151   8.144  20.800  0.00  0.00    +0.000 A 
ATOM      4  C   UNL     1       0.506   8.138  22.047  0.00  0.00    +0.000 A 
ATOM      5  C   UNL     1      -0.120   9.284  22.527  0.00  0.00    +0.000 A 
ATOM      6  C   UNL     1      -0.110  10.444  21.764  0.00  0.00    +0.000 A 
ATOM      7  C   UNL     1       0.530  10.477  20.512  0.00  0.00    +0.000 A 
ATOM      8  C   UNL     1       1.157   9.325  20.033  0.00  0.00    +0.000 A 
ATOM      9  N   UNL     1       1.805   9.327  18.776  0.00  0.00    +0.000 N 
ATOM     10  C   UNL     1       2.439   8.211  18.269  0.00  0.00    +0.000 A 
ATOM     11  O   UNL     1       2.955   8.200  17.147  0.00  0.00    +0.000 OA
ATOM     12  C   UNL     1       1.881  10.514  17.953  0.00  0.00    +0.000 C 
ATOM     13  C   UNL     1       1.201  11.787  18.417  0.00  0.00    +0.000 C 
ATOM     14  C   UNL     1       0.516  11.771  19.764  0.00  0.00    +0.000 C 
ENDROOT
BRANCH   1  16
ATOM     15  O   UNL     1       4.395   5.572  19.306  0.00  0.00    +0.000 OA
ATOM     16  C   UNL     1       3.345   5.832  18.706  0.00  0.00    +0.000 C 
ATOM     17  N   UNL     1       2.910   5.095  17.641  0.00  0.00    +0.000 N 
ATOM     18  H   UNL     1       2.172   5.483  17.053  0.00  0.00    +0.000 HD
BRANCH  17  19
ATOM     19  C   UNL     1       3.620   3.917  17.194  0.00  0.00    +0.000 C 
BRANCH  19  20
ATOM     20  C   UNL     1       3.349   2.670  18.056  0.00  0.00    +0.000 C 
BRANCH  20  21
ATOM     21  N   UNL     1       2.053   2.051  17.725  0.00  0.00    +0.000 NA
ATOM     22  H   UNL     1       2.179   1.042  17.689  0.00  0.00    +0.000 HD
BRANCH  21  23
ATOM     23  C   UNL     1       1.036   2.393  18.732  0.00  0.00    +0.000 C 
BRANCH  23  24
ATOM     24  C   UNL     1       1.657   2.475  20.132  0.00  0.00    +0.000 C 
BRANCH  24  25
ATOM     25  O   UNL     1       0.748   3.073  21.054  0.00  0.00    +0.000 OA
ATOM     26  H   UNL     1       0.853   2.587  21.889  0.00  0.00    +0.000 HD
ENDBRANCH  24  25
ENDBRANCH  23  24
ENDBRANCH  21  23
ENDBRANCH  20  21
ENDBRANCH  19  20
ENDBRANCH  17  19
ENDBRANCH   1  16
BRANCH   2  27
ATOM     27  O   UNL     1       1.857   5.863  21.165  0.00  0.00    +0.000 OA
ATOM     28  H   UNL     1       1.146   5.992  21.831  0.00  0.00    +0.000 HD
ENDBRANCH   2  27
TORSDOF 8
ENDMDL
MODEL 8
REMARK VINA RESULT:      -7.0      4.399      6.674
REMARK  Name = 
REMARK  8 active torsions:
REMARK  status: ('A' for Active; 'I' for Inactive)
REMARK    1  A    between atoms: C_2  and  C_10
REMARK    2  A    between atoms: N_3  and  C_4
REMARK    3  A    between atoms: C_4  and  C_5
REMARK    4  A    between atoms: C_5  and  N_6
REMARK    5  A    between atoms: N_6  and  C_7
REMARK    6  A    between atoms: C_7  and  C_8
REMARK    7  A    between atoms: C_8  and  O_9
REMARK    8  A    between atoms: C_11  and  O_12
REMARK                            x       y       z     vdW  Elec       q    Type
REMARK                         _______ _______ _______ _____ _____    ______ ____
ROOT
ATOM      1  C   UNL     1       1.992   7.996  19.118  0.00  0.00    +0.000 A 
ATOM      2  C   UNL     1       1.553   7.770  20.371  0.00  0.00    +0.000 A 
ATOM      3  C   UNL     1       0.829   8.819  21.108  0.00  0.00    +0.000 A 
ATOM      4  C   UNL     1       0.391   8.611  22.426  0.00  0.00    +0.000 A 
ATOM      5  C   UNL     1      -0.237   9.632  23.133  0.00  0.00    +0.000 A 
ATOM      6  C   UNL     1      -0.434  10.867  22.530  0.00  0.00    +0.000 A 
ATOM      7  C   UNL     1      -0.003  11.102  21.212  0.00  0.00    +0.000 A 
ATOM      8  C   UNL     1       0.626  10.074  20.504  0.00  0.00    +0.000 A 
ATOM      9  N   UNL     1       1.067  10.280  19.176  0.00  0.00    +0.000 N 
ATOM     10  C   UNL     1       1.694   9.292  18.445  0.00  0.00    +0.000 A 
ATOM     11  O   UNL     1       2.027   9.457  17.267  0.00  0.00    +0.000 OA
ATOM     12  C   UNL     1       0.923  11.554  18.508  0.00  0.00    +0.000 C 
ATOM     13  C   UNL     1       0.230  12.697  19.223  0.00  0.00    +0.000 C 
ATOM     14  C   UNL     1      -0.231  12.465  20.643  0.00  0.00    +0.000 C 
ENDROOT
BRANCH   1  16
ATOM     15  O   UNL     1       3.955   7.276  18.012  0.00  0.00    +0.000 OA
ATOM     16  C   UNL     1       2.834   6.975  18.440  0.00  0.00    +0.000 C 
ATOM     17  N   UNL     1       2.313   5.720  18.302  0.00  0.00    +0.000 N 
ATOM     18  H   UNL     1       1.314   5.589  18.465  0.00  0.00    +0.000 HD
BRANCH  17  19
ATOM     19  C   UNL     1       3.075   4.644  17.707  0.00  0.00    +0.000 C 
BRANCH  19  20
ATOM     20  C   UNL     1       3.786   3.748  18.739  0.00  0.00    +0.000 C 
BRANCH  20  21
ATOM     21  N   UNL     1       2.874   2.736  19.301  0.00  0.00    +0.000 NA
ATOM     22  H   UNL     1       3.234   1.814  19.066  0.00  0.00    +0.000 HD
BRANCH  21  23
ATOM     23  C   UNL     1       2.772   2.877  20.763  0.00  0.00    +0.000 C 
BRANCH  23  24
ATOM     24  C   UNL     1       1.309   3.028  21.197  0.00  0.00    +0.000 C 
BRANCH  24  25
ATOM     25  O   UNL     1       0.614   3.918  20.326  0.00  0.00    +0.000 OA
ATOM     26  H   UNL     1       0.323   4.663  20.879  0.00  0.00    +0.000 HD
ENDBRANCH  24  25
ENDBRANCH  23  24
ENDBRANCH  21  23
ENDBRANCH  20  21
ENDBRANCH  19  20
ENDBRANCH  17  19
ENDBRANCH   1  16
BRANCH   2  27
ATOM     27  O   UNL     1       1.753   6.588  21.075  0.00  0.00    +0.000 OA
ATOM     28  H   UNL     1       1.417   5.838  20.537  0.00  0.00    +0.000 HD
ENDBRANCH   2  27
TORSDOF 8
ENDMDL
MODEL 9
REMARK VINA RESULT:      -6.9      4.475      6.222
REMARK  Name = 
REMARK  8 active torsions:
REMARK  status: ('A' for Active; 'I' for Inactive)
REMARK    1  A    between atoms: C_2  and  C_10
REMARK    2  A    between atoms: N_3  and  C_4
REMARK    3  A    between atoms: C_4  and  C_5
REMARK    4  A    between atoms: C_5  and  N_6
REMARK    5  A    between atoms: N_6  and  C_7
REMARK    6  A    between atoms: C_7  and  C_8
REMARK    7  A    between atoms: C_8  and  O_9
REMARK    8  A    between atoms: C_11  and  O_12
REMARK                            x       y       z     vdW  Elec       q    Type
REMARK                         _______ _______ _______ _____ _____    ______ ____
ROOT
ATOM      1  C   UNL     1       2.063   8.018  19.106  0.00  0.00    +0.000 A 
ATOM      2  C   UNL     1       1.621   7.793  20.358  0.00  0.00    +0.000 A 
ATOM      3  C   UNL     1       0.858   8.828  21.077  0.00  0.00    +0.000 A 
ATOM      4  C   UNL     1       0.415   8.622  22.392  0.00  0.00    +0.000 A 
ATOM      5  C   UNL     1      -0.251   9.631  23.082  0.00  0.00    +0.000 A 
ATOM      6  C   UNL     1      -0.481  10.852  22.462  0.00  0.00    +0.000 A 
ATOM      7  C   UNL     1      -0.046  11.085  21.145  0.00  0.00    +0.000 A 
ATOM      8  C   UNL     1       0.621  10.069  20.455  0.00  0.00    +0.000 A 
ATOM      9  N   UNL     1       1.067  10.273  19.129  0.00  0.00    +0.000 N 
ATOM     10  C   UNL     1       1.731   9.297  18.414  0.00  0.00    +0.000 A 
ATOM     11  O   UNL     1       2.069   9.458  17.237  0.00  0.00    +0.000 OA
ATOM     12  C   UNL     1       0.889  11.533  18.444  0.00  0.00    +0.000 C 
ATOM     13  C   UNL     1       0.155  12.663  19.139  0.00  0.00    +0.000 C 
ATOM     14  C   UNL     1      -0.312  12.433  20.558  0.00  0.00    +0.000 C 
ENDROOT
BRANCH   1  16
ATOM     15  O   UNL     1       2.701   5.808  18.556  0.00  0.00    +0.000 OA
ATOM     16  C   UNL     1       2.943   7.016  18.447  0.00  0.00    +0.000 C 
ATOM     17  N   UNL     1       4.016   7.486  17.744  0.00  0.00    +0.000 N 
ATOM     18  H   UNL     1       4.292   8.459  17.876  0.00  0.00    +0.000 HD
BRANCH  17  19
ATOM     19  C   UNL     1       4.897   6.596  17.022  0.00  0.00    +0.000 C 
BRANCH  19  20
ATOM     20  C   UNL     1       6.390   6.942  17.184  0.00  0.00    +0.000 C 
BRANCH  20  21
ATOM     21  N   UNL     1       7.253   5.796  16.850  0.00  0.00    +0.000 NA
ATOM     22  H   UNL     1       8.153   6.152  16.536  0.00  0.00    +0.000 HD
BRANCH  21  23
ATOM     23  C   UNL     1       7.441   4.923  18.021  0.00  0.00    +0.000 C 
BRANCH  23  24
ATOM     24  C   UNL     1       7.591   5.751  19.303  0.00  0.00    +0.000 C 
BRANCH  24  25
ATOM     25  O   UNL     1       8.622   5.216  20.131  0.00  0.00    +0.000 OA
ATOM     26  H   UNL     1       8.170   4.789  20.879  0.00  0.00    +0.000 HD
ENDBRANCH  24  25
ENDBRANCH  23  24
ENDBRANCH  21  23
ENDBRANCH  20  21
ENDBRANCH  19  20
ENDBRANCH  17  19
ENDBRANCH   1  16
BRANCH   2  27
ATOM     27  O   UNL     1       1.851   6.627  21.078  0.00  0.00    +0.000 OA
ATOM     28  H   UNL     1       1.246   5.926  20.749  0.00  0.00    +0.000 HD
ENDBRANCH   2  27
TORSDOF 8
ENDMDL
