MODEL 1
REMARK VINA RESULT:      -9.0      0.000      0.000
REMARK  Name = 
REMARK  6 active torsions:
REMARK  status: ('A' for Active; 'I' for Inactive)
REMARK    1  A    between atoms: C_2  and  C_11
REMARK    2  A    between atoms: N_3  and  C_4
REMARK    3  A    between atoms: C_4  and  C_5
REMARK    4  A    between atoms: C_19  and  C_20
REMARK    5  A    between atoms: C_23  and  C_24
REMARK    6  A    between atoms: C_27  and  O_28
REMARK                            x       y       z     vdW  Elec       q    Type
REMARK                         _______ _______ _______ _____ _____    ______ ____
ROOT
ATOM      1  C   UNL     1      -0.317  11.133  20.547  0.00  0.00    +0.000 A 
ATOM      2  C   UNL     1      -0.440  10.387  21.746  0.00  0.00    +0.000 A 
ATOM      3  C   UNL     1       0.138   9.119  21.885  0.00  0.00    +0.000 A 
ATOM      4  C   UNL     1       0.851   8.637  20.812  0.00  0.00    +0.000 A 
ATOM      5  C   UNL     1       0.992   9.377  19.602  0.00  0.00    +0.000 A 
ATOM      6  C   UNL     1       0.403  10.623  19.459  0.00  0.00    +0.000 A 
ATOM      7  C   UNL     1       1.864   8.667  18.556  0.00  0.00    +0.000 C 
ATOM      8  C   UNL     1       2.155   7.445  19.356  0.00  0.00    +0.000 A 
ATOM      9  C   UNL     1       2.851   6.235  19.241  0.00  0.00    +0.000 A 
ATOM     10  N   UNL     1       2.712   5.516  20.388  0.00  0.00    +0.000 NA
ATOM     11  N   UNL     1       1.941   6.291  21.194  0.00  0.00    +0.000 N 
ATOM     12  C   UNL     1       1.589   7.445  20.598  0.00  0.00    +0.000 A 
ATOM     13  H   UNL     1       1.715   5.946  22.123  0.00  0.00    +0.000 HD
ENDROOT
BRANCH   9  14
ATOM     14  C   UNL     1       3.648   5.784  18.114  0.00  0.00    +0.000 A 
ATOM     15  C   UNL     1       4.403   6.683  17.372  0.00  0.00    +0.000 A 
ATOM     16  C   UNL     1       5.070   6.274  16.225  0.00  0.00    +0.000 A 
ATOM     17  C   UNL     1       5.033   4.933  15.791  0.00  0.00    +0.000 A 
ATOM     18  C   UNL     1       4.290   4.023  16.558  0.00  0.00    +0.000 A 
ATOM     19  C   UNL     1       3.611   4.436  17.705  0.00  0.00    +0.000 A 
BRANCH  17  20
ATOM     20  C   UNL     1       5.753   4.545  14.569  0.00  0.00    +0.000 A 
ATOM     21  C   UNL     1       7.011   5.114  14.279  0.00  0.00    +0.000 A 
ATOM     22  C   UNL     1       7.679   4.846  13.086  0.00  0.00    +0.000 A 
ATOM     23  C   UNL     1       7.107   3.980  12.169  0.00  0.00    +0.000 A 
ATOM     24  C   UNL     1       5.882   3.375  12.434  0.00  0.00    +0.000 A 
ATOM     25  C   UNL     1       5.213   3.655  13.627  0.00  0.00    +0.000 A 
BRANCH  23  26
ATOM     26  O   UNL     1       7.718   3.695  10.988  0.00  0.00    +0.000 OA
ATOM     27  H   UNL     1       8.523   3.182  11.174  0.00  0.00    +0.000 HD
ENDBRANCH  23  26
ENDBRANCH  17  20
ENDBRANCH   9  14
BRANCH   1  29
ATOM     28  O   UNL     1      -1.997  12.696  21.034  0.00  0.00    +0.000 OA
ATOM     29  C   UNL     1      -0.907  12.495  20.509  0.00  0.00    +0.000 C 
ATOM     30  N   UNL     1      -0.180  13.481  19.875  0.00  0.00    +0.000 N 
ATOM     31  H   UNL     1       0.719  13.296  19.454  0.00  0.00    +0.000 HD
BRANCH  30  32
ATOM     32  C   UNL     1      -0.706  14.829  19.775  0.00  0.00    +0.000 C 
BRANCH  32  33
ATOM     33  C   UNL     1       0.190  15.782  19.015  0.00  0.00    +0.000 A 
ATOM     34  C   UNL     1       1.550  15.504  18.871  0.00  0.00    +0.000 A 
ATOM     35  C   UNL     1       2.343  16.364  18.118  0.00  0.00    +0.000 A 
ATOM     36  C   UNL     1       1.764  17.479  17.525  0.00  0.00    +0.000 A 
ATOM     37  C   UNL     1       0.410  17.692  17.722  0.00  0.00    +0.000 A 
ATOM     38  N   UNL     1      -0.385  16.881  18.457  0.00  0.00    +0.000 NA
ENDBRANCH  32  33
ENDBRANCH  30  32
ENDBRANCH   1  29
TORSDOF 6
ENDMDL
MODEL 2
REMARK VINA RESULT:      -8.8      2.155      3.044
REMARK  Name = 
REMARK  6 active torsions:
REMARK  status: ('A' for Active; 'I' for Inactive)
REMARK    1  A    between atoms: C_2  and  C_11
REMARK    2  A    between atoms: N_3  and  C_4
REMARK    3  A    between atoms: C_4  and  C_5
REMARK    4  A    between atoms: C_19  and  C_20
REMARK    5  A    between atoms: C_23  and  C_24
REMARK    6  A    between atoms: C_27  and  O_28
REMARK                            x       y       z     vdW  Elec       q    Type
REMARK                         _______ _______ _______ _____ _____    ______ ____
ROOT
ATOM      1  C   UNL     1      -0.087  10.999  20.941  0.00  0.00    +0.000 A 
ATOM      2  C   UNL     1      -0.286  10.170  22.074  0.00  0.00    +0.000 A 
ATOM      3  C   UNL     1       0.211   8.862  22.124  0.00  0.00    +0.000 A 
ATOM      4  C   UNL     1       0.922   8.421  21.032  0.00  0.00    +0.000 A 
ATOM      5  C   UNL     1       1.140   9.244  19.888  0.00  0.00    +0.000 A 
ATOM      6  C   UNL     1       0.630  10.531  19.832  0.00  0.00    +0.000 A 
ATOM      7  C   UNL     1       1.994   8.565  18.808  0.00  0.00    +0.000 C 
ATOM      8  C   UNL     1       2.191   7.269  19.515  0.00  0.00    +0.000 A 
ATOM      9  C   UNL     1       2.816   6.030  19.320  0.00  0.00    +0.000 A 
ATOM     10  N   UNL     1       2.604   5.234  20.403  0.00  0.00    +0.000 NA
ATOM     11  N   UNL     1       1.860   5.991  21.251  0.00  0.00    +0.000 N 
ATOM     12  C   UNL     1       1.593   7.207  20.741  0.00  0.00    +0.000 A 
ATOM     13  H   UNL     1       1.588   5.589  22.144  0.00  0.00    +0.000 HD
ENDROOT
BRANCH   9  14
ATOM     14  C   UNL     1       3.614   5.620  18.178  0.00  0.00    +0.000 A 
ATOM     15  C   UNL     1       4.366   6.546  17.466  0.00  0.00    +0.000 A 
ATOM     16  C   UNL     1       5.034   6.178  16.306  0.00  0.00    +0.000 A 
ATOM     17  C   UNL     1       5.001   4.852  15.827  0.00  0.00    +0.000 A 
ATOM     18  C   UNL     1       4.262   3.915  16.564  0.00  0.00    +0.000 A 
ATOM     19  C   UNL     1       3.582   4.287  17.724  0.00  0.00    +0.000 A 
BRANCH  17  20
ATOM     20  C   UNL     1       5.723   4.508  14.593  0.00  0.00    +0.000 A 
ATOM     21  C   UNL     1       6.977   5.092  14.321  0.00  0.00    +0.000 A 
ATOM     22  C   UNL     1       7.645   4.866  13.120  0.00  0.00    +0.000 A 
ATOM     23  C   UNL     1       7.078   4.027  12.176  0.00  0.00    +0.000 A 
ATOM     24  C   UNL     1       5.856   3.408  12.422  0.00  0.00    +0.000 A 
ATOM     25  C   UNL     1       5.186   3.646  13.623  0.00  0.00    +0.000 A 
BRANCH  23  26
ATOM     26  O   UNL     1       7.689   3.784  10.985  0.00  0.00    +0.000 OA
ATOM     27  H   UNL     1       7.265   3.011  10.575  0.00  0.00    +0.000 HD
ENDBRANCH  23  26
ENDBRANCH  17  20
ENDBRANCH   9  14
BRANCH   1  29
ATOM     28  O   UNL     1      -1.542  12.721  20.293  0.00  0.00    +0.000 OA
ATOM     29  C   UNL     1      -0.593  12.393  20.998  0.00  0.00    +0.000 C 
ATOM     30  N   UNL     1       0.044  13.261  21.860  0.00  0.00    +0.000 N 
ATOM     31  H   UNL     1       0.819  12.970  22.436  0.00  0.00    +0.000 HD
BRANCH  30  32
ATOM     32  C   UNL     1      -0.379  14.646  21.948  0.00  0.00    +0.000 C 
BRANCH  32  33
ATOM     33  C   UNL     1      -0.957  15.026  23.294  0.00  0.00    +0.000 A 
ATOM     34  C   UNL     1      -2.196  14.524  23.693  0.00  0.00    +0.000 A 
ATOM     35  C   UNL     1      -2.681  14.838  24.959  0.00  0.00    +0.000 A 
ATOM     36  C   UNL     1      -1.921  15.645  25.796  0.00  0.00    +0.000 A 
ATOM     37  C   UNL     1      -0.706  16.112  25.325  0.00  0.00    +0.000 A 
ATOM     38  N   UNL     1      -0.212  15.833  24.096  0.00  0.00    +0.000 NA
ENDBRANCH  32  33
ENDBRANCH  30  32
ENDBRANCH   1  29
TORSDOF 6
ENDMDL
MODEL 3
REMARK VINA RESULT:      -8.8      0.646      1.223
REMARK  Name = 
REMARK  6 active torsions:
REMARK  status: ('A' for Active; 'I' for Inactive)
REMARK    1  A    between atoms: C_2  and  C_11
REMARK    2  A    between atoms: N_3  and  C_4
REMARK    3  A    between atoms: C_4  and  C_5
REMARK    4  A    between atoms: C_19  and  C_20
REMARK    5  A    between atoms: C_23  and  C_24
REMARK    6  A    between atoms: C_27  and  O_28
REMARK                            x       y       z     vdW  Elec       q    Type
REMARK                         _______ _______ _______ _____ _____    ______ ____
ROOT
ATOM      1  C   UNL     1      -0.249  11.439  20.441  0.00  0.00    +0.000 A 
ATOM      2  C   UNL     1      -0.401  10.696  21.639  0.00  0.00    +0.000 A 
ATOM      3  C   UNL     1       0.141   9.413  21.781  0.00  0.00    +0.000 A 
ATOM      4  C   UNL     1       0.846   8.910  20.712  0.00  0.00    +0.000 A 
ATOM      5  C   UNL     1       1.015   9.646  19.503  0.00  0.00    +0.000 A 
ATOM      6  C   UNL     1       0.462  10.908  19.357  0.00  0.00    +0.000 A 
ATOM      7  C   UNL     1       1.872   8.912  18.462  0.00  0.00    +0.000 C 
ATOM      8  C   UNL     1       2.124   7.683  19.263  0.00  0.00    +0.000 A 
ATOM      9  C   UNL     1       2.786   6.453  19.153  0.00  0.00    +0.000 A 
ATOM     10  N   UNL     1       2.620   5.738  20.299  0.00  0.00    +0.000 NA
ATOM     11  N   UNL     1       1.867   6.535  21.101  0.00  0.00    +0.000 N 
ATOM     12  C   UNL     1       1.551   7.699  20.503  0.00  0.00    +0.000 A 
ATOM     13  H   UNL     1       1.625   6.197  22.028  0.00  0.00    +0.000 HD
ENDROOT
BRANCH   9  14
ATOM     14  C   UNL     1       3.576   5.979  18.030  0.00  0.00    +0.000 A 
ATOM     15  C   UNL     1       4.332   6.862  17.269  0.00  0.00    +0.000 A 
ATOM     16  C   UNL     1       4.992   6.431  16.127  0.00  0.00    +0.000 A 
ATOM     17  C   UNL     1       4.948   5.082  15.717  0.00  0.00    +0.000 A 
ATOM     18  C   UNL     1       4.206   4.189  16.502  0.00  0.00    +0.000 A 
ATOM     19  C   UNL     1       3.533   4.625  17.645  0.00  0.00    +0.000 A 
BRANCH  17  20
ATOM     20  C   UNL     1       5.662   4.671  14.498  0.00  0.00    +0.000 A 
ATOM     21  C   UNL     1       5.027   3.839  13.554  0.00  0.00    +0.000 A 
ATOM     22  C   UNL     1       5.702   3.350  12.437  0.00  0.00    +0.000 A 
ATOM     23  C   UNL     1       7.024   3.708  12.234  0.00  0.00    +0.000 A 
ATOM     24  C   UNL     1       7.675   4.554  13.128  0.00  0.00    +0.000 A 
ATOM     25  C   UNL     1       6.996   5.033  14.250  0.00  0.00    +0.000 A 
BRANCH  23  26
ATOM     26  O   UNL     1       7.726   3.250  11.163  0.00  0.00    +0.000 OA
ATOM     27  H   UNL     1       7.102   2.852  10.534  0.00  0.00    +0.000 HD
ENDBRANCH  23  26
ENDBRANCH  17  20
ENDBRANCH   9  14
BRANCH   1  29
ATOM     28  O   UNL     1      -1.949  12.997  20.011  0.00  0.00    +0.000 OA
ATOM     29  C   UNL     1      -0.800  12.817  20.399  0.00  0.00    +0.000 C 
ATOM     30  N   UNL     1       0.028  13.841  20.811  0.00  0.00    +0.000 N 
ATOM     31  H   UNL     1       0.969  13.671  21.133  0.00  0.00    +0.000 HD
BRANCH  30  32
ATOM     32  C   UNL     1      -0.433  15.216  20.771  0.00  0.00    +0.000 C 
BRANCH  32  33
ATOM     33  C   UNL     1       0.162  16.030  19.642  0.00  0.00    +0.000 A 
ATOM     34  C   UNL     1      -0.669  16.712  18.754  0.00  0.00    +0.000 A 
ATOM     35  C   UNL     1      -0.099  17.502  17.761  0.00  0.00    +0.000 A 
ATOM     36  C   UNL     1       1.285  17.594  17.677  0.00  0.00    +0.000 A 
ATOM     37  C   UNL     1       2.042  16.880  18.589  0.00  0.00    +0.000 A 
ATOM     38  N   UNL     1       1.518  16.095  19.559  0.00  0.00    +0.000 NA
ENDBRANCH  32  33
ENDBRANCH  30  32
ENDBRANCH   1  29
TORSDOF 6
ENDMDL
MODEL 4
REMARK VINA RESULT:      -8.7      2.357      3.563
REMARK  Name = 
REMARK  6 active torsions:
REMARK  status: ('A' for Active; 'I' for Inactive)
REMARK    1  A    between atoms: C_2  and  C_11
REMARK    2  A    between atoms: N_3  and  C_4
REMARK    3  A    between atoms: C_4  and  C_5
REMARK    4  A    between atoms: C_19  and  C_20
REMARK    5  A    between atoms: C_23  and  C_24
REMARK    6  A    between atoms: C_27  and  O_28
REMARK                            x       y       z     vdW  Elec       q    Type
REMARK                         _______ _______ _______ _____ _____    ______ ____
ROOT
ATOM      1  C   UNL     1      -0.327  11.004  20.582  0.00  0.00    +0.000 A 
ATOM      2  C   UNL     1      -0.437  10.246  21.775  0.00  0.00    +0.000 A 
ATOM      3  C   UNL     1       0.156   8.984  21.900  0.00  0.00    +0.000 A 
ATOM      4  C   UNL     1       0.870   8.518  20.821  0.00  0.00    +0.000 A 
ATOM      5  C   UNL     1       0.999   9.271  19.617  0.00  0.00    +0.000 A 
ATOM      6  C   UNL     1       0.395  10.511  19.487  0.00  0.00    +0.000 A 
ATOM      7  C   UNL     1       1.874   8.580  18.562  0.00  0.00    +0.000 C 
ATOM      8  C   UNL     1       2.183   7.355  19.350  0.00  0.00    +0.000 A 
ATOM      9  C   UNL     1       2.892   6.153  19.223  0.00  0.00    +0.000 A 
ATOM     10  N   UNL     1       2.765   5.423  20.364  0.00  0.00    +0.000 NA
ATOM     11  N   UNL     1       1.989   6.183  21.180  0.00  0.00    +0.000 N 
ATOM     12  C   UNL     1       1.621   7.338  20.595  0.00  0.00    +0.000 A 
ATOM     13  H   UNL     1       1.769   5.827  22.107  0.00  0.00    +0.000 HD
ENDROOT
BRANCH   9  14
ATOM     14  C   UNL     1       3.690   5.721  18.089  0.00  0.00    +0.000 A 
ATOM     15  C   UNL     1       4.409   6.639  17.334  0.00  0.00    +0.000 A 
ATOM     16  C   UNL     1       5.075   6.244  16.182  0.00  0.00    +0.000 A 
ATOM     17  C   UNL     1       5.074   4.900  15.755  0.00  0.00    +0.000 A 
ATOM     18  C   UNL     1       4.368   3.973  16.534  0.00  0.00    +0.000 A 
ATOM     19  C   UNL     1       3.689   4.371  17.687  0.00  0.00    +0.000 A 
BRANCH  17  20
ATOM     20  C   UNL     1       5.793   4.529  14.527  0.00  0.00    +0.000 A 
ATOM     21  C   UNL     1       7.047   5.105  14.240  0.00  0.00    +0.000 A 
ATOM     22  C   UNL     1       7.713   4.853  13.042  0.00  0.00    +0.000 A 
ATOM     23  C   UNL     1       7.142   3.994  12.118  0.00  0.00    +0.000 A 
ATOM     24  C   UNL     1       5.920   3.381  12.380  0.00  0.00    +0.000 A 
ATOM     25  C   UNL     1       5.253   3.646  13.578  0.00  0.00    +0.000 A 
BRANCH  23  26
ATOM     26  O   UNL     1       7.751   3.723  10.932  0.00  0.00    +0.000 OA
ATOM     27  H   UNL     1       7.064   3.569  10.262  0.00  0.00    +0.000 HD
ENDBRANCH  23  26
ENDBRANCH  17  20
ENDBRANCH   9  14
BRANCH   1  29
ATOM     28  O   UNL     1      -0.454  13.221  19.828  0.00  0.00    +0.000 OA
ATOM     29  C   UNL     1      -0.932  12.359  20.557  0.00  0.00    +0.000 C 
ATOM     30  N   UNL     1      -2.024  12.579  21.372  0.00  0.00    +0.000 N 
ATOM     31  H   UNL     1      -2.407  11.853  21.960  0.00  0.00    +0.000 HD
BRANCH  30  32
ATOM     32  C   UNL     1      -2.650  13.886  21.420  0.00  0.00    +0.000 C 
BRANCH  32  33
ATOM     33  C   UNL     1      -3.929  13.924  22.229  0.00  0.00    +0.000 A 
ATOM     34  C   UNL     1      -4.201  15.008  23.063  0.00  0.00    +0.000 A 
ATOM     35  C   UNL     1      -5.409  15.051  23.751  0.00  0.00    +0.000 A 
ATOM     36  C   UNL     1      -6.318  14.012  23.591  0.00  0.00    +0.000 A 
ATOM     37  C   UNL     1      -5.972  12.966  22.753  0.00  0.00    +0.000 A 
ATOM     38  N   UNL     1      -4.801  12.891  22.079  0.00  0.00    +0.000 NA
ENDBRANCH  32  33
ENDBRANCH  30  32
ENDBRANCH   1  29
TORSDOF 6
ENDMDL
MODEL 5
REMARK VINA RESULT:      -8.7      2.234      3.065
REMARK  Name = 
REMARK  6 active torsions:
REMARK  status: ('A' for Active; 'I' for Inactive)
REMARK    1  A    between atoms: C_2  and  C_11
REMARK    2  A    between atoms: N_3  and  C_4
REMARK    3  A    between atoms: C_4  and  C_5
REMARK    4  A    between atoms: C_19  and  C_20
REMARK    5  A    between atoms: C_23  and  C_24
REMARK    6  A    between atoms: C_27  and  O_28
REMARK                            x       y       z     vdW  Elec       q    Type
REMARK                         _______ _______ _______ _____ _____    ______ ____
ROOT
ATOM      1  C   UNL     1      -0.281  11.260  20.520  0.00  0.00    +0.000 A 
ATOM      2  C   UNL     1      -0.422  10.517  21.719  0.00  0.00    +0.000 A 
ATOM      3  C   UNL     1       0.139   9.242  21.863  0.00  0.00    +0.000 A 
ATOM      4  C   UNL     1       0.852   8.748  20.796  0.00  0.00    +0.000 A 
ATOM      5  C   UNL     1       1.011   9.485  19.586  0.00  0.00    +0.000 A 
ATOM      6  C   UNL     1       0.439  10.738  19.438  0.00  0.00    +0.000 A 
ATOM      7  C   UNL     1       1.880   8.762  18.547  0.00  0.00    +0.000 C 
ATOM      8  C   UNL     1       2.150   7.538  19.350  0.00  0.00    +0.000 A 
ATOM      9  C   UNL     1       2.830   6.318  19.242  0.00  0.00    +0.000 A 
ATOM     10  N   UNL     1       2.674   5.602  20.389  0.00  0.00    +0.000 NA
ATOM     11  N   UNL     1       1.909   6.389  21.189  0.00  0.00    +0.000 N 
ATOM     12  C   UNL     1       1.576   7.547  20.589  0.00  0.00    +0.000 A 
ATOM     13  H   UNL     1       1.671   6.049  22.117  0.00  0.00    +0.000 HD
ENDROOT
BRANCH   9  14
ATOM     14  C   UNL     1       3.628   5.854  18.120  0.00  0.00    +0.000 A 
ATOM     15  C   UNL     1       4.398   6.742  17.380  0.00  0.00    +0.000 A 
ATOM     16  C   UNL     1       5.067   6.322  16.239  0.00  0.00    +0.000 A 
ATOM     17  C   UNL     1       5.016   4.980  15.807  0.00  0.00    +0.000 A 
ATOM     18  C   UNL     1       4.258   4.082  16.572  0.00  0.00    +0.000 A 
ATOM     19  C   UNL     1       3.577   4.506  17.715  0.00  0.00    +0.000 A 
BRANCH  17  20
ATOM     20  C   UNL     1       5.739   4.581  14.591  0.00  0.00    +0.000 A 
ATOM     21  C   UNL     1       7.002   5.138  14.305  0.00  0.00    +0.000 A 
ATOM     22  C   UNL     1       7.674   4.859  13.116  0.00  0.00    +0.000 A 
ATOM     23  C   UNL     1       7.099   3.993  12.200  0.00  0.00    +0.000 A 
ATOM     24  C   UNL     1       5.867   3.400  12.462  0.00  0.00    +0.000 A 
ATOM     25  C   UNL     1       5.195   3.691  13.651  0.00  0.00    +0.000 A 
BRANCH  23  26
ATOM     26  O   UNL     1       7.713   3.697  11.023  0.00  0.00    +0.000 OA
ATOM     27  H   UNL     1       8.336   2.967  11.177  0.00  0.00    +0.000 HD
ENDBRANCH  23  26
ENDBRANCH  17  20
ENDBRANCH   9  14
BRANCH   1  29
ATOM     28  O   UNL     1      -0.279  13.503  19.833  0.00  0.00    +0.000 OA
ATOM     29  C   UNL     1      -0.852  12.630  20.476  0.00  0.00    +0.000 C 
ATOM     30  N   UNL     1      -2.021  12.849  21.174  0.00  0.00    +0.000 N 
ATOM     31  H   UNL     1      -2.481  12.115  21.693  0.00  0.00    +0.000 HD
BRANCH  30  32
ATOM     32  C   UNL     1      -2.622  14.169  21.199  0.00  0.00    +0.000 C 
BRANCH  32  33
ATOM     33  C   UNL     1      -2.868  14.705  22.593  0.00  0.00    +0.000 A 
ATOM     34  C   UNL     1      -1.801  14.898  23.470  0.00  0.00    +0.000 A 
ATOM     35  C   UNL     1      -2.043  15.447  24.725  0.00  0.00    +0.000 A 
ATOM     36  C   UNL     1      -3.342  15.791  25.076  0.00  0.00    +0.000 A 
ATOM     37  C   UNL     1      -4.349  15.560  24.155  0.00  0.00    +0.000 A 
ATOM     38  N   UNL     1      -4.147  15.018  22.932  0.00  0.00    +0.000 NA
ENDBRANCH  32  33
ENDBRANCH  30  32
ENDBRANCH   1  29
TORSDOF 6
ENDMDL
MODEL 6
REMARK VINA RESULT:      -8.6      2.910     11.597
REMARK  Name = 
REMARK  6 active torsions:
REMARK  status: ('A' for Active; 'I' for Inactive)
REMARK    1  A    between atoms: C_2  and  C_11
REMARK    2  A    between atoms: N_3  and  C_4
REMARK    3  A    between atoms: C_4  and  C_5
REMARK    4  A    between atoms: C_19  and  C_20
REMARK    5  A    between atoms: C_23  and  C_24
REMARK    6  A    between atoms: C_27  and  O_28
REMARK                            x       y       z     vdW  Elec       q    Type
REMARK                         _______ _______ _______ _____ _____    ______ ____
ROOT
ATOM      1  C   UNL     1       5.694   5.248  16.657  0.00  0.00    +0.000 A 
ATOM      2  C   UNL     1       5.395   4.195  17.558  0.00  0.00    +0.000 A 
ATOM      3  C   UNL     1       4.478   4.362  18.603  0.00  0.00    +0.000 A 
ATOM      4  C   UNL     1       3.863   5.587  18.707  0.00  0.00    +0.000 A 
ATOM      5  C   UNL     1       4.145   6.655  17.804  0.00  0.00    +0.000 A 
ATOM      6  C   UNL     1       5.067   6.495  16.782  0.00  0.00    +0.000 A 
ATOM      7  C   UNL     1       3.313   7.915  18.078  0.00  0.00    +0.000 C 
ATOM      8  C   UNL     1       2.563   7.391  19.253  0.00  0.00    +0.000 A 
ATOM      9  C   UNL     1       1.596   7.809  20.176  0.00  0.00    +0.000 A 
ATOM     10  N   UNL     1       1.329   6.800  21.049  0.00  0.00    +0.000 NA
ATOM     11  N   UNL     1       2.126   5.775  20.651  0.00  0.00    +0.000 N 
ATOM     12  C   UNL     1       2.878   6.105  19.586  0.00  0.00    +0.000 A 
ATOM     13  H   UNL     1       2.082   4.900  21.168  0.00  0.00    +0.000 HD
ENDROOT
BRANCH   9  14
ATOM     14  C   UNL     1       0.919   9.093  20.217  0.00  0.00    +0.000 A 
ATOM     15  C   UNL     1       0.624   9.703  21.430  0.00  0.00    +0.000 A 
ATOM     16  C   UNL     1      -0.126  10.871  21.475  0.00  0.00    +0.000 A 
ATOM     17  C   UNL     1      -0.585  11.495  20.297  0.00  0.00    +0.000 A 
ATOM     18  C   UNL     1      -0.263  10.890  19.074  0.00  0.00    +0.000 A 
ATOM     19  C   UNL     1       0.482   9.710  19.029  0.00  0.00    +0.000 A 
BRANCH  17  20
ATOM     20  C   UNL     1      -1.378  12.730  20.393  0.00  0.00    +0.000 A 
ATOM     21  C   UNL     1      -0.762  13.983  20.194  0.00  0.00    +0.000 A 
ATOM     22  C   UNL     1      -1.456  15.177  20.372  0.00  0.00    +0.000 A 
ATOM     23  C   UNL     1      -2.794  15.137  20.728  0.00  0.00    +0.000 A 
ATOM     24  C   UNL     1      -3.444  13.919  20.902  0.00  0.00    +0.000 A 
ATOM     25  C   UNL     1      -2.740  12.725  20.732  0.00  0.00    +0.000 A 
BRANCH  23  26
ATOM     26  O   UNL     1      -3.511  16.277  20.921  0.00  0.00    +0.000 OA
ATOM     27  H   UNL     1      -3.705  16.361  21.869  0.00  0.00    +0.000 HD
ENDBRANCH  23  26
ENDBRANCH  17  20
ENDBRANCH   9  14
BRANCH   1  29
ATOM     28  O   UNL     1       7.775   4.606  15.786  0.00  0.00    +0.000 OA
ATOM     29  C   UNL     1       6.629   4.966  15.539  0.00  0.00    +0.000 C 
ATOM     30  N   UNL     1       6.147   5.125  14.256  0.00  0.00    +0.000 N 
ATOM     31  H   UNL     1       5.198   5.417  14.074  0.00  0.00    +0.000 HD
BRANCH  30  32
ATOM     32  C   UNL     1       7.012   4.894  13.115  0.00  0.00    +0.000 C 
BRANCH  32  33
ATOM     33  C   UNL     1       6.640   3.674  12.301  0.00  0.00    +0.000 A 
ATOM     34  C   UNL     1       7.635   2.871  11.743  0.00  0.00    +0.000 A 
ATOM     35  C   UNL     1       7.272   1.721  11.049  0.00  0.00    +0.000 A 
ATOM     36  C   UNL     1       5.926   1.398  10.929  0.00  0.00    +0.000 A 
ATOM     37  C   UNL     1       4.997   2.249  11.503  0.00  0.00    +0.000 A 
ATOM     38  N   UNL     1       5.318   3.380  12.174  0.00  0.00    +0.000 NA
ENDBRANCH  32  33
ENDBRANCH  30  32
ENDBRANCH   1  29
TORSDOF 6
ENDMDL
MODEL 7
REMARK VINA RESULT:      -8.5      2.343      3.365
REMARK  Name = 
REMARK  6 active torsions:
REMARK  status: ('A' for Active; 'I' for Inactive)
REMARK    1  A    between atoms: C_2  and  C_11
REMARK    2  A    between atoms: N_3  and  C_4
REMARK    3  A    between atoms: C_4  and  C_5
REMARK    4  A    between atoms: C_19  and  C_20
REMARK    5  A    between atoms: C_23  and  C_24
REMARK    6  A    between atoms: C_27  and  O_28
REMARK                            x       y       z     vdW  Elec       q    Type
REMARK                         _______ _______ _______ _____ _____    ______ ____
ROOT
ATOM      1  C   UNL     1      -0.194  10.730  21.031  0.00  0.00    +0.000 A 
ATOM      2  C   UNL     1      -0.307   9.912  22.183  0.00  0.00    +0.000 A 
ATOM      3  C   UNL     1       0.263   8.634  22.235  0.00  0.00    +0.000 A 
ATOM      4  C   UNL     1       0.957   8.214  21.125  0.00  0.00    +0.000 A 
ATOM      5  C   UNL     1       1.090   9.027  19.962  0.00  0.00    +0.000 A 
ATOM      6  C   UNL     1       0.508  10.283  19.904  0.00  0.00    +0.000 A 
ATOM      7  C   UNL     1       1.942   8.377  18.863  0.00  0.00    +0.000 C 
ATOM      8  C   UNL     1       2.234   7.106  19.581  0.00  0.00    +0.000 A 
ATOM      9  C   UNL     1       2.919   5.900  19.382  0.00  0.00    +0.000 A 
ATOM     10  N   UNL     1       2.788   5.112  20.485  0.00  0.00    +0.000 NA
ATOM     11  N   UNL     1       2.034   5.841  21.347  0.00  0.00    +0.000 N 
ATOM     12  C   UNL     1       1.684   7.033  20.829  0.00  0.00    +0.000 A 
ATOM     13  H   UNL     1       1.816   5.441  22.256  0.00  0.00    +0.000 HD
ENDROOT
BRANCH   9  14
ATOM     14  C   UNL     1       3.697   5.514  18.219  0.00  0.00    +0.000 A 
ATOM     15  C   UNL     1       4.464   6.448  17.535  0.00  0.00    +0.000 A 
ATOM     16  C   UNL     1       5.113   6.108  16.356  0.00  0.00    +0.000 A 
ATOM     17  C   UNL     1       5.046   4.801  15.829  0.00  0.00    +0.000 A 
ATOM     18  C   UNL     1       4.293   3.855  16.538  0.00  0.00    +0.000 A 
ATOM     19  C   UNL     1       3.631   4.199  17.717  0.00  0.00    +0.000 A 
BRANCH  17  20
ATOM     20  C   UNL     1       5.750   4.487  14.576  0.00  0.00    +0.000 A 
ATOM     21  C   UNL     1       7.014   5.053  14.314  0.00  0.00    +0.000 A 
ATOM     22  C   UNL     1       7.667   4.857  13.099  0.00  0.00    +0.000 A 
ATOM     23  C   UNL     1       7.073   4.065  12.131  0.00  0.00    +0.000 A 
ATOM     24  C   UNL     1       5.839   3.464  12.366  0.00  0.00    +0.000 A 
ATOM     25  C   UNL     1       5.186   3.673  13.582  0.00  0.00    +0.000 A 
BRANCH  23  26
ATOM     26  O   UNL     1       7.668   3.852  10.927  0.00  0.00    +0.000 OA
ATOM     27  H   UNL     1       8.066   4.687  10.628  0.00  0.00    +0.000 HD
ENDBRANCH  23  26
ENDBRANCH  17  20
ENDBRANCH   9  14
BRANCH   1  29
ATOM     28  O   UNL     1      -0.213  12.963  21.748  0.00  0.00    +0.000 OA
ATOM     29  C   UNL     1      -0.773  12.096  21.085  0.00  0.00    +0.000 C 
ATOM     30  N   UNL     1      -1.931  12.320  20.371  0.00  0.00    +0.000 N 
ATOM     31  H   UNL     1      -2.373  11.594  19.826  0.00  0.00    +0.000 HD
BRANCH  30  32
ATOM     32  C   UNL     1      -2.569  13.623  20.400  0.00  0.00    +0.000 C 
BRANCH  32  33
ATOM     33  C   UNL     1      -3.968  13.608  20.976  0.00  0.00    +0.000 A 
ATOM     34  C   UNL     1      -4.874  12.617  20.596  0.00  0.00    +0.000 A 
ATOM     35  C   UNL     1      -6.135  12.587  21.183  0.00  0.00    +0.000 A 
ATOM     36  C   UNL     1      -6.463  13.544  22.136  0.00  0.00    +0.000 A 
ATOM     37  C   UNL     1      -5.513  14.500  22.453  0.00  0.00    +0.000 A 
ATOM     38  N   UNL     1      -4.283  14.562  21.892  0.00  0.00    +0.000 NA
ENDBRANCH  32  33
ENDBRANCH  30  32
ENDBRANCH   1  29
TORSDOF 6
ENDMDL
MODEL 8
REMARK VINA RESULT:      -8.5      2.687     11.531
REMARK  Name = 
REMARK  6 active torsions:
REMARK  status: ('A' for Active; 'I' for Inactive)
REMARK    1  A    between atoms: C_2  and  C_11
REMARK    2  A    between atoms: N_3  and  C_4
REMARK    3  A    between atoms: C_4  and  C_5
REMARK    4  A    between atoms: C_19  and  C_20
REMARK    5  A    between atoms: C_23  and  C_24
REMARK    6  A    between atoms: C_27  and  O_28
REMARK                            x       y       z     vdW  Elec       q    Type
REMARK                         _______ _______ _______ _____ _____    ______ ____
ROOT
ATOM      1  C   UNL     1       5.659   5.261  16.688  0.00  0.00    +0.000 A 
ATOM      2  C   UNL     1       5.338   4.258  17.639  0.00  0.00    +0.000 A 
ATOM      3  C   UNL     1       4.415   4.489  18.665  0.00  0.00    +0.000 A 
ATOM      4  C   UNL     1       3.815   5.725  18.701  0.00  0.00    +0.000 A 
ATOM      5  C   UNL     1       4.118   6.742  17.749  0.00  0.00    +0.000 A 
ATOM      6  C   UNL     1       5.047   6.519  16.745  0.00  0.00    +0.000 A 
ATOM      7  C   UNL     1       3.300   8.025  17.951  0.00  0.00    +0.000 C 
ATOM      8  C   UNL     1       2.533   7.570  19.144  0.00  0.00    +0.000 A 
ATOM      9  C   UNL     1       1.563   8.046  20.035  0.00  0.00    +0.000 A 
ATOM     10  N   UNL     1       1.275   7.086  20.956  0.00  0.00    +0.000 NA
ATOM     11  N   UNL     1       2.063   6.032  20.617  0.00  0.00    +0.000 N 
ATOM     12  C   UNL     1       2.829   6.298  19.543  0.00  0.00    +0.000 A 
ATOM     13  H   UNL     1       2.003   5.185  21.177  0.00  0.00    +0.000 HD
ENDROOT
BRANCH   9  14
ATOM     14  C   UNL     1       0.903   9.339  20.005  0.00  0.00    +0.000 A 
ATOM     15  C   UNL     1       1.032  10.179  18.906  0.00  0.00    +0.000 A 
ATOM     16  C   UNL     1       0.500  11.461  18.925  0.00  0.00    +0.000 A 
ATOM     17  C   UNL     1      -0.214  11.945  20.040  0.00  0.00    +0.000 A 
ATOM     18  C   UNL     1      -0.365  11.085  21.137  0.00  0.00    +0.000 A 
ATOM     19  C   UNL     1       0.179   9.799  21.123  0.00  0.00    +0.000 A 
BRANCH  17  20
ATOM     20  C   UNL     1      -0.759  13.311  20.015  0.00  0.00    +0.000 A 
ATOM     21  C   UNL     1      -0.094  14.324  19.294  0.00  0.00    +0.000 A 
ATOM     22  C   UNL     1      -0.524  15.649  19.326  0.00  0.00    +0.000 A 
ATOM     23  C   UNL     1      -1.649  15.979  20.064  0.00  0.00    +0.000 A 
ATOM     24  C   UNL     1      -2.349  15.000  20.763  0.00  0.00    +0.000 A 
ATOM     25  C   UNL     1      -1.908  13.676  20.735  0.00  0.00    +0.000 A 
BRANCH  23  26
ATOM     26  O   UNL     1      -2.101  17.259  20.132  0.00  0.00    +0.000 OA
ATOM     27  H   UNL     1      -2.239  17.488  21.067  0.00  0.00    +0.000 HD
ENDBRANCH  23  26
ENDBRANCH  17  20
ENDBRANCH   9  14
BRANCH   1  29
ATOM     28  O   UNL     1       7.695   4.432  15.871  0.00  0.00    +0.000 OA
ATOM     29  C   UNL     1       6.600   4.911  15.595  0.00  0.00    +0.000 C 
ATOM     30  N   UNL     1       6.182   5.146  14.302  0.00  0.00    +0.000 N 
ATOM     31  H   UNL     1       5.274   5.535  14.096  0.00  0.00    +0.000 HD
BRANCH  30  32
ATOM     32  C   UNL     1       7.059   4.854  13.184  0.00  0.00    +0.000 C 
BRANCH  32  33
ATOM     33  C   UNL     1       6.650   3.635  12.386  0.00  0.00    +0.000 A 
ATOM     34  C   UNL     1       5.300   3.340  12.197  0.00  0.00    +0.000 A 
ATOM     35  C   UNL     1       4.947   2.248  11.409  0.00  0.00    +0.000 A 
ATOM     36  C   UNL     1       5.947   1.479  10.828  0.00  0.00    +0.000 A 
ATOM     37  C   UNL     1       7.264   1.830  11.069  0.00  0.00    +0.000 A 
ATOM     38  N   UNL     1       7.639   2.878  11.839  0.00  0.00    +0.000 NA
ENDBRANCH  32  33
ENDBRANCH  30  32
ENDBRANCH   1  29
TORSDOF 6
ENDMDL
MODEL 9
REMARK VINA RESULT:      -8.4      0.838      1.281
REMARK  Name = 
REMARK  6 active torsions:
REMARK  status: ('A' for Active; 'I' for Inactive)
REMARK    1  A    between atoms: C_2  and  C_11
REMARK    2  A    between atoms: N_3  and  C_4
REMARK    3  A    between atoms: C_4  and  C_5
REMARK    4  A    between atoms: C_19  and  C_20
REMARK    5  A    between atoms: C_23  and  C_24
REMARK    6  A    between atoms: C_27  and  O_28
REMARK                            x       y       z     vdW  Elec       q    Type
REMARK                         _______ _______ _______ _____ _____    ______ ____
ROOT
ATOM      1  C   UNL     1      -0.170  11.040  21.154  0.00  0.00    +0.000 A 
ATOM      2  C   UNL     1      -0.216  10.194  22.291  0.00  0.00    +0.000 A 
ATOM      3  C   UNL     1       0.335   8.907  22.271  0.00  0.00    +0.000 A 
ATOM      4  C   UNL     1       0.942   8.505  21.105  0.00  0.00    +0.000 A 
ATOM      5  C   UNL     1       1.006   9.346  19.955  0.00  0.00    +0.000 A 
ATOM      6  C   UNL     1       0.443  10.612  19.970  0.00  0.00    +0.000 A 
ATOM      7  C   UNL     1       1.768   8.712  18.783  0.00  0.00    +0.000 C 
ATOM      8  C   UNL     1       2.088   7.418  19.447  0.00  0.00    +0.000 A 
ATOM      9  C   UNL     1       2.737   6.208  19.171  0.00  0.00    +0.000 A 
ATOM     10  N   UNL     1       2.671   5.394  20.260  0.00  0.00    +0.000 NA
ATOM     11  N   UNL     1       1.992   6.112  21.192  0.00  0.00    +0.000 N 
ATOM     12  C   UNL     1       1.626   7.321  20.729  0.00  0.00    +0.000 A 
ATOM     13  H   UNL     1       1.832   5.692  22.103  0.00  0.00    +0.000 HD
ENDROOT
BRANCH   9  14
ATOM     14  C   UNL     1       3.425   5.840  17.947  0.00  0.00    +0.000 A 
ATOM     15  C   UNL     1       3.352   4.544  17.452  0.00  0.00    +0.000 A 
ATOM     16  C   UNL     1       4.104   4.161  16.349  0.00  0.00    +0.000 A 
ATOM     17  C   UNL     1       4.938   5.076  15.674  0.00  0.00    +0.000 A 
ATOM     18  C   UNL     1       4.988   6.390  16.161  0.00  0.00    +0.000 A 
ATOM     19  C   UNL     1       4.241   6.772  17.276  0.00  0.00    +0.000 A 
BRANCH  17  20
ATOM     20  C   UNL     1       5.717   4.625  14.510  0.00  0.00    +0.000 A 
ATOM     21  C   UNL     1       6.984   5.186  14.248  0.00  0.00    +0.000 A 
ATOM     22  C   UNL     1       7.708   4.856  13.104  0.00  0.00    +0.000 A 
ATOM     23  C   UNL     1       7.184   3.935  12.212  0.00  0.00    +0.000 A 
ATOM     24  C   UNL     1       5.950   3.337  12.454  0.00  0.00    +0.000 A 
ATOM     25  C   UNL     1       5.225   3.679  13.597  0.00  0.00    +0.000 A 
BRANCH  23  26
ATOM     26  O   UNL     1       7.850   3.588  11.078  0.00  0.00    +0.000 OA
ATOM     27  H   UNL     1       7.535   2.714  10.792  0.00  0.00    +0.000 HD
ENDBRANCH  23  26
ENDBRANCH  17  20
ENDBRANCH   9  14
BRANCH   1  29
ATOM     28  O   UNL     1      -1.085  12.817  22.382  0.00  0.00    +0.000 OA
ATOM     29  C   UNL     1      -0.721  12.413  21.283  0.00  0.00    +0.000 C 
ATOM     30  N   UNL     1      -0.792  13.175  20.136  0.00  0.00    +0.000 N 
ATOM     31  H   UNL     1      -0.481  12.826  19.241  0.00  0.00    +0.000 HD
BRANCH  30  32
ATOM     32  C   UNL     1      -1.345  14.516  20.181  0.00  0.00    +0.000 C 
BRANCH  32  33
ATOM     33  C   UNL     1      -0.352  15.601  19.825  0.00  0.00    +0.000 A 
ATOM     34  C   UNL     1      -0.307  16.114  18.529  0.00  0.00    +0.000 A 
ATOM     35  C   UNL     1       0.573  17.153  18.239  0.00  0.00    +0.000 A 
ATOM     36  C   UNL     1       1.385  17.655  19.247  0.00  0.00    +0.000 A 
ATOM     37  C   UNL     1       1.290  17.087  20.506  0.00  0.00    +0.000 A 
ATOM     38  N   UNL     1       0.453  16.069  20.816  0.00  0.00    +0.000 NA
ENDBRANCH  32  33
ENDBRANCH  30  32
ENDBRANCH   1  29
TORSDOF 6
ENDMDL
