MODEL 1
REMARK VINA RESULT:      -6.9      0.000      0.000
REMARK  Name = 
REMARK  12 active torsions:
REMARK  status: ('A' for Active; 'I' for Inactive)
REMARK    1  A    between atoms: C_1  and  C_2
REMARK    2  A    between atoms: N_4  and  C_5
REMARK    3  A    between atoms: N_4  and  O_12
REMARK    4  A    between atoms: C_5  and  C_6
REMARK    5  A    between atoms: C_7  and  P_8
REMARK    6  A    between atoms: P_8  and  O_10
REMARK    7  A    between atoms: P_8  and  O_11
REMARK    8  A    between atoms: O_12  and  C_13
REMARK    9  A    between atoms: C_13  and  C_14
REMARK   10  A    between atoms: C_17  and  C_18
REMARK   11  A    between atoms: C_18  and  C_19
REMARK   12  A    between atoms: C_18  and  C_20
REMARK                            x       y       z     vdW  Elec       q    Type
REMARK                         _______ _______ _______ _____ _____    ______ ____
ROOT
ATOM      1  C   UNL     1       7.647   6.210  18.622  0.00  0.00    +0.000 C 
ATOM      2  C   UNL     1       7.219   5.217  17.567  0.00  0.00    +0.000 C 
ATOM      3  O   UNL     1       8.013   4.394  17.118  0.00  0.00    +0.000 OA
ATOM      4  N   UNL     1       5.924   5.352  17.109  0.00  0.00    +0.000 N 
ENDROOT
BRANCH   4   5
ATOM      5  C   UNL     1       5.291   4.331  16.281  0.00  0.00    +0.000 C 
BRANCH   5   6
ATOM      6  C   UNL     1       3.975   3.929  16.889  0.00  0.00    +0.000 C 
ATOM      7  C   UNL     1       3.806   2.995  17.845  0.00  0.00    +0.000 C 
BRANCH   7   8
ATOM      8  P   UNL     1       2.170   2.309  18.298  0.00  0.00    +0.000 P 
ATOM      9  O   UNL     1       2.305   2.635  19.794  0.00  0.00    +0.000 OA
BRANCH   8  10
ATOM     10  O   UNL     1       1.379   3.564  17.613  0.00  0.00    +0.000 OA
ATOM     11  H   UNL     1       0.496   3.697  18.003  0.00  0.00    +0.000 HD
ENDBRANCH   8  10
BRANCH   8  12
ATOM     12  O   UNL     1       0.625   1.660  18.725  0.00  0.00    +0.000 OA
ATOM     13  H   UNL     1       0.881   0.817  19.161  0.00  0.00    +0.000 HD
ENDBRANCH   8  12
ENDBRANCH   7   8
ENDBRANCH   5   6
ENDBRANCH   4   5
BRANCH   4  14
ATOM     14  O   UNL     1       5.009   5.988  17.986  0.00  0.00    +0.000 OA
BRANCH  14  15
ATOM     15  C   UNL     1       4.241   6.954  17.251  0.00  0.00    +0.000 C 
BRANCH  15  16
ATOM     16  C   UNL     1       3.158   7.559  18.119  0.00  0.00    +0.000 A 
ATOM     17  C   UNL     1       2.774   7.005  19.346  0.00  0.00    +0.000 A 
ATOM     18  C   UNL     1       1.793   7.619  20.134  0.00  0.00    +0.000 A 
ATOM     19  C   UNL     1       1.176   8.801  19.717  0.00  0.00    +0.000 A 
ATOM     20  C   UNL     1       1.543   9.345  18.478  0.00  0.00    +0.000 A 
ATOM     21  C   UNL     1       2.524   8.736  17.690  0.00  0.00    +0.000 A 
BRANCH  19  22
ATOM     22  C   UNL     1       0.157   9.479  20.617  0.00  0.00    +0.000 C 
ATOM     23  C   UNL     1       0.091   8.795  21.986  0.00  0.00    +0.000 C 
ATOM     24  C   UNL     1       0.427  10.978  20.767  0.00  0.00    +0.000 C 
ENDBRANCH  19  22
ENDBRANCH  15  16
ENDBRANCH  14  15
ENDBRANCH   4  14
TORSDOF 9
ENDMDL
MODEL 2
REMARK VINA RESULT:      -6.9      2.349      4.295
REMARK  Name = 
REMARK  12 active torsions:
REMARK  status: ('A' for Active; 'I' for Inactive)
REMARK    1  A    between atoms: C_1  and  C_2
REMARK    2  A    between atoms: N_4  and  C_5
REMARK    3  A    between atoms: N_4  and  O_12
REMARK    4  A    between atoms: C_5  and  C_6
REMARK    5  A    between atoms: C_7  and  P_8
REMARK    6  A    between atoms: P_8  and  O_10
REMARK    7  A    between atoms: P_8  and  O_11
REMARK    8  A    between atoms: O_12  and  C_13
REMARK    9  A    between atoms: C_13  and  C_14
REMARK   10  A    between atoms: C_17  and  C_18
REMARK   11  A    between atoms: C_18  and  C_19
REMARK   12  A    between atoms: C_18  and  C_20
REMARK                            x       y       z     vdW  Elec       q    Type
REMARK                         _______ _______ _______ _____ _____    ______ ____
ROOT
ATOM      1  C   UNL     1       1.166   3.585  17.905  0.00  0.00    +0.000 C 
ATOM      2  C   UNL     1       2.548   3.071  18.238  0.00  0.00    +0.000 C 
ATOM      3  O   UNL     1       2.854   1.902  18.019  0.00  0.00    +0.000 OA
ATOM      4  N   UNL     1       3.388   3.975  18.856  0.00  0.00    +0.000 N 
ENDROOT
BRANCH   4   5
ATOM      5  C   UNL     1       4.814   3.711  19.018  0.00  0.00    +0.000 C 
BRANCH   5   6
ATOM      6  C   UNL     1       5.587   4.432  17.947  0.00  0.00    +0.000 C 
ATOM      7  C   UNL     1       5.516   4.181  16.625  0.00  0.00    +0.000 C 
BRANCH   7   8
ATOM      8  P   UNL     1       6.718   4.844  15.414  0.00  0.00    +0.000 P 
ATOM      9  O   UNL     1       6.423   3.779  14.346  0.00  0.00    +0.000 OA
BRANCH   8  10
ATOM     10  O   UNL     1       5.767   6.128  15.071  0.00  0.00    +0.000 OA
ATOM     11  H   UNL     1       6.256   6.834  14.611  0.00  0.00    +0.000 HD
ENDBRANCH   8  10
BRANCH   8  12
ATOM     12  O   UNL     1       7.854   5.471  14.270  0.00  0.00    +0.000 OA
ATOM     13  H   UNL     1       7.667   4.912  13.483  0.00  0.00    +0.000 HD
ENDBRANCH   8  12
ENDBRANCH   7   8
ENDBRANCH   5   6
ENDBRANCH   4   5
BRANCH   4  14
ATOM     14  O   UNL     1       3.107   5.347  18.639  0.00  0.00    +0.000 OA
BRANCH  14  15
ATOM     15  C   UNL     1       2.945   6.005  19.905  0.00  0.00    +0.000 C 
BRANCH  15  16
ATOM     16  C   UNL     1       2.184   7.304  19.747  0.00  0.00    +0.000 A 
ATOM     17  C   UNL     1       1.482   7.903  20.800  0.00  0.00    +0.000 A 
ATOM     18  C   UNL     1       0.822   9.125  20.618  0.00  0.00    +0.000 A 
ATOM     19  C   UNL     1       0.853   9.778  19.384  0.00  0.00    +0.000 A 
ATOM     20  C   UNL     1       1.537   9.169  18.323  0.00  0.00    +0.000 A 
ATOM     21  C   UNL     1       2.197   7.951  18.501  0.00  0.00    +0.000 A 
BRANCH  19  22
ATOM     22  C   UNL     1       0.179  11.131  19.230  0.00  0.00    +0.000 C 
ATOM     23  C   UNL     1       1.178  12.195  18.765  0.00  0.00    +0.000 C 
ATOM     24  C   UNL     1      -1.029  11.069  18.292  0.00  0.00    +0.000 C 
ENDBRANCH  19  22
ENDBRANCH  15  16
ENDBRANCH  14  15
ENDBRANCH   4  14
TORSDOF 9
ENDMDL
MODEL 3
REMARK VINA RESULT:      -6.9      1.094      1.894
REMARK  Name = 
REMARK  12 active torsions:
REMARK  status: ('A' for Active; 'I' for Inactive)
REMARK    1  A    between atoms: C_1  and  C_2
REMARK    2  A    between atoms: N_4  and  C_5
REMARK    3  A    between atoms: N_4  and  O_12
REMARK    4  A    between atoms: C_5  and  C_6
REMARK    5  A    between atoms: C_7  and  P_8
REMARK    6  A    between atoms: P_8  and  O_10
REMARK    7  A    between atoms: P_8  and  O_11
REMARK    8  A    between atoms: O_12  and  C_13
REMARK    9  A    between atoms: C_13  and  C_14
REMARK   10  A    between atoms: C_17  and  C_18
REMARK   11  A    between atoms: C_18  and  C_19
REMARK   12  A    between atoms: C_18  and  C_20
REMARK                            x       y       z     vdW  Elec       q    Type
REMARK                         _______ _______ _______ _____ _____    ______ ____
ROOT
ATOM      1  C   UNL     1       7.623   6.804  17.654  0.00  0.00    +0.000 C 
ATOM      2  C   UNL     1       6.975   5.524  17.181  0.00  0.00    +0.000 C 
ATOM      3  O   UNL     1       7.657   4.558  16.852  0.00  0.00    +0.000 OA
ATOM      4  N   UNL     1       5.599   5.552  17.084  0.00  0.00    +0.000 N 
ENDROOT
BRANCH   4   5
ATOM      5  C   UNL     1       4.818   4.335  16.880  0.00  0.00    +0.000 C 
BRANCH   5   6
ATOM      6  C   UNL     1       4.403   3.771  18.212  0.00  0.00    +0.000 C 
ATOM      7  C   UNL     1       3.134   3.634  18.644  0.00  0.00    +0.000 C 
BRANCH   7   8
ATOM      8  P   UNL     1       2.703   3.268  20.385  0.00  0.00    +0.000 P 
ATOM      9  O   UNL     1       1.573   4.308  20.457  0.00  0.00    +0.000 OA
BRANCH   8  10
ATOM     10  O   UNL     1       2.007   1.845  19.984  0.00  0.00    +0.000 OA
ATOM     11  H   UNL     1       1.102   1.767  20.338  0.00  0.00    +0.000 HD
ENDBRANCH   8  10
BRANCH   8  12
ATOM     12  O   UNL     1       2.296   2.922  22.030  0.00  0.00    +0.000 OA
ATOM     13  H   UNL     1       1.342   2.699  21.952  0.00  0.00    +0.000 HD
ENDBRANCH   8  12
ENDBRANCH   7   8
ENDBRANCH   5   6
ENDBRANCH   4   5
BRANCH   4  14
ATOM     14  O   UNL     1       4.928   6.502  17.895  0.00  0.00    +0.000 OA
BRANCH  14  15
ATOM     15  C   UNL     1       3.815   7.045  17.169  0.00  0.00    +0.000 C 
BRANCH  15  16
ATOM     16  C   UNL     1       2.881   7.797  18.092  0.00  0.00    +0.000 A 
ATOM     17  C   UNL     1       2.249   8.990  17.722  0.00  0.00    +0.000 A 
ATOM     18  C   UNL     1       1.364   9.634  18.596  0.00  0.00    +0.000 A 
ATOM     19  C   UNL     1       1.085   9.098  19.855  0.00  0.00    +0.000 A 
ATOM     20  C   UNL     1       1.734   7.915  20.236  0.00  0.00    +0.000 A 
ATOM     21  C   UNL     1       2.617   7.270  19.367  0.00  0.00    +0.000 A 
BRANCH  19  22
ATOM     22  C   UNL     1       0.076   9.784  20.760  0.00  0.00    +0.000 C 
ATOM     23  C   UNL     1      -1.014  10.482  19.941  0.00  0.00    +0.000 C 
ATOM     24  C   UNL     1      -0.538   8.818  21.776  0.00  0.00    +0.000 C 
ENDBRANCH  19  22
ENDBRANCH  15  16
ENDBRANCH  14  15
ENDBRANCH   4  14
TORSDOF 9
ENDMDL
MODEL 4
REMARK VINA RESULT:      -6.9      2.247      4.255
REMARK  Name = 
REMARK  12 active torsions:
REMARK  status: ('A' for Active; 'I' for Inactive)
REMARK    1  A    between atoms: C_1  and  C_2
REMARK    2  A    between atoms: N_4  and  C_5
REMARK    3  A    between atoms: N_4  and  O_12
REMARK    4  A    between atoms: C_5  and  C_6
REMARK    5  A    between atoms: C_7  and  P_8
REMARK    6  A    between atoms: P_8  and  O_10
REMARK    7  A    between atoms: P_8  and  O_11
REMARK    8  A    between atoms: O_12  and  C_13
REMARK    9  A    between atoms: C_13  and  C_14
REMARK   10  A    between atoms: C_17  and  C_18
REMARK   11  A    between atoms: C_18  and  C_19
REMARK   12  A    between atoms: C_18  and  C_20
REMARK                            x       y       z     vdW  Elec       q    Type
REMARK                         _______ _______ _______ _____ _____    ______ ____
ROOT
ATOM      1  C   UNL     1       1.020   3.922  20.249  0.00  0.00    +0.000 C 
ATOM      2  C   UNL     1       2.122   3.264  19.451  0.00  0.00    +0.000 C 
ATOM      3  O   UNL     1       2.442   2.098  19.665  0.00  0.00    +0.000 OA
ATOM      4  N   UNL     1       2.768   4.076  18.542  0.00  0.00    +0.000 N 
ENDROOT
BRANCH   4   5
ATOM      5  C   UNL     1       3.676   3.533  17.537  0.00  0.00    +0.000 C 
BRANCH   5   6
ATOM      6  C   UNL     1       5.014   4.216  17.641  0.00  0.00    +0.000 C 
ATOM      7  C   UNL     1       5.700   4.425  18.781  0.00  0.00    +0.000 C 
BRANCH   7   8
ATOM      8  P   UNL     1       7.140   5.550  18.891  0.00  0.00    +0.000 P 
ATOM      9  O   UNL     1       7.407   5.271  20.378  0.00  0.00    +0.000 OA
BRANCH   8  10
ATOM     10  O   UNL     1       8.090   4.527  18.042  0.00  0.00    +0.000 OA
ATOM     11  H   UNL     1       8.529   3.873  18.617  0.00  0.00    +0.000 HD
ENDBRANCH   8  10
BRANCH   8  12
ATOM     12  O   UNL     1       8.499   6.615  18.994  0.00  0.00    +0.000 OA
ATOM     13  H   UNL     1       8.345   7.204  18.223  0.00  0.00    +0.000 HD
ENDBRANCH   8  12
ENDBRANCH   7   8
ENDBRANCH   5   6
ENDBRANCH   4   5
BRANCH   4  14
ATOM     14  O   UNL     1       2.042   5.199  18.073  0.00  0.00    +0.000 OA
BRANCH  14  15
ATOM     15  C   UNL     1       2.894   6.355  18.086  0.00  0.00    +0.000 C 
BRANCH  15  16
ATOM     16  C   UNL     1       2.184   7.545  18.695  0.00  0.00    +0.000 A 
ATOM     17  C   UNL     1       1.823   7.601  20.047  0.00  0.00    +0.000 A 
ATOM     18  C   UNL     1       1.199   8.737  20.576  0.00  0.00    +0.000 A 
ATOM     19  C   UNL     1       0.927   9.845  19.770  0.00  0.00    +0.000 A 
ATOM     20  C   UNL     1       1.268   9.783  18.412  0.00  0.00    +0.000 A 
ATOM     21  C   UNL     1       1.891   8.651  17.881  0.00  0.00    +0.000 A 
BRANCH  19  22
ATOM     22  C   UNL     1       0.304  11.088  20.382  0.00  0.00    +0.000 C 
ATOM     23  C   UNL     1       1.169  12.325  20.120  0.00  0.00    +0.000 C 
ATOM     24  C   UNL     1      -1.131  11.312  19.897  0.00  0.00    +0.000 C 
ENDBRANCH  19  22
ENDBRANCH  15  16
ENDBRANCH  14  15
ENDBRANCH   4  14
TORSDOF 9
ENDMDL
MODEL 5
REMARK VINA RESULT:      -6.8      2.275      4.367
REMARK  Name = 
REMARK  12 active torsions:
REMARK  status: ('A' for Active; 'I' for Inactive)
REMARK    1  A    between atoms: C_1  and  C_2
REMARK    2  A    between atoms: N_4  and  C_5
REMARK    3  A    between atoms: N_4  and  O_12
REMARK    4  A    between atoms: C_5  and  C_6
REMARK    5  A    between atoms: C_7  and  P_8
REMARK    6  A    between atoms: P_8  and  O_10
REMARK    7  A    between atoms: P_8  and  O_11
REMARK    8  A    between atoms: O_12  and  C_13
REMARK    9  A    between atoms: C_13  and  C_14
REMARK   10  A    between atoms: C_17  and  C_18
REMARK   11  A    between atoms: C_18  and  C_19
REMARK   12  A    between atoms: C_18  and  C_20
REMARK                            x       y       z     vdW  Elec       q    Type
REMARK                         _______ _______ _______ _____ _____    ______ ____
ROOT
ATOM      1  C   UNL     1       2.620   2.921  21.106  0.00  0.00    +0.000 C 
ATOM      2  C   UNL     1       2.760   2.722  19.615  0.00  0.00    +0.000 C 
ATOM      3  O   UNL     1       2.980   1.609  19.146  0.00  0.00    +0.000 OA
ATOM      4  N   UNL     1       2.696   3.870  18.851  0.00  0.00    +0.000 N 
ENDROOT
BRANCH   4   5
ATOM      5  C   UNL     1       2.570   3.819  17.398  0.00  0.00    +0.000 C 
BRANCH   5   6
ATOM      6  C   UNL     1       3.934   3.903  16.768  0.00  0.00    +0.000 C 
ATOM      7  C   UNL     1       4.817   4.905  16.941  0.00  0.00    +0.000 C 
BRANCH   7   8
ATOM      8  P   UNL     1       6.302   5.123  15.894  0.00  0.00    +0.000 P 
ATOM      9  O   UNL     1       5.683   6.227  15.022  0.00  0.00    +0.000 OA
BRANCH   8  10
ATOM     10  O   UNL     1       7.120   5.874  17.092  0.00  0.00    +0.000 OA
ATOM     11  H   UNL     1       8.077   5.691  17.054  0.00  0.00    +0.000 HD
ENDBRANCH   8  10
BRANCH   8  12
ATOM     12  O   UNL     1       7.706   5.328  14.904  0.00  0.00    +0.000 OA
ATOM     13  H   UNL     1       7.313   5.314  14.003  0.00  0.00    +0.000 HD
ENDBRANCH   8  12
ENDBRANCH   7   8
ENDBRANCH   5   6
ENDBRANCH   4   5
BRANCH   4  14
ATOM     14  O   UNL     1       2.005   4.969  19.422  0.00  0.00    +0.000 OA
BRANCH  14  15
ATOM     15  C   UNL     1       2.913   6.069  19.583  0.00  0.00    +0.000 C 
BRANCH  15  16
ATOM     16  C   UNL     1       2.187   7.392  19.474  0.00  0.00    +0.000 A 
ATOM     17  C   UNL     1       2.099   8.111  18.276  0.00  0.00    +0.000 A 
ATOM     18  C   UNL     1       1.385   9.314  18.213  0.00  0.00    +0.000 A 
ATOM     19  C   UNL     1       0.739   9.824  19.342  0.00  0.00    +0.000 A 
ATOM     20  C   UNL     1       0.845   9.117  20.548  0.00  0.00    +0.000 A 
ATOM     21  C   UNL     1       1.555   7.915  20.614  0.00  0.00    +0.000 A 
BRANCH  19  22
ATOM     22  C   UNL     1      -0.077  11.100  19.232  0.00  0.00    +0.000 C 
ATOM     23  C   UNL     1       0.801  12.281  18.810  0.00  0.00    +0.000 C 
ATOM     24  C   UNL     1      -1.271  10.941  18.287  0.00  0.00    +0.000 C 
ENDBRANCH  19  22
ENDBRANCH  15  16
ENDBRANCH  14  15
ENDBRANCH   4  14
TORSDOF 9
ENDMDL
MODEL 6
REMARK VINA RESULT:      -6.8      1.015      1.078
REMARK  Name = 
REMARK  12 active torsions:
REMARK  status: ('A' for Active; 'I' for Inactive)
REMARK    1  A    between atoms: C_1  and  C_2
REMARK    2  A    between atoms: N_4  and  C_5
REMARK    3  A    between atoms: N_4  and  O_12
REMARK    4  A    between atoms: C_5  and  C_6
REMARK    5  A    between atoms: C_7  and  P_8
REMARK    6  A    between atoms: P_8  and  O_10
REMARK    7  A    between atoms: P_8  and  O_11
REMARK    8  A    between atoms: O_12  and  C_13
REMARK    9  A    between atoms: C_13  and  C_14
REMARK   10  A    between atoms: C_17  and  C_18
REMARK   11  A    between atoms: C_18  and  C_19
REMARK   12  A    between atoms: C_18  and  C_20
REMARK                            x       y       z     vdW  Elec       q    Type
REMARK                         _______ _______ _______ _____ _____    ______ ____
ROOT
ATOM      1  C   UNL     1       7.418   7.044  17.377  0.00  0.00    +0.000 C 
ATOM      2  C   UNL     1       6.934   5.633  17.133  0.00  0.00    +0.000 C 
ATOM      3  O   UNL     1       7.714   4.753  16.777  0.00  0.00    +0.000 OA
ATOM      4  N   UNL     1       5.575   5.436  17.267  0.00  0.00    +0.000 N 
ENDROOT
BRANCH   4   5
ATOM      5  C   UNL     1       4.993   4.099  17.304  0.00  0.00    +0.000 C 
BRANCH   5   6
ATOM      6  C   UNL     1       3.900   4.050  18.338  0.00  0.00    +0.000 C 
ATOM      7  C   UNL     1       3.610   2.995  19.122  0.00  0.00    +0.000 C 
BRANCH   7   8
ATOM      8  P   UNL     1       2.071   2.871  20.106  0.00  0.00    +0.000 P 
ATOM      9  O   UNL     1       2.548   3.830  21.209  0.00  0.00    +0.000 OA
BRANCH   8  10
ATOM     10  O   UNL     1       1.232   3.772  19.032  0.00  0.00    +0.000 OA
ATOM     11  H   UNL     1       1.812   4.356  18.511  0.00  0.00    +0.000 HD
ENDBRANCH   8  10
BRANCH   8  12
ATOM     12  O   UNL     1       0.617   2.754  21.036  0.00  0.00    +0.000 OA
ATOM     13  H   UNL     1      -0.044   2.546  20.339  0.00  0.00    +0.000 HD
ENDBRANCH   8  12
ENDBRANCH   7   8
ENDBRANCH   5   6
ENDBRANCH   4   5
BRANCH   4  14
ATOM     14  O   UNL     1       4.884   6.356  18.095  0.00  0.00    +0.000 OA
BRANCH  14  15
ATOM     15  C   UNL     1       3.823   6.967  17.343  0.00  0.00    +0.000 C 
BRANCH  15  16
ATOM     16  C   UNL     1       2.836   7.655  18.261  0.00  0.00    +0.000 A 
ATOM     17  C   UNL     1       2.518   7.167  19.534  0.00  0.00    +0.000 A 
ATOM     18  C   UNL     1       1.625   7.857  20.364  0.00  0.00    +0.000 A 
ATOM     19  C   UNL     1       1.035   9.051  19.944  0.00  0.00    +0.000 A 
ATOM     20  C   UNL     1       1.335   9.530  18.662  0.00  0.00    +0.000 A 
ATOM     21  C   UNL     1       2.226   8.846  17.831  0.00  0.00    +0.000 A 
BRANCH  19  22
ATOM     22  C   UNL     1       0.116   9.810  20.887  0.00  0.00    +0.000 C 
ATOM     23  C   UNL     1       0.071   9.145  22.266  0.00  0.00    +0.000 C 
ATOM     24  C   UNL     1       0.503  11.286  21.004  0.00  0.00    +0.000 C 
ENDBRANCH  19  22
ENDBRANCH  15  16
ENDBRANCH  14  15
ENDBRANCH   4  14
TORSDOF 9
ENDMDL
MODEL 7
REMARK VINA RESULT:      -6.8      1.469      1.837
REMARK  Name = 
REMARK  12 active torsions:
REMARK  status: ('A' for Active; 'I' for Inactive)
REMARK    1  A    between atoms: C_1  and  C_2
REMARK    2  A    between atoms: N_4  and  C_5
REMARK    3  A    between atoms: N_4  and  O_12
REMARK    4  A    between atoms: C_5  and  C_6
REMARK    5  A    between atoms: C_7  and  P_8
REMARK    6  A    between atoms: P_8  and  O_10
REMARK    7  A    between atoms: P_8  and  O_11
REMARK    8  A    between atoms: O_12  and  C_13
REMARK    9  A    between atoms: C_13  and  C_14
REMARK   10  A    between atoms: C_17  and  C_18
REMARK   11  A    between atoms: C_18  and  C_19
REMARK   12  A    between atoms: C_18  and  C_20
REMARK                            x       y       z     vdW  Elec       q    Type
REMARK                         _______ _______ _______ _____ _____    ______ ____
ROOT
ATOM      1  C   UNL     1       7.401   6.651  17.739  0.00  0.00    +0.000 C 
ATOM      2  C   UNL     1       6.800   5.321  17.349  0.00  0.00    +0.000 C 
ATOM      3  O   UNL     1       7.516   4.381  17.014  0.00  0.00    +0.000 OA
ATOM      4  N   UNL     1       5.421   5.271  17.329  0.00  0.00    +0.000 N 
ENDROOT
BRANCH   4   5
ATOM      5  C   UNL     1       4.700   4.008  17.212  0.00  0.00    +0.000 C 
BRANCH   5   6
ATOM      6  C   UNL     1       3.702   3.890  18.333  0.00  0.00    +0.000 C 
ATOM      7  C   UNL     1       3.967   3.436  19.573  0.00  0.00    +0.000 C 
BRANCH   7   8
ATOM      8  P   UNL     1       2.661   2.994  20.778  0.00  0.00    +0.000 P 
ATOM      9  O   UNL     1       3.580   2.121  21.647  0.00  0.00    +0.000 OA
BRANCH   8  10
ATOM     10  O   UNL     1       2.670   4.488  21.439  0.00  0.00    +0.000 OA
ATOM     11  H   UNL     1       2.978   4.478  22.364  0.00  0.00    +0.000 HD
ENDBRANCH   8  10
BRANCH   8  12
ATOM     12  O   UNL     1       1.427   2.575  21.915  0.00  0.00    +0.000 OA
ATOM     13  H   UNL     1       0.615   2.699  21.376  0.00  0.00    +0.000 HD
ENDBRANCH   8  12
ENDBRANCH   7   8
ENDBRANCH   5   6
ENDBRANCH   4   5
BRANCH   4  14
ATOM     14  O   UNL     1       4.745   6.214  18.144  0.00  0.00    +0.000 OA
BRANCH  14  15
ATOM     15  C   UNL     1       3.818   6.959  17.339  0.00  0.00    +0.000 C 
BRANCH  15  16
ATOM     16  C   UNL     1       2.844   7.727  18.205  0.00  0.00    +0.000 A 
ATOM     17  C   UNL     1       2.174   8.873  17.759  0.00  0.00    +0.000 A 
ATOM     18  C   UNL     1       1.253   9.531  18.583  0.00  0.00    +0.000 A 
ATOM     19  C   UNL     1       0.975   9.058  19.868  0.00  0.00    +0.000 A 
ATOM     20  C   UNL     1       1.661   7.924  20.325  0.00  0.00    +0.000 A 
ATOM     21  C   UNL     1       2.580   7.264  19.505  0.00  0.00    +0.000 A 
BRANCH  19  22
ATOM     22  C   UNL     1      -0.072   9.756  20.719  0.00  0.00    +0.000 C 
ATOM     23  C   UNL     1      -0.393   8.941  21.976  0.00  0.00    +0.000 C 
ATOM     24  C   UNL     1       0.341  11.184  21.085  0.00  0.00    +0.000 C 
ENDBRANCH  19  22
ENDBRANCH  15  16
ENDBRANCH  14  15
ENDBRANCH   4  14
TORSDOF 9
ENDMDL
MODEL 8
REMARK VINA RESULT:      -6.8      2.266      4.435
REMARK  Name = 
REMARK  12 active torsions:
REMARK  status: ('A' for Active; 'I' for Inactive)
REMARK    1  A    between atoms: C_1  and  C_2
REMARK    2  A    between atoms: N_4  and  C_5
REMARK    3  A    between atoms: N_4  and  O_12
REMARK    4  A    between atoms: C_5  and  C_6
REMARK    5  A    between atoms: C_7  and  P_8
REMARK    6  A    between atoms: P_8  and  O_10
REMARK    7  A    between atoms: P_8  and  O_11
REMARK    8  A    between atoms: O_12  and  C_13
REMARK    9  A    between atoms: C_13  and  C_14
REMARK   10  A    between atoms: C_17  and  C_18
REMARK   11  A    between atoms: C_18  and  C_19
REMARK   12  A    between atoms: C_18  and  C_20
REMARK                            x       y       z     vdW  Elec       q    Type
REMARK                         _______ _______ _______ _____ _____    ______ ____
ROOT
ATOM      1  C   UNL     1       0.899   4.057  20.025  0.00  0.00    +0.000 C 
ATOM      2  C   UNL     1       2.183   3.283  19.835  0.00  0.00    +0.000 C 
ATOM      3  O   UNL     1       2.275   2.117  20.209  0.00  0.00    +0.000 OA
ATOM      4  N   UNL     1       3.233   3.993  19.289  0.00  0.00    +0.000 N 
ENDROOT
BRANCH   4   5
ATOM      5  C   UNL     1       4.447   3.331  18.822  0.00  0.00    +0.000 C 
BRANCH   5   6
ATOM      6  C   UNL     1       5.102   4.168  17.757  0.00  0.00    +0.000 C 
ATOM      7  C   UNL     1       5.447   3.741  16.527  0.00  0.00    +0.000 C 
BRANCH   7   8
ATOM      8  P   UNL     1       6.539   4.691  15.407  0.00  0.00    +0.000 P 
ATOM      9  O   UNL     1       5.914   6.054  15.744  0.00  0.00    +0.000 OA
BRANCH   8  10
ATOM     10  O   UNL     1       7.827   4.506  16.396  0.00  0.00    +0.000 OA
ATOM     11  H   UNL     1       7.584   4.605  17.335  0.00  0.00    +0.000 HD
ENDBRANCH   8  10
BRANCH   8  12
ATOM     12  O   UNL     1       7.572   5.588  14.347  0.00  0.00    +0.000 OA
ATOM     13  H   UNL     1       8.283   4.934  14.168  0.00  0.00    +0.000 HD
ENDBRANCH   8  12
ENDBRANCH   7   8
ENDBRANCH   5   6
ENDBRANCH   4   5
BRANCH   4  14
ATOM     14  O   UNL     1       2.890   5.122  18.504  0.00  0.00    +0.000 OA
BRANCH  14  15
ATOM     15  C   UNL     1       3.479   6.298  19.081  0.00  0.00    +0.000 C 
BRANCH  15  16
ATOM     16  C   UNL     1       2.499   7.452  19.078  0.00  0.00    +0.000 A 
ATOM     17  C   UNL     1       2.157   8.152  17.915  0.00  0.00    +0.000 A 
ATOM     18  C   UNL     1       1.218   9.190  17.954  0.00  0.00    +0.000 A 
ATOM     19  C   UNL     1       0.596   9.549  19.152  0.00  0.00    +0.000 A 
ATOM     20  C   UNL     1       0.954   8.864  20.321  0.00  0.00    +0.000 A 
ATOM     21  C   UNL     1       1.889   7.826  20.286  0.00  0.00    +0.000 A 
BRANCH  19  22
ATOM     22  C   UNL     1      -0.462  10.639  19.155  0.00  0.00    +0.000 C 
ATOM     23  C   UNL     1       0.172  12.022  19.328  0.00  0.00    +0.000 C 
ATOM     24  C   UNL     1      -1.341  10.593  17.903  0.00  0.00    +0.000 C 
ENDBRANCH  19  22
ENDBRANCH  15  16
ENDBRANCH  14  15
ENDBRANCH   4  14
TORSDOF 9
ENDMDL
MODEL 9
REMARK VINA RESULT:      -6.8      2.341      4.153
REMARK  Name = 
REMARK  12 active torsions:
REMARK  status: ('A' for Active; 'I' for Inactive)
REMARK    1  A    between atoms: C_1  and  C_2
REMARK    2  A    between atoms: N_4  and  C_5
REMARK    3  A    between atoms: N_4  and  O_12
REMARK    4  A    between atoms: C_5  and  C_6
REMARK    5  A    between atoms: C_7  and  P_8
REMARK    6  A    between atoms: P_8  and  O_10
REMARK    7  A    between atoms: P_8  and  O_11
REMARK    8  A    between atoms: O_12  and  C_13
REMARK    9  A    between atoms: C_13  and  C_14
REMARK   10  A    between atoms: C_17  and  C_18
REMARK   11  A    between atoms: C_18  and  C_19
REMARK   12  A    between atoms: C_18  and  C_20
REMARK                            x       y       z     vdW  Elec       q    Type
REMARK                         _______ _______ _______ _____ _____    ______ ____
ROOT
ATOM      1  C   UNL     1       1.077   3.826  19.969  0.00  0.00    +0.000 C 
ATOM      2  C   UNL     1       2.585   3.914  20.020  0.00  0.00    +0.000 C 
ATOM      3  O   UNL     1       3.249   3.023  20.542  0.00  0.00    +0.000 OA
ATOM      4  N   UNL     1       3.133   5.075  19.515  0.00  0.00    +0.000 N 
ENDROOT
BRANCH   4   5
ATOM      5  C   UNL     1       4.566   5.206  19.272  0.00  0.00    +0.000 C 
BRANCH   5   6
ATOM      6  C   UNL     1       4.909   4.609  17.934  0.00  0.00    +0.000 C 
ATOM      7  C   UNL     1       5.886   5.038  17.112  0.00  0.00    +0.000 C 
BRANCH   7   8
ATOM      8  P   UNL     1       6.035   4.504  15.368  0.00  0.00    +0.000 P 
ATOM      9  O   UNL     1       7.527   4.854  15.254  0.00  0.00    +0.000 OA
BRANCH   8  10
ATOM     10  O   UNL     1       5.954   2.923  15.775  0.00  0.00    +0.000 OA
ATOM     11  H   UNL     1       5.749   2.358  15.008  0.00  0.00    +0.000 HD
ENDBRANCH   8  10
BRANCH   8  12
ATOM     12  O   UNL     1       6.175   3.999  13.719  0.00  0.00    +0.000 OA
ATOM     13  H   UNL     1       5.643   4.686  13.259  0.00  0.00    +0.000 HD
ENDBRANCH   8  12
ENDBRANCH   7   8
ENDBRANCH   5   6
ENDBRANCH   4   5
BRANCH   4  14
ATOM     14  O   UNL     1       2.351   5.779  18.564  0.00  0.00    +0.000 OA
BRANCH  14  15
ATOM     15  C   UNL     1       2.828   7.130  18.464  0.00  0.00    +0.000 C 
BRANCH  15  16
ATOM     16  C   UNL     1       1.969   8.070  19.281  0.00  0.00    +0.000 A 
ATOM     17  C   UNL     1       1.367   9.211  18.738  0.00  0.00    +0.000 A 
ATOM     18  C   UNL     1       0.550  10.034  19.523  0.00  0.00    +0.000 A 
ATOM     19  C   UNL     1       0.312   9.734  20.866  0.00  0.00    +0.000 A 
ATOM     20  C   UNL     1       0.931   8.604  21.418  0.00  0.00    +0.000 A 
ATOM     21  C   UNL     1       1.746   7.780  20.637  0.00  0.00    +0.000 A 
BRANCH  19  22
ATOM     22  C   UNL     1      -0.626  10.610  21.680  0.00  0.00    +0.000 C 
ATOM     23  C   UNL     1      -0.713  10.125  23.130  0.00  0.00    +0.000 C 
ATOM     24  C   UNL     1      -0.231  12.087  21.620  0.00  0.00    +0.000 C 
ENDBRANCH  19  22
ENDBRANCH  15  16
ENDBRANCH  14  15
ENDBRANCH   4  14
TORSDOF 9
ENDMDL
