MODEL 1
REMARK VINA RESULT:      -9.6      0.000      0.000
REMARK  Name = 
REMARK  7 active torsions:
REMARK  status: ('A' for Active; 'I' for Inactive)
REMARK    1  A    between atoms: C_1  and  C_2
REMARK    2  A    between atoms: C_2  and  C_3
REMARK    3  A    between atoms: C_6  and  C_7
REMARK    4  A    between atoms: C_6  and  C_8
REMARK    5  A    between atoms: C_11  and  C_12
REMARK    6  A    between atoms: N_14  and  C_15
REMARK    7  A    between atoms: C_18  and  C_19
REMARK                            x       y       z     vdW  Elec       q    Type
REMARK                         _______ _______ _______ _____ _____    ______ ____
ROOT
ATOM      1  C   UNL     1       1.541   8.709  18.911  0.00  0.00    +0.000 C 
ATOM      2  O   UNL     1       0.940   9.425  18.113  0.00  0.00    +0.000 OA
ATOM      3  N   UNL     1       1.491   8.811  20.294  0.00  0.00    +0.000 N 
ATOM      4  H   UNL     1       2.186   8.309  20.830  0.00  0.00    +0.000 HD
ENDROOT
BRANCH   1  15
ATOM      5  C   UNL     1       6.456   4.655  17.629  0.00  0.00    +0.000 C 
ATOM      6  C   UNL     1       5.093   4.521  16.917  0.00  0.00    +0.000 C 
ATOM      7  C   UNL     1       5.313   4.679  15.393  0.00  0.00    +0.000 C 
ATOM      8  C   UNL     1       4.522   3.095  17.112  0.00  0.00    +0.000 C 
ATOM      9  C   UNL     1       3.894   2.876  18.477  0.00  0.00    +0.000 C 
ATOM     10  C   UNL     1       2.768   3.881  18.808  0.00  0.00    +0.000 C 
ATOM     11  C   UNL     1       1.433   3.401  18.195  0.00  0.00    +0.000 C 
ATOM     12  C   UNL     1       2.628   3.868  20.352  0.00  0.00    +0.000 C 
ATOM     13  C   UNL     1       3.067   5.297  18.301  0.00  0.00    +0.000 A 
ATOM     14  C   UNL     1       2.219   6.350  18.701  0.00  0.00    +0.000 A 
ATOM     15  C   UNL     1       2.447   7.683  18.337  0.00  0.00    +0.000 A 
ATOM     16  C   UNL     1       3.554   7.995  17.560  0.00  0.00    +0.000 A 
ATOM     17  C   UNL     1       4.389   6.961  17.123  0.00  0.00    +0.000 A 
ATOM     18  C   UNL     1       4.148   5.602  17.451  0.00  0.00    +0.000 A 
ENDBRANCH   1  15
BRANCH   3  19
ATOM     19  C   UNL     1       0.643   9.695  21.003  0.00  0.00    +0.000 A 
ATOM     20  C   UNL     1       0.354  10.985  20.548  0.00  0.00    +0.000 A 
ATOM     21  C   UNL     1      -0.487  11.837  21.263  0.00  0.00    +0.000 A 
ATOM     22  C   UNL     1      -1.066  11.407  22.454  0.00  0.00    +0.000 A 
ATOM     23  C   UNL     1      -0.802  10.114  22.919  0.00  0.00    +0.000 A 
ATOM     24  C   UNL     1       0.048   9.260  22.194  0.00  0.00    +0.000 A 
BRANCH  22  25
ATOM     25  C   UNL     1      -1.990  12.285  23.190  0.00  0.00    +0.000 A 
ATOM     26  N   UNL     1      -1.728  13.484  23.587  0.00  0.00    +0.000 NA
ATOM     27  O   UNL     1      -2.906  13.909  24.282  0.00  0.00    +0.000 OA
ATOM     28  C   UNL     1      -3.795  12.870  24.203  0.00  0.00    +0.000 A 
ATOM     29  O   UNL     1      -4.921  12.855  24.680  0.00  0.00    +0.000 OA
ATOM     30  N   UNL     1      -3.221  11.866  23.522  0.00  0.00    +0.000 N 
ATOM     31  H   UNL     1      -3.692  11.005  23.313  0.00  0.00    +0.000 HD
ENDBRANCH  22  25
ENDBRANCH   3  19
TORSDOF 3
ENDMDL
MODEL 2
REMARK VINA RESULT:      -9.4      0.478      1.291
REMARK  Name = 
REMARK  7 active torsions:
REMARK  status: ('A' for Active; 'I' for Inactive)
REMARK    1  A    between atoms: C_1  and  C_2
REMARK    2  A    between atoms: C_2  and  C_3
REMARK    3  A    between atoms: C_6  and  C_7
REMARK    4  A    between atoms: C_6  and  C_8
REMARK    5  A    between atoms: C_11  and  C_12
REMARK    6  A    between atoms: N_14  and  C_15
REMARK    7  A    between atoms: C_18  and  C_19
REMARK                            x       y       z     vdW  Elec       q    Type
REMARK                         _______ _______ _______ _____ _____    ______ ____
ROOT
ATOM      1  C   UNL     1       1.496   8.682  19.004  0.00  0.00    +0.000 C 
ATOM      2  O   UNL     1       0.962   9.463  18.218  0.00  0.00    +0.000 OA
ATOM      3  N   UNL     1       1.370   8.706  20.386  0.00  0.00    +0.000 N 
ATOM      4  H   UNL     1       2.019   8.152  20.929  0.00  0.00    +0.000 HD
ENDROOT
BRANCH   1  15
ATOM      5  C   UNL     1       6.422   4.656  17.679  0.00  0.00    +0.000 C 
ATOM      6  C   UNL     1       5.056   4.519  16.973  0.00  0.00    +0.000 C 
ATOM      7  C   UNL     1       5.267   4.684  15.449  0.00  0.00    +0.000 C 
ATOM      8  C   UNL     1       4.492   3.089  17.165  0.00  0.00    +0.000 C 
ATOM      9  C   UNL     1       3.873   2.862  18.532  0.00  0.00    +0.000 C 
ATOM     10  C   UNL     1       2.744   3.860  18.874  0.00  0.00    +0.000 C 
ATOM     11  C   UNL     1       1.408   3.376  18.266  0.00  0.00    +0.000 C 
ATOM     12  C   UNL     1       2.612   3.840  20.418  0.00  0.00    +0.000 C 
ATOM     13  C   UNL     1       3.034   5.279  18.372  0.00  0.00    +0.000 A 
ATOM     14  C   UNL     1       2.184   6.327  18.780  0.00  0.00    +0.000 A 
ATOM     15  C   UNL     1       2.404   7.663  18.421  0.00  0.00    +0.000 A 
ATOM     16  C   UNL     1       3.505   7.983  17.640  0.00  0.00    +0.000 A 
ATOM     17  C   UNL     1       4.342   6.955  17.194  0.00  0.00    +0.000 A 
ATOM     18  C   UNL     1       4.109   5.594  17.517  0.00  0.00    +0.000 A 
ENDBRANCH   1  15
BRANCH   3  19
ATOM     19  C   UNL     1       0.509   9.574  21.099  0.00  0.00    +0.000 A 
ATOM     20  C   UNL     1       0.054   9.286  22.389  0.00  0.00    +0.000 A 
ATOM     21  C   UNL     1      -0.792  10.159  23.073  0.00  0.00    +0.000 A 
ATOM     22  C   UNL     1      -1.196  11.350  22.475  0.00  0.00    +0.000 A 
ATOM     23  C   UNL     1      -0.740  11.663  21.189  0.00  0.00    +0.000 A 
ATOM     24  C   UNL     1       0.112  10.778  20.505  0.00  0.00    +0.000 A 
BRANCH  22  25
ATOM     25  C   UNL     1      -2.051  12.296  23.209  0.00  0.00    +0.000 A 
ATOM     26  N   UNL     1      -3.254  12.061  23.612  0.00  0.00    +0.000 NA
ATOM     27  O   UNL     1      -3.682  13.280  24.231  0.00  0.00    +0.000 OA
ATOM     28  C   UNL     1      -2.626  14.147  24.142  0.00  0.00    +0.000 A 
ATOM     29  O   UNL     1      -2.607  15.296  24.561  0.00  0.00    +0.000 OA
ATOM     30  N   UNL     1      -1.617  13.530  23.509  0.00  0.00    +0.000 N 
ATOM     31  H   UNL     1      -0.724  13.959  23.348  0.00  0.00    +0.000 HD
ENDBRANCH  22  25
ENDBRANCH   3  19
TORSDOF 3
ENDMDL
MODEL 3
REMARK VINA RESULT:      -9.0      1.694      1.914
REMARK  Name = 
REMARK  7 active torsions:
REMARK  status: ('A' for Active; 'I' for Inactive)
REMARK    1  A    between atoms: C_1  and  C_2
REMARK    2  A    between atoms: C_2  and  C_3
REMARK    3  A    between atoms: C_6  and  C_7
REMARK    4  A    between atoms: C_6  and  C_8
REMARK    5  A    between atoms: C_11  and  C_12
REMARK    6  A    between atoms: N_14  and  C_15
REMARK    7  A    between atoms: C_18  and  C_19
REMARK                            x       y       z     vdW  Elec       q    Type
REMARK                         _______ _______ _______ _____ _____    ______ ____
ROOT
ATOM      1  C   UNL     1       1.909   9.119  18.242  0.00  0.00    +0.000 C 
ATOM      2  O   UNL     1       2.064  10.107  17.526  0.00  0.00    +0.000 OA
ATOM      3  N   UNL     1       1.096   9.048  19.364  0.00  0.00    +0.000 N 
ATOM      4  H   UNL     1       1.215   8.258  19.984  0.00  0.00    +0.000 HD
ENDROOT
BRANCH   1  15
ATOM      5  C   UNL     1       6.348   4.380  17.979  0.00  0.00    +0.000 C 
ATOM      6  C   UNL     1       5.017   4.284  17.200  0.00  0.00    +0.000 C 
ATOM      7  C   UNL     1       5.335   4.160  15.691  0.00  0.00    +0.000 C 
ATOM      8  C   UNL     1       4.266   2.984  17.579  0.00  0.00    +0.000 C 
ATOM      9  C   UNL     1       3.545   3.068  18.913  0.00  0.00    +0.000 C 
ATOM     10  C   UNL     1       2.535   4.235  18.998  0.00  0.00    +0.000 C 
ATOM     11  C   UNL     1       1.185   3.813  18.374  0.00  0.00    +0.000 C 
ATOM     12  C   UNL     1       2.314   4.495  20.510  0.00  0.00    +0.000 C 
ATOM     13  C   UNL     1       3.033   5.503  18.295  0.00  0.00    +0.000 A 
ATOM     14  C   UNL     1       2.301   6.697  18.459  0.00  0.00    +0.000 A 
ATOM     15  C   UNL     1       2.710   7.917  17.906  0.00  0.00    +0.000 A 
ATOM     16  C   UNL     1       3.886   7.968  17.171  0.00  0.00    +0.000 A 
ATOM     17  C   UNL     1       4.609   6.788  16.965  0.00  0.00    +0.000 A 
ATOM     18  C   UNL     1       4.186   5.539  17.486  0.00  0.00    +0.000 A 
ENDBRANCH   1  15
BRANCH   3  19
ATOM     19  C   UNL     1       0.228  10.081  19.794  0.00  0.00    +0.000 A 
ATOM     20  C   UNL     1       0.446  10.802  20.972  0.00  0.00    +0.000 A 
ATOM     21  C   UNL     1      -0.422  11.817  21.374  0.00  0.00    +0.000 A 
ATOM     22  C   UNL     1      -1.529  12.138  20.592  0.00  0.00    +0.000 A 
ATOM     23  C   UNL     1      -1.756  11.438  19.401  0.00  0.00    +0.000 A 
ATOM     24  C   UNL     1      -0.878  10.415  19.003  0.00  0.00    +0.000 A 
BRANCH  22  25
ATOM     25  C   UNL     1      -2.422  13.239  20.987  0.00  0.00    +0.000 A 
ATOM     26  N   UNL     1      -2.286  13.974  22.038  0.00  0.00    +0.000 NA
ATOM     27  O   UNL     1      -3.406  14.866  22.013  0.00  0.00    +0.000 OA
ATOM     28  C   UNL     1      -4.114  14.563  20.881  0.00  0.00    +0.000 A 
ATOM     29  O   UNL     1      -5.142  15.113  20.512  0.00  0.00    +0.000 OA
ATOM     30  N   UNL     1      -3.497  13.553  20.248  0.00  0.00    +0.000 N 
ATOM     31  H   UNL     1      -3.819  13.173  19.376  0.00  0.00    +0.000 HD
ENDBRANCH  22  25
ENDBRANCH   3  19
TORSDOF 3
ENDMDL
MODEL 4
REMARK VINA RESULT:      -8.9      1.124      1.237
REMARK  Name = 
REMARK  7 active torsions:
REMARK  status: ('A' for Active; 'I' for Inactive)
REMARK    1  A    between atoms: C_1  and  C_2
REMARK    2  A    between atoms: C_2  and  C_3
REMARK    3  A    between atoms: C_6  and  C_7
REMARK    4  A    between atoms: C_6  and  C_8
REMARK    5  A    between atoms: C_11  and  C_12
REMARK    6  A    between atoms: N_14  and  C_15
REMARK    7  A    between atoms: C_18  and  C_19
REMARK                            x       y       z     vdW  Elec       q    Type
REMARK                         _______ _______ _______ _____ _____    ______ ____
ROOT
ATOM      1  C   UNL     1       1.860   9.079  18.423  0.00  0.00    +0.000 C 
ATOM      2  O   UNL     1       1.941  10.076  17.709  0.00  0.00    +0.000 OA
ATOM      3  N   UNL     1       1.129   8.978  19.598  0.00  0.00    +0.000 N 
ATOM      4  H   UNL     1       1.310   8.186  20.201  0.00  0.00    +0.000 HD
ENDROOT
BRANCH   1  15
ATOM      5  C   UNL     1       6.362   4.429  17.842  0.00  0.00    +0.000 C 
ATOM      6  C   UNL     1       5.001   4.329  17.120  0.00  0.00    +0.000 C 
ATOM      7  C   UNL     1       5.254   4.249  15.596  0.00  0.00    +0.000 C 
ATOM      8  C   UNL     1       4.289   3.007  17.497  0.00  0.00    +0.000 C 
ATOM      9  C   UNL     1       3.626   3.043  18.862  0.00  0.00    +0.000 C 
ATOM     10  C   UNL     1       2.602   4.189  19.022  0.00  0.00    +0.000 C 
ATOM     11  C   UNL     1       1.233   3.758  18.447  0.00  0.00    +0.000 C 
ATOM     12  C   UNL     1       2.443   4.406  20.548  0.00  0.00    +0.000 C 
ATOM     13  C   UNL     1       3.046   5.483  18.332  0.00  0.00    +0.000 A 
ATOM     14  C   UNL     1       2.302   6.659  18.560  0.00  0.00    +0.000 A 
ATOM     15  C   UNL     1       2.666   7.900  18.021  0.00  0.00    +0.000 A 
ATOM     16  C   UNL     1       3.808   7.991  17.237  0.00  0.00    +0.000 A 
ATOM     17  C   UNL     1       4.540   6.830  16.969  0.00  0.00    +0.000 A 
ATOM     18  C   UNL     1       4.162   5.561  17.475  0.00  0.00    +0.000 A 
ENDBRANCH   1  15
BRANCH   3  19
ATOM     19  C   UNL     1       0.267   9.984  20.097  0.00  0.00    +0.000 A 
ATOM     20  C   UNL     1      -0.731  10.573  19.315  0.00  0.00    +0.000 A 
ATOM     21  C   UNL     1      -1.570  11.561  19.830  0.00  0.00    +0.000 A 
ATOM     22  C   UNL     1      -1.429  11.977  21.152  0.00  0.00    +0.000 A 
ATOM     23  C   UNL     1      -0.445  11.390  21.955  0.00  0.00    +0.000 A 
ATOM     24  C   UNL     1       0.399  10.395  21.430  0.00  0.00    +0.000 A 
BRANCH  22  25
ATOM     25  C   UNL     1      -2.340  12.986  21.714  0.00  0.00    +0.000 A 
ATOM     26  N   UNL     1      -2.948  13.903  21.041  0.00  0.00    +0.000 NA
ATOM     27  O   UNL     1      -3.678  14.656  22.017  0.00  0.00    +0.000 OA
ATOM     28  C   UNL     1      -3.426  14.063  23.226  0.00  0.00    +0.000 A 
ATOM     29  O   UNL     1      -3.875  14.422  24.306  0.00  0.00    +0.000 OA
ATOM     30  N   UNL     1      -2.597  13.026  23.030  0.00  0.00    +0.000 N 
ATOM     31  H   UNL     1      -2.291  12.421  23.769  0.00  0.00    +0.000 HD
ENDBRANCH  22  25
ENDBRANCH   3  19
TORSDOF 3
ENDMDL
MODEL 5
REMARK VINA RESULT:      -8.8      3.195     10.376
REMARK  Name = 
REMARK  7 active torsions:
REMARK  status: ('A' for Active; 'I' for Inactive)
REMARK    1  A    between atoms: C_1  and  C_2
REMARK    2  A    between atoms: C_2  and  C_3
REMARK    3  A    between atoms: C_6  and  C_7
REMARK    4  A    between atoms: C_6  and  C_8
REMARK    5  A    between atoms: C_11  and  C_12
REMARK    6  A    between atoms: N_14  and  C_15
REMARK    7  A    between atoms: C_18  and  C_19
REMARK                            x       y       z     vdW  Elec       q    Type
REMARK                         _______ _______ _______ _____ _____    ______ ____
ROOT
ATOM      1  C   UNL     1       1.022   8.957  21.051  0.00  0.00    +0.000 C 
ATOM      2  O   UNL     1       1.650   8.306  21.884  0.00  0.00    +0.000 OA
ATOM      3  N   UNL     1       1.209   8.915  19.677  0.00  0.00    +0.000 N 
ATOM      4  H   UNL     1       0.784   9.645  19.120  0.00  0.00    +0.000 HD
ENDROOT
BRANCH   1  15
ATOM      5  C   UNL     1      -2.074  13.998  23.740  0.00  0.00    +0.000 C 
ATOM      6  C   UNL     1      -2.829  12.937  22.910  0.00  0.00    +0.000 C 
ATOM      7  C   UNL     1      -3.899  12.275  23.809  0.00  0.00    +0.000 C 
ATOM      8  C   UNL     1      -3.609  13.613  21.756  0.00  0.00    +0.000 C 
ATOM      9  C   UNL     1      -2.735  13.997  20.576  0.00  0.00    +0.000 C 
ATOM     10  C   UNL     1      -1.949  12.809  19.977  0.00  0.00    +0.000 C 
ATOM     11  C   UNL     1      -2.839  12.037  18.976  0.00  0.00    +0.000 C 
ATOM     12  C   UNL     1      -0.766  13.435  19.195  0.00  0.00    +0.000 C 
ATOM     13  C   UNL     1      -1.440  11.834  21.045  0.00  0.00    +0.000 A 
ATOM     14  C   UNL     1      -0.548  10.814  20.657  0.00  0.00    +0.000 A 
ATOM     15  C   UNL     1       0.016   9.915  21.572  0.00  0.00    +0.000 A 
ATOM     16  C   UNL     1      -0.302  10.027  22.918  0.00  0.00    +0.000 A 
ATOM     17  C   UNL     1      -1.213  11.010  23.320  0.00  0.00    +0.000 A 
ATOM     18  C   UNL     1      -1.821  11.902  22.400  0.00  0.00    +0.000 A 
ENDBRANCH   1  15
BRANCH   3  19
ATOM     19  C   UNL     1       2.087   8.025  19.012  0.00  0.00    +0.000 A 
ATOM     20  C   UNL     1       2.788   8.385  17.858  0.00  0.00    +0.000 A 
ATOM     21  C   UNL     1       3.649   7.491  17.222  0.00  0.00    +0.000 A 
ATOM     22  C   UNL     1       3.832   6.211  17.740  0.00  0.00    +0.000 A 
ATOM     23  C   UNL     1       3.150   5.836  18.903  0.00  0.00    +0.000 A 
ATOM     24  C   UNL     1       2.282   6.742  19.539  0.00  0.00    +0.000 A 
BRANCH  22  25
ATOM     25  C   UNL     1       4.774   5.279  17.100  0.00  0.00    +0.000 A 
ATOM     26  N   UNL     1       4.470   4.124  16.612  0.00  0.00    +0.000 NA
ATOM     27  O   UNL     1       5.710   3.583  16.143  0.00  0.00    +0.000 OA
ATOM     28  C   UNL     1       6.665   4.530  16.399  0.00  0.00    +0.000 A 
ATOM     29  O   UNL     1       7.857   4.434  16.141  0.00  0.00    +0.000 OA
ATOM     30  N   UNL     1       6.077   5.581  16.991  0.00  0.00    +0.000 N 
ATOM     31  H   UNL     1       6.573   6.414  17.251  0.00  0.00    +0.000 HD
ENDBRANCH  22  25
ENDBRANCH   3  19
TORSDOF 3
ENDMDL
MODEL 6
REMARK VINA RESULT:      -8.8      3.250     10.406
REMARK  Name = 
REMARK  7 active torsions:
REMARK  status: ('A' for Active; 'I' for Inactive)
REMARK    1  A    between atoms: C_1  and  C_2
REMARK    2  A    between atoms: C_2  and  C_3
REMARK    3  A    between atoms: C_6  and  C_7
REMARK    4  A    between atoms: C_6  and  C_8
REMARK    5  A    between atoms: C_11  and  C_12
REMARK    6  A    between atoms: N_14  and  C_15
REMARK    7  A    between atoms: C_18  and  C_19
REMARK                            x       y       z     vdW  Elec       q    Type
REMARK                         _______ _______ _______ _____ _____    ______ ____
ROOT
ATOM      1  C   UNL     1       1.185   8.557  20.780  0.00  0.00    +0.000 C 
ATOM      2  O   UNL     1       1.665   7.750  21.573  0.00  0.00    +0.000 OA
ATOM      3  N   UNL     1       1.478   8.640  19.426  0.00  0.00    +0.000 N 
ATOM      4  H   UNL     1       1.185   9.471  18.929  0.00  0.00    +0.000 HD
ENDROOT
BRANCH   1  15
ATOM      5  C   UNL     1      -1.521  13.768  23.565  0.00  0.00    +0.000 C 
ATOM      6  C   UNL     1      -2.366  12.744  22.777  0.00  0.00    +0.000 C 
ATOM      7  C   UNL     1      -3.429  12.144  23.728  0.00  0.00    +0.000 C 
ATOM      8  C   UNL     1      -3.162  13.454  21.654  0.00  0.00    +0.000 C 
ATOM      9  C   UNL     1      -2.322  13.785  20.434  0.00  0.00    +0.000 C 
ATOM     10  C   UNL     1      -1.627  12.554  19.809  0.00  0.00    +0.000 C 
ATOM     11  C   UNL     1      -2.600  11.824  18.855  0.00  0.00    +0.000 C 
ATOM     12  C   UNL     1      -0.449  13.113  18.970  0.00  0.00    +0.000 C 
ATOM     13  C   UNL     1      -1.123  11.560  20.861  0.00  0.00    +0.000 A 
ATOM     14  C   UNL     1      -0.302  10.492  20.442  0.00  0.00    +0.000 A 
ATOM     15  C   UNL     1       0.254   9.570  21.337  0.00  0.00    +0.000 A 
ATOM     16  C   UNL     1       0.003   9.706  22.695  0.00  0.00    +0.000 A 
ATOM     17  C   UNL     1      -0.837  10.737  23.129  0.00  0.00    +0.000 A 
ATOM     18  C   UNL     1      -1.438  11.654  22.231  0.00  0.00    +0.000 A 
ENDBRANCH   1  15
BRANCH   3  19
ATOM     19  C   UNL     1       2.300   7.726  18.725  0.00  0.00    +0.000 A 
ATOM     20  C   UNL     1       2.206   6.342  18.904  0.00  0.00    +0.000 A 
ATOM     21  C   UNL     1       3.025   5.461  18.199  0.00  0.00    +0.000 A 
ATOM     22  C   UNL     1       3.957   5.952  17.288  0.00  0.00    +0.000 A 
ATOM     23  C   UNL     1       4.058   7.333  17.085  0.00  0.00    +0.000 A 
ATOM     24  C   UNL     1       3.229   8.217  17.799  0.00  0.00    +0.000 A 
BRANCH  22  25
ATOM     25  C   UNL     1       4.793   5.025  16.509  0.00  0.00    +0.000 A 
ATOM     26  N   UNL     1       5.030   3.794  16.813  0.00  0.00    +0.000 NA
ATOM     27  O   UNL     1       5.914   3.324  15.789  0.00  0.00    +0.000 OA
ATOM     28  C   UNL     1       6.103   4.375  14.932  0.00  0.00    +0.000 A 
ATOM     29  O   UNL     1       6.801   4.362  13.927  0.00  0.00    +0.000 OA
ATOM     30  N   UNL     1       5.403   5.427  15.383  0.00  0.00    +0.000 N 
ATOM     31  H   UNL     1       5.365   6.308  14.904  0.00  0.00    +0.000 HD
ENDBRANCH  22  25
ENDBRANCH   3  19
TORSDOF 3
ENDMDL
MODEL 7
REMARK VINA RESULT:      -8.6      1.272      1.612
REMARK  Name = 
REMARK  7 active torsions:
REMARK  status: ('A' for Active; 'I' for Inactive)
REMARK    1  A    between atoms: C_1  and  C_2
REMARK    2  A    between atoms: C_2  and  C_3
REMARK    3  A    between atoms: C_6  and  C_7
REMARK    4  A    between atoms: C_6  and  C_8
REMARK    5  A    between atoms: C_11  and  C_12
REMARK    6  A    between atoms: N_14  and  C_15
REMARK    7  A    between atoms: C_18  and  C_19
REMARK                            x       y       z     vdW  Elec       q    Type
REMARK                         _______ _______ _______ _____ _____    ______ ____
ROOT
ATOM      1  C   UNL     1       1.406   8.970  19.029  0.00  0.00    +0.000 C 
ATOM      2  O   UNL     1       0.764   9.541  18.149  0.00  0.00    +0.000 OA
ATOM      3  N   UNL     1       1.464   9.343  20.364  0.00  0.00    +0.000 N 
ATOM      4  H   UNL     1       2.185   8.928  20.939  0.00  0.00    +0.000 HD
ENDROOT
BRANCH   1  15
ATOM      5  C   UNL     1       6.081   4.521  18.272  0.00  0.00    +0.000 C 
ATOM      6  C   UNL     1       4.677   4.329  17.658  0.00  0.00    +0.000 C 
ATOM      7  C   UNL     1       4.822   4.203  16.123  0.00  0.00    +0.000 C 
ATOM      8  C   UNL     1       4.061   2.989  18.132  0.00  0.00    +0.000 C 
ATOM      9  C   UNL     1       3.500   3.046  19.541  0.00  0.00    +0.000 C 
ATOM     10  C   UNL     1       2.433   4.147  19.738  0.00  0.00    +0.000 C 
ATOM     11  C   UNL     1       1.049   3.631  19.282  0.00  0.00    +0.000 C 
ATOM     12  C   UNL     1       2.376   4.414  21.263  0.00  0.00    +0.000 C 
ATOM     13  C   UNL     1       2.761   5.434  18.972  0.00  0.00    +0.000 A 
ATOM     14  C   UNL     1       1.978   6.582  19.214  0.00  0.00    +0.000 A 
ATOM     15  C   UNL     1       2.239   7.817  18.608  0.00  0.00    +0.000 A 
ATOM     16  C   UNL     1       3.314   7.932  17.738  0.00  0.00    +0.000 A 
ATOM     17  C   UNL     1       4.082   6.798  17.456  0.00  0.00    +0.000 A 
ATOM     18  C   UNL     1       3.806   5.532  18.032  0.00  0.00    +0.000 A 
ENDBRANCH   1  15
BRANCH   3  19
ATOM     19  C   UNL     1       0.696  10.382  20.942  0.00  0.00    +0.000 A 
ATOM     20  C   UNL     1      -0.260  10.146  21.935  0.00  0.00    +0.000 A 
ATOM     21  C   UNL     1      -1.003  11.187  22.492  0.00  0.00    +0.000 A 
ATOM     22  C   UNL     1      -0.795  12.497  22.066  0.00  0.00    +0.000 A 
ATOM     23  C   UNL     1       0.167  12.756  21.083  0.00  0.00    +0.000 A 
ATOM     24  C   UNL     1       0.912  11.702  20.526  0.00  0.00    +0.000 A 
BRANCH  22  25
ATOM     25  C   UNL     1      -1.543  13.604  22.682  0.00  0.00    +0.000 A 
ATOM     26  N   UNL     1      -2.301  14.438  22.053  0.00  0.00    +0.000 NA
ATOM     27  O   UNL     1      -2.770  15.343  23.059  0.00  0.00    +0.000 OA
ATOM     28  C   UNL     1      -2.228  14.917  24.242  0.00  0.00    +0.000 A 
ATOM     29  O   UNL     1      -2.398  15.438  25.336  0.00  0.00    +0.000 OA
ATOM     30  N   UNL     1      -1.469  13.837  24.001  0.00  0.00    +0.000 N 
ATOM     31  H   UNL     1      -0.989  13.331  24.723  0.00  0.00    +0.000 HD
ENDBRANCH  22  25
ENDBRANCH   3  19
TORSDOF 3
ENDMDL
MODEL 8
REMARK VINA RESULT:      -8.5      2.149      2.201
REMARK  Name = 
REMARK  7 active torsions:
REMARK  status: ('A' for Active; 'I' for Inactive)
REMARK    1  A    between atoms: C_1  and  C_2
REMARK    2  A    between atoms: C_2  and  C_3
REMARK    3  A    between atoms: C_6  and  C_7
REMARK    4  A    between atoms: C_6  and  C_8
REMARK    5  A    between atoms: C_11  and  C_12
REMARK    6  A    between atoms: N_14  and  C_15
REMARK    7  A    between atoms: C_18  and  C_19
REMARK                            x       y       z     vdW  Elec       q    Type
REMARK                         _______ _______ _______ _____ _____    ______ ____
ROOT
ATOM      1  C   UNL     1       1.580   8.572  19.250  0.00  0.00    +0.000 C 
ATOM      2  O   UNL     1       1.387   8.398  20.451  0.00  0.00    +0.000 OA
ATOM      3  N   UNL     1       1.015   9.574  18.473  0.00  0.00    +0.000 N 
ATOM      4  H   UNL     1       1.082   9.485  17.467  0.00  0.00    +0.000 HD
ENDROOT
BRANCH   1  15
ATOM      5  C   UNL     1       6.405   4.621  17.423  0.00  0.00    +0.000 C 
ATOM      6  C   UNL     1       4.998   4.521  16.794  0.00  0.00    +0.000 C 
ATOM      7  C   UNL     1       5.120   4.767  15.271  0.00  0.00    +0.000 C 
ATOM      8  C   UNL     1       4.442   3.084  16.944  0.00  0.00    +0.000 C 
ATOM      9  C   UNL     1       3.905   2.785  18.331  0.00  0.00    +0.000 C 
ATOM     10  C   UNL     1       2.801   3.764  18.792  0.00  0.00    +0.000 C 
ATOM     11  C   UNL     1       1.430   3.313  18.239  0.00  0.00    +0.000 C 
ATOM     12  C   UNL     1       2.761   3.662  20.338  0.00  0.00    +0.000 C 
ATOM     13  C   UNL     1       3.066   5.207  18.348  0.00  0.00    +0.000 A 
ATOM     14  C   UNL     1       2.245   6.232  18.862  0.00  0.00    +0.000 A 
ATOM     15  C   UNL     1       2.448   7.585  18.561  0.00  0.00    +0.000 A 
ATOM     16  C   UNL     1       3.502   7.946  17.734  0.00  0.00    +0.000 A 
ATOM     17  C   UNL     1       4.307   6.943  17.185  0.00  0.00    +0.000 A 
ATOM     18  C   UNL     1       4.090   5.566  17.449  0.00  0.00    +0.000 A 
ENDBRANCH   1  15
BRANCH   3  19
ATOM     19  C   UNL     1       0.209  10.623  18.976  0.00  0.00    +0.000 A 
ATOM     20  C   UNL     1       0.741  11.698  19.694  0.00  0.00    +0.000 A 
ATOM     21  C   UNL     1      -0.072  12.723  20.178  0.00  0.00    +0.000 A 
ATOM     22  C   UNL     1      -1.445  12.693  19.943  0.00  0.00    +0.000 A 
ATOM     23  C   UNL     1      -1.995  11.632  19.214  0.00  0.00    +0.000 A 
ATOM     24  C   UNL     1      -1.169  10.602  18.730  0.00  0.00    +0.000 A 
BRANCH  22  25
ATOM     25  C   UNL     1      -2.302  13.793  20.412  0.00  0.00    +0.000 A 
ATOM     26  N   UNL     1      -1.887  14.886  20.957  0.00  0.00    +0.000 NA
ATOM     27  O   UNL     1      -3.077  15.617  21.275  0.00  0.00    +0.000 OA
ATOM     28  C   UNL     1      -4.126  14.848  20.845  0.00  0.00    +0.000 A 
ATOM     29  O   UNL     1      -5.311  15.136  20.941  0.00  0.00    +0.000 OA
ATOM     30  N   UNL     1      -3.638  13.719  20.309  0.00  0.00    +0.000 N 
ATOM     31  H   UNL     1      -4.218  13.009  19.901  0.00  0.00    +0.000 HD
ENDBRANCH  22  25
ENDBRANCH   3  19
TORSDOF 3
ENDMDL
MODEL 9
REMARK VINA RESULT:      -8.5      2.224      2.630
REMARK  Name = 
REMARK  7 active torsions:
REMARK  status: ('A' for Active; 'I' for Inactive)
REMARK    1  A    between atoms: C_1  and  C_2
REMARK    2  A    between atoms: C_2  and  C_3
REMARK    3  A    between atoms: C_6  and  C_7
REMARK    4  A    between atoms: C_6  and  C_8
REMARK    5  A    between atoms: C_11  and  C_12
REMARK    6  A    between atoms: N_14  and  C_15
REMARK    7  A    between atoms: C_18  and  C_19
REMARK                            x       y       z     vdW  Elec       q    Type
REMARK                         _______ _______ _______ _____ _____    ______ ____
ROOT
ATOM      1  C   UNL     1       1.644   8.652  19.103  0.00  0.00    +0.000 C 
ATOM      2  O   UNL     1       1.420   8.498  20.302  0.00  0.00    +0.000 OA
ATOM      3  N   UNL     1       1.125   9.660  18.302  0.00  0.00    +0.000 N 
ATOM      4  H   UNL     1       1.211   9.557  17.300  0.00  0.00    +0.000 HD
ENDROOT
BRANCH   1  15
ATOM      5  C   UNL     1       6.407   4.570  17.406  0.00  0.00    +0.000 C 
ATOM      6  C   UNL     1       5.002   4.479  16.772  0.00  0.00    +0.000 C 
ATOM      7  C   UNL     1       5.135   4.682  15.244  0.00  0.00    +0.000 C 
ATOM      8  C   UNL     1       4.420   3.056  16.957  0.00  0.00    +0.000 C 
ATOM      9  C   UNL     1       3.871   2.803  18.349  0.00  0.00    +0.000 C 
ATOM     10  C   UNL     1       2.782   3.813  18.778  0.00  0.00    +0.000 C 
ATOM     11  C   UNL     1       1.406   3.372  18.230  0.00  0.00    +0.000 C 
ATOM     12  C   UNL     1       2.733   3.752  20.326  0.00  0.00    +0.000 C 
ATOM     13  C   UNL     1       3.075   5.239  18.298  0.00  0.00    +0.000 A 
ATOM     14  C   UNL     1       2.269   6.292  18.780  0.00  0.00    +0.000 A 
ATOM     15  C   UNL     1       2.497   7.632  18.446  0.00  0.00    +0.000 A 
ATOM     16  C   UNL     1       3.561   7.953  17.614  0.00  0.00    +0.000 A 
ATOM     17  C   UNL     1       4.352   6.921  17.096  0.00  0.00    +0.000 A 
ATOM     18  C   UNL     1       4.109   5.556  17.395  0.00  0.00    +0.000 A 
ENDBRANCH   1  15
BRANCH   3  19
ATOM     19  C   UNL     1       0.339  10.738  18.776  0.00  0.00    +0.000 A 
ATOM     20  C   UNL     1      -1.040  10.630  18.976  0.00  0.00    +0.000 A 
ATOM     21  C   UNL     1      -1.793  11.706  19.447  0.00  0.00    +0.000 A 
ATOM     22  C   UNL     1      -1.171  12.918  19.736  0.00  0.00    +0.000 A 
ATOM     23  C   UNL     1       0.211  13.042  19.557  0.00  0.00    +0.000 A 
ATOM     24  C   UNL     1       0.964  11.953  19.081  0.00  0.00    +0.000 A 
BRANCH  22  25
ATOM     25  C   UNL     1      -1.952  14.042  20.276  0.00  0.00    +0.000 A 
ATOM     26  N   UNL     1      -2.993  13.937  21.030  0.00  0.00    +0.000 NA
ATOM     27  O   UNL     1      -3.422  15.284  21.259  0.00  0.00    +0.000 OA
ATOM     28  C   UNL     1      -2.532  16.088  20.598  0.00  0.00    +0.000 A 
ATOM     29  O   UNL     1      -2.565  17.311  20.557  0.00  0.00    +0.000 OA
ATOM     30  N   UNL     1      -1.622  15.311  19.991  0.00  0.00    +0.000 N 
ATOM     31  H   UNL     1      -0.850  15.678  19.464  0.00  0.00    +0.000 HD
ENDBRANCH  22  25
ENDBRANCH   3  19
TORSDOF 3
ENDMDL
