MODEL 1
REMARK VINA RESULT:      -6.8      0.000      0.000
REMARK  Name = 
REMARK  3 active torsions:
REMARK  status: ('A' for Active; 'I' for Inactive)
REMARK    1  A    between atoms: O_1  and  C_2
REMARK    2  A    between atoms: C_2  and  C_3
REMARK    3  A    between atoms: C_11  and  N_12
REMARK                            x       y       z     vdW  Elec       q    Type
REMARK                         _______ _______ _______ _____ _____    ______ ____
ROOT
ATOM      1  C   UNL     1       2.794   2.333  19.435  0.00  0.00    +0.000 C 
ATOM      2  C   UNL     1       3.341   2.241  18.019  0.00  0.00    +0.000 C 
ATOM      3  O   UNL     1       4.205   3.347  17.746  0.00  0.00    +0.000 OA
ATOM      4  C   UNL     1       3.618   4.554  18.069  0.00  0.00    +0.000 A 
ATOM      5  C   UNL     1       2.525   4.609  18.959  0.00  0.00    +0.000 A 
ATOM      6  C   UNL     1       1.954   5.828  19.306  0.00  0.00    +0.000 A 
ATOM      7  C   UNL     1       2.497   7.003  18.803  0.00  0.00    +0.000 A 
ATOM      8  C   UNL     1       3.611   6.952  17.958  0.00  0.00    +0.000 A 
ATOM      9  C   UNL     1       4.207   5.737  17.566  0.00  0.00    +0.000 A 
ATOM     10  O   UNL     1       1.979   3.505  19.571  0.00  0.00    +0.000 OA
ENDROOT
BRANCH   9  11
ATOM     11  N   UNL     1       5.332   5.746  16.762  0.00  0.00    +0.000 N 
ATOM     12  C   UNL     1       6.694   5.757  17.309  0.00  0.00    +0.000 C 
ATOM     13  C   UNL     1       7.554   4.685  16.593  0.00  0.00    +0.000 C 
ATOM     14  N   UNL     1       7.546   4.789  15.119  0.00  0.00    +0.000 NA
ATOM     15  C   UNL     1       6.145   4.787  14.639  0.00  0.00    +0.000 C 
ATOM     16  C   UNL     1       5.274   5.879  15.298  0.00  0.00    +0.000 C 
ATOM     17  H   UNL     1       8.028   3.981  14.729  0.00  0.00    +0.000 HD
ENDBRANCH   9  11
BRANCH   1  18
ATOM     18  C   UNL     1       3.894   2.317  20.507  0.00  0.00    +0.000 C 
BRANCH  18  19
ATOM     19  O   UNL     1       5.097   1.758  19.991  0.00  0.00    +0.000 OA
ATOM     20  H   UNL     1       5.215   0.897  20.432  0.00  0.00    +0.000 HD
ENDBRANCH  18  19
ENDBRANCH   1  18
TORSDOF 3
ENDMDL
MODEL 2
REMARK VINA RESULT:      -6.5      1.463      1.920
REMARK  Name = 
REMARK  3 active torsions:
REMARK  status: ('A' for Active; 'I' for Inactive)
REMARK    1  A    between atoms: O_1  and  C_2
REMARK    2  A    between atoms: C_2  and  C_3
REMARK    3  A    between atoms: C_11  and  N_12
REMARK                            x       y       z     vdW  Elec       q    Type
REMARK                         _______ _______ _______ _____ _____    ______ ____
ROOT
ATOM      1  C   UNL     1       1.321   3.156  20.533  0.00  0.00    +0.000 C 
ATOM      2  C   UNL     1       2.030   2.420  19.406  0.00  0.00    +0.000 C 
ATOM      3  O   UNL     1       3.225   3.110  19.034  0.00  0.00    +0.000 OA
ATOM      4  C   UNL     1       2.997   4.452  18.804  0.00  0.00    +0.000 A 
ATOM      5  C   UNL     1       1.849   5.088  19.321  0.00  0.00    +0.000 A 
ATOM      6  C   UNL     1       1.636   6.446  19.112  0.00  0.00    +0.000 A 
ATOM      7  C   UNL     1       2.588   7.187  18.426  0.00  0.00    +0.000 A 
ATOM      8  C   UNL     1       3.750   6.568  17.954  0.00  0.00    +0.000 A 
ATOM      9  C   UNL     1       3.995   5.191  18.126  0.00  0.00    +0.000 A 
ATOM     10  O   UNL     1       0.898   4.451  20.084  0.00  0.00    +0.000 OA
ENDROOT
BRANCH   9  11
ATOM     11  N   UNL     1       5.179   4.637  17.676  0.00  0.00    +0.000 N 
ATOM     12  C   UNL     1       5.299   3.991  16.363  0.00  0.00    +0.000 C 
ATOM     13  C   UNL     1       6.565   4.515  15.637  0.00  0.00    +0.000 C 
ATOM     14  N   UNL     1       7.807   4.400  16.429  0.00  0.00    +0.000 NA
ATOM     15  C   UNL     1       7.609   5.058  17.741  0.00  0.00    +0.000 C 
ATOM     16  C   UNL     1       6.383   4.521  18.513  0.00  0.00    +0.000 C 
ATOM     17  H   UNL     1       8.558   4.877  15.934  0.00  0.00    +0.000 HD
ENDBRANCH   9  11
BRANCH   1  18
ATOM     18  C   UNL     1       2.179   3.282  21.801  0.00  0.00    +0.000 C 
BRANCH  18  19
ATOM     19  O   UNL     1       3.130   2.225  21.878  0.00  0.00    +0.000 OA
ATOM     20  H   UNL     1       2.754   1.476  21.381  0.00  0.00    +0.000 HD
ENDBRANCH  18  19
ENDBRANCH   1  18
TORSDOF 3
ENDMDL
MODEL 3
REMARK VINA RESULT:      -6.4      2.497      4.993
REMARK  Name = 
REMARK  3 active torsions:
REMARK  status: ('A' for Active; 'I' for Inactive)
REMARK    1  A    between atoms: O_1  and  C_2
REMARK    2  A    between atoms: C_2  and  C_3
REMARK    3  A    between atoms: C_11  and  N_12
REMARK                            x       y       z     vdW  Elec       q    Type
REMARK                         _______ _______ _______ _____ _____    ______ ____
ROOT
ATOM      1  C   UNL     1       6.688   5.424  16.119  0.00  0.00    +0.000 C 
ATOM      2  C   UNL     1       6.625   4.569  17.376  0.00  0.00    +0.000 C 
ATOM      3  O   UNL     1       5.266   4.299  17.726  0.00  0.00    +0.000 OA
ATOM      4  C   UNL     1       4.503   5.449  17.763  0.00  0.00    +0.000 A 
ATOM      5  C   UNL     1       4.927   6.617  17.096  0.00  0.00    +0.000 A 
ATOM      6  C   UNL     1       4.142   7.766  17.110  0.00  0.00    +0.000 A 
ATOM      7  C   UNL     1       2.911   7.741  17.750  0.00  0.00    +0.000 A 
ATOM      8  C   UNL     1       2.468   6.569  18.371  0.00  0.00    +0.000 A 
ATOM      9  C   UNL     1       3.240   5.391  18.397  0.00  0.00    +0.000 A 
ATOM     10  O   UNL     1       6.089   6.704  16.366  0.00  0.00    +0.000 OA
ENDROOT
BRANCH   9  11
ATOM     11  N   UNL     1       2.737   4.247  18.990  0.00  0.00    +0.000 N 
ATOM     12  C   UNL     1       2.949   3.934  20.409  0.00  0.00    +0.000 C 
ATOM     13  C   UNL     1       1.604   3.519  21.058  0.00  0.00    +0.000 C 
ATOM     14  N   UNL     1       0.899   2.432  20.348  0.00  0.00    +0.000 NA
ATOM     15  C   UNL     1       0.735   2.808  18.925  0.00  0.00    +0.000 C 
ATOM     16  C   UNL     1       2.066   3.178  18.235  0.00  0.00    +0.000 C 
ATOM     17  H   UNL     1      -0.023   2.311  20.764  0.00  0.00    +0.000 HD
ENDBRANCH   9  11
BRANCH   1  18
ATOM     18  C   UNL     1       6.036   4.753  14.902  0.00  0.00    +0.000 C 
BRANCH  18  19
ATOM     19  O   UNL     1       6.186   3.338  14.961  0.00  0.00    +0.000 OA
ATOM     20  H   UNL     1       6.643   3.142  15.798  0.00  0.00    +0.000 HD
ENDBRANCH  18  19
ENDBRANCH   1  18
TORSDOF 3
ENDMDL
MODEL 4
REMARK VINA RESULT:      -6.3      2.332      4.859
REMARK  Name = 
REMARK  3 active torsions:
REMARK  status: ('A' for Active; 'I' for Inactive)
REMARK    1  A    between atoms: O_1  and  C_2
REMARK    2  A    between atoms: C_2  and  C_3
REMARK    3  A    between atoms: C_11  and  N_12
REMARK                            x       y       z     vdW  Elec       q    Type
REMARK                         _______ _______ _______ _____ _____    ______ ____
ROOT
ATOM      1  C   UNL     1       6.834   5.459  15.977  0.00  0.00    +0.000 C 
ATOM      2  C   UNL     1       6.799   4.524  17.176  0.00  0.00    +0.000 C 
ATOM      3  O   UNL     1       5.449   4.212  17.525  0.00  0.00    +0.000 OA
ATOM      4  C   UNL     1       4.671   5.346  17.646  0.00  0.00    +0.000 A 
ATOM      5  C   UNL     1       5.070   6.561  17.051  0.00  0.00    +0.000 A 
ATOM      6  C   UNL     1       4.271   7.695  17.149  0.00  0.00    +0.000 A 
ATOM      7  C   UNL     1       3.048   7.612  17.801  0.00  0.00    +0.000 A 
ATOM      8  C   UNL     1       2.630   6.395  18.350  0.00  0.00    +0.000 A 
ATOM      9  C   UNL     1       3.417   5.229  18.291  0.00  0.00    +0.000 A 
ATOM     10  O   UNL     1       6.221   6.712  16.314  0.00  0.00    +0.000 OA
ENDROOT
BRANCH   9  11
ATOM     11  N   UNL     1       2.938   4.042  18.814  0.00  0.00    +0.000 N 
ATOM     12  C   UNL     1       1.528   3.851  19.173  0.00  0.00    +0.000 C 
ATOM     13  C   UNL     1       1.018   2.507  18.592  0.00  0.00    +0.000 C 
ATOM     14  N   UNL     1       1.847   1.339  18.953  0.00  0.00    +0.000 NA
ATOM     15  C   UNL     1       3.254   1.607  18.576  0.00  0.00    +0.000 C 
ATOM     16  C   UNL     1       3.808   2.916  19.182  0.00  0.00    +0.000 C 
ATOM     17  H   UNL     1       1.518   0.528  18.432  0.00  0.00    +0.000 HD
ENDBRANCH   9  11
BRANCH   1  18
ATOM     18  C   UNL     1       6.175   4.859  14.726  0.00  0.00    +0.000 C 
BRANCH  18  19
ATOM     19  O   UNL     1       6.251   3.437  14.745  0.00  0.00    +0.000 OA
ATOM     20  H   UNL     1       7.196   3.209  14.686  0.00  0.00    +0.000 HD
ENDBRANCH  18  19
ENDBRANCH   1  18
TORSDOF 3
ENDMDL
MODEL 5
REMARK VINA RESULT:      -6.2      2.490      4.933
REMARK  Name = 
REMARK  3 active torsions:
REMARK  status: ('A' for Active; 'I' for Inactive)
REMARK    1  A    between atoms: O_1  and  C_2
REMARK    2  A    between atoms: C_2  and  C_3
REMARK    3  A    between atoms: C_11  and  N_12
REMARK                            x       y       z     vdW  Elec       q    Type
REMARK                         _______ _______ _______ _____ _____    ______ ____
ROOT
ATOM      1  C   UNL     1       6.440   5.190  16.950  0.00  0.00    +0.000 C 
ATOM      2  C   UNL     1       6.156   4.572  18.311  0.00  0.00    +0.000 C 
ATOM      3  O   UNL     1       4.747   4.463  18.524  0.00  0.00    +0.000 OA
ATOM      4  C   UNL     1       4.093   5.654  18.276  0.00  0.00    +0.000 A 
ATOM      5  C   UNL     1       4.696   6.656  17.488  0.00  0.00    +0.000 A 
ATOM      6  C   UNL     1       4.024   7.843  17.215  0.00  0.00    +0.000 A 
ATOM      7  C   UNL     1       2.730   8.017  17.688  0.00  0.00    +0.000 A 
ATOM      8  C   UNL     1       2.114   7.004  18.430  0.00  0.00    +0.000 A 
ATOM      9  C   UNL     1       2.767   5.796  18.746  0.00  0.00    +0.000 A 
ATOM     10  O   UNL     1       5.937   6.533  16.908  0.00  0.00    +0.000 OA
ENDROOT
BRANCH   9  11
ATOM     11  N   UNL     1       2.097   4.810  19.447  0.00  0.00    +0.000 N 
ATOM     12  C   UNL     1       1.397   3.705  18.781  0.00  0.00    +0.000 C 
ATOM     13  C   UNL     1       1.784   2.362  19.451  0.00  0.00    +0.000 C 
ATOM     14  N   UNL     1       1.592   2.339  20.916  0.00  0.00    +0.000 NA
ATOM     15  C   UNL     1       2.311   3.486  21.517  0.00  0.00    +0.000 C 
ATOM     16  C   UNL     1       1.909   4.846  20.905  0.00  0.00    +0.000 C 
ATOM     17  H   UNL     1       1.985   1.476  21.286  0.00  0.00    +0.000 HD
ENDBRANCH   9  11
BRANCH   1  18
ATOM     18  C   UNL     1       5.871   4.368  15.785  0.00  0.00    +0.000 C 
BRANCH  18  19
ATOM     19  O   UNL     1       5.683   3.009  16.167  0.00  0.00    +0.000 OA
ATOM     20  H   UNL     1       6.518   2.717  16.575  0.00  0.00    +0.000 HD
ENDBRANCH  18  19
ENDBRANCH   1  18
TORSDOF 3
ENDMDL
MODEL 6
REMARK VINA RESULT:      -6.1      1.031      1.082
REMARK  Name = 
REMARK  3 active torsions:
REMARK  status: ('A' for Active; 'I' for Inactive)
REMARK    1  A    between atoms: O_1  and  C_2
REMARK    2  A    between atoms: C_2  and  C_3
REMARK    3  A    between atoms: C_11  and  N_12
REMARK                            x       y       z     vdW  Elec       q    Type
REMARK                         _______ _______ _______ _____ _____    ______ ____
ROOT
ATOM      1  C   UNL     1       2.115   1.995  18.458  0.00  0.00    +0.000 C 
ATOM      2  C   UNL     1       2.662   2.503  17.132  0.00  0.00    +0.000 C 
ATOM      3  O   UNL     1       3.640   3.520  17.355  0.00  0.00    +0.000 OA
ATOM      4  C   UNL     1       3.182   4.501  18.212  0.00  0.00    +0.000 A 
ATOM      5  C   UNL     1       2.093   4.253  19.074  0.00  0.00    +0.000 A 
ATOM      6  C   UNL     1       1.652   5.232  19.958  0.00  0.00    +0.000 A 
ATOM      7  C   UNL     1       2.321   6.447  20.019  0.00  0.00    +0.000 A 
ATOM      8  C   UNL     1       3.430   6.676  19.198  0.00  0.00    +0.000 A 
ATOM      9  C   UNL     1       3.897   5.719  18.275  0.00  0.00    +0.000 A 
ATOM     10  O   UNL     1       1.427   3.052  19.142  0.00  0.00    +0.000 OA
ENDROOT
BRANCH   9  11
ATOM     11  N   UNL     1       5.024   5.981  17.517  0.00  0.00    +0.000 N 
ATOM     12  C   UNL     1       6.383   5.883  18.062  0.00  0.00    +0.000 C 
ATOM     13  C   UNL     1       7.279   5.075  17.090  0.00  0.00    +0.000 C 
ATOM     14  N   UNL     1       7.273   5.578  15.701  0.00  0.00    +0.000 NA
ATOM     15  C   UNL     1       5.874   5.664  15.223  0.00  0.00    +0.000 C 
ATOM     16  C   UNL     1       4.966   6.507  16.145  0.00  0.00    +0.000 C 
ATOM     17  H   UNL     1       7.781   4.921  15.111  0.00  0.00    +0.000 HD
ENDBRANCH   9  11
BRANCH   1  18
ATOM     18  C   UNL     1       3.197   1.386  19.361  0.00  0.00    +0.000 C 
BRANCH  18  19
ATOM     19  O   UNL     1       4.244   0.814  18.584  0.00  0.00    +0.000 OA
ATOM     20  H   UNL     1       4.377  -0.091  18.920  0.00  0.00    +0.000 HD
ENDBRANCH  18  19
ENDBRANCH   1  18
TORSDOF 3
ENDMDL
MODEL 7
REMARK VINA RESULT:      -6.0      2.496      4.939
REMARK  Name = 
REMARK  3 active torsions:
REMARK  status: ('A' for Active; 'I' for Inactive)
REMARK    1  A    between atoms: O_1  and  C_2
REMARK    2  A    between atoms: C_2  and  C_3
REMARK    3  A    between atoms: C_11  and  N_12
REMARK                            x       y       z     vdW  Elec       q    Type
REMARK                         _______ _______ _______ _____ _____    ______ ____
ROOT
ATOM      1  C   UNL     1       7.141   5.617  16.673  0.00  0.00    +0.000 C 
ATOM      2  C   UNL     1       6.819   4.690  17.835  0.00  0.00    +0.000 C 
ATOM      3  O   UNL     1       5.417   4.418  17.882  0.00  0.00    +0.000 OA
ATOM      4  C   UNL     1       4.663   5.575  17.831  0.00  0.00    +0.000 A 
ATOM      5  C   UNL     1       5.218   6.774  17.339  0.00  0.00    +0.000 A 
ATOM      6  C   UNL     1       4.449   7.931  17.261  0.00  0.00    +0.000 A 
ATOM      7  C   UNL     1       3.112   7.886  17.632  0.00  0.00    +0.000 A 
ATOM      8  C   UNL     1       2.549   6.685  18.076  0.00  0.00    +0.000 A 
ATOM      9  C   UNL     1       3.297   5.497  18.188  0.00  0.00    +0.000 A 
ATOM     10  O   UNL     1       6.505   6.888  16.870  0.00  0.00    +0.000 OA
ENDROOT
BRANCH   9  11
ATOM     11  N   UNL     1       2.682   4.327  18.594  0.00  0.00    +0.000 N 
ATOM     12  C   UNL     1       1.946   3.459  17.665  0.00  0.00    +0.000 C 
ATOM     13  C   UNL     1       2.385   1.986  17.868  0.00  0.00    +0.000 C 
ATOM     14  N   UNL     1       2.290   1.513  19.264  0.00  0.00    +0.000 NA
ATOM     15  C   UNL     1       3.039   2.441  20.143  0.00  0.00    +0.000 C 
ATOM     16  C   UNL     1       2.589   3.911  20.001  0.00  0.00    +0.000 C 
ATOM     17  H   UNL     1       2.712   0.588  19.328  0.00  0.00    +0.000 HD
ENDBRANCH   9  11
BRANCH   1  18
ATOM     18  C   UNL     1       6.752   5.029  15.309  0.00  0.00    +0.000 C 
BRANCH  18  19
ATOM     19  O   UNL     1       7.682   5.420  14.304  0.00  0.00    +0.000 OA
ATOM     20  H   UNL     1       7.575   6.381  14.186  0.00  0.00    +0.000 HD
ENDBRANCH  18  19
ENDBRANCH   1  18
TORSDOF 3
ENDMDL
MODEL 8
REMARK VINA RESULT:      -6.0      2.473      5.213
REMARK  Name = 
REMARK  3 active torsions:
REMARK  status: ('A' for Active; 'I' for Inactive)
REMARK    1  A    between atoms: O_1  and  C_2
REMARK    2  A    between atoms: C_2  and  C_3
REMARK    3  A    between atoms: C_11  and  N_12
REMARK                            x       y       z     vdW  Elec       q    Type
REMARK                         _______ _______ _______ _____ _____    ______ ____
ROOT
ATOM      1  C   UNL     1       7.442   6.668  18.062  0.00  0.00    +0.000 C 
ATOM      2  C   UNL     1       5.968   6.791  18.419  0.00  0.00    +0.000 C 
ATOM      3  O   UNL     1       5.303   5.542  18.223  0.00  0.00    +0.000 OA
ATOM      4  C   UNL     1       5.559   5.010  16.975  0.00  0.00    +0.000 A 
ATOM      5  C   UNL     1       6.677   5.432  16.227  0.00  0.00    +0.000 A 
ATOM      6  C   UNL     1       6.950   4.874  14.983  0.00  0.00    +0.000 A 
ATOM      7  C   UNL     1       6.136   3.859  14.498  0.00  0.00    +0.000 A 
ATOM      8  C   UNL     1       5.054   3.407  15.261  0.00  0.00    +0.000 A 
ATOM      9  C   UNL     1       4.731   3.959  16.516  0.00  0.00    +0.000 A 
ATOM     10  O   UNL     1       7.585   6.367  16.667  0.00  0.00    +0.000 OA
ENDROOT
BRANCH   9  11
ATOM     11  N   UNL     1       3.675   3.446  17.247  0.00  0.00    +0.000 N 
ATOM     12  C   UNL     1       3.751   2.157  17.946  0.00  0.00    +0.000 C 
ATOM     13  C   UNL     1       3.223   2.316  19.394  0.00  0.00    +0.000 C 
ATOM     14  N   UNL     1       1.877   2.919  19.485  0.00  0.00    +0.000 NA
ATOM     15  C   UNL     1       1.871   4.204  18.749  0.00  0.00    +0.000 C 
ATOM     16  C   UNL     1       2.344   4.070  17.285  0.00  0.00    +0.000 C 
ATOM     17  H   UNL     1       1.664   3.101  20.464  0.00  0.00    +0.000 HD
ENDBRANCH   9  11
BRANCH   1  18
ATOM     18  C   UNL     1       8.182   5.627  18.914  0.00  0.00    +0.000 C 
BRANCH  18  19
ATOM     19  O   UNL     1       7.644   5.573  20.231  0.00  0.00    +0.000 OA
ATOM     20  H   UNL     1       8.379   5.768  20.839  0.00  0.00    +0.000 HD
ENDBRANCH  18  19
ENDBRANCH   1  18
TORSDOF 3
ENDMDL
MODEL 9
REMARK VINA RESULT:      -6.0      0.705      1.329
REMARK  Name = 
REMARK  3 active torsions:
REMARK  status: ('A' for Active; 'I' for Inactive)
REMARK    1  A    between atoms: O_1  and  C_2
REMARK    2  A    between atoms: C_2  and  C_3
REMARK    3  A    between atoms: C_11  and  N_12
REMARK                            x       y       z     vdW  Elec       q    Type
REMARK                         _______ _______ _______ _____ _____    ______ ____
ROOT
ATOM      1  C   UNL     1       2.605   2.173  19.820  0.00  0.00    +0.000 C 
ATOM      2  C   UNL     1       3.153   1.781  18.456  0.00  0.00    +0.000 C 
ATOM      3  O   UNL     1       4.102   2.748  18.005  0.00  0.00    +0.000 OA
ATOM      4  C   UNL     1       3.610   4.035  18.089  0.00  0.00    +0.000 A 
ATOM      5  C   UNL     1       2.519   4.336  18.931  0.00  0.00    +0.000 A 
ATOM      6  C   UNL     1       2.044   5.639  19.037  0.00  0.00    +0.000 A 
ATOM      7  C   UNL     1       2.682   6.656  18.339  0.00  0.00    +0.000 A 
ATOM      8  C   UNL     1       3.793   6.366  17.541  0.00  0.00    +0.000 A 
ATOM      9  C   UNL     1       4.294   5.058  17.390  0.00  0.00    +0.000 A 
ATOM     10  O   UNL     1       1.884   3.409  19.723  0.00  0.00    +0.000 OA
ENDROOT
BRANCH   9  11
ATOM     11  N   UNL     1       5.421   4.832  16.621  0.00  0.00    +0.000 N 
ATOM     12  C   UNL     1       5.357   4.221  15.288  0.00  0.00    +0.000 C 
ATOM     13  C   UNL     1       6.206   5.051  14.292  0.00  0.00    +0.000 C 
ATOM     14  N   UNL     1       7.598   5.285  14.730  0.00  0.00    +0.000 NA
ATOM     15  C   UNL     1       7.585   5.887  16.084  0.00  0.00    +0.000 C 
ATOM     16  C   UNL     1       6.789   5.055  17.113  0.00  0.00    +0.000 C 
ATOM     17  H   UNL     1       8.041   5.937  14.086  0.00  0.00    +0.000 HD
ENDBRANCH   9  11
BRANCH   1  18
ATOM     18  C   UNL     1       3.693   2.271  20.900  0.00  0.00    +0.000 C 
BRANCH  18  19
ATOM     19  O   UNL     1       4.944   1.805  20.403  0.00  0.00    +0.000 OA
ATOM     20  H   UNL     1       5.627   2.139  21.012  0.00  0.00    +0.000 HD
ENDBRANCH  18  19
ENDBRANCH   1  18
TORSDOF 3
ENDMDL
