MODEL 1
REMARK VINA RESULT:      -7.4      0.000      0.000
REMARK  Name = 
REMARK  4 active torsions:
REMARK  status: ('A' for Active; 'I' for Inactive)
REMARK    1  A    between atoms: C_2  and  C_3
REMARK    2  A    between atoms: C_7  and  C_8
REMARK    3  A    between atoms: N_17  and  S_18
REMARK    4  A    between atoms: S_18  and  C_21
REMARK                            x       y       z     vdW  Elec       q    Type
REMARK                         _______ _______ _______ _____ _____    ______ ____
ROOT
ATOM      1  O   UNL     1       1.928   9.443  18.267  0.00  0.00    +0.000 OA
ATOM      2  C   UNL     1       1.731   8.650  19.193  0.00  0.00    +0.000 C 
ATOM      3  N   UNL     1       2.131   7.301  19.033  0.00  0.00    +0.000 N 
ATOM      4  C   UNL     1       2.106   6.295  20.103  0.00  0.00    +0.000 C 
ATOM      5  C   UNL     1       2.037   4.858  19.590  0.00  0.00    +0.000 C 
ATOM      6  N   UNL     1       3.086   4.562  18.576  0.00  0.00    +0.000 NA
ATOM      7  C   UNL     1       2.944   5.523  17.433  0.00  0.00    +0.000 C 
ATOM      8  C   UNL     1       3.015   6.992  17.892  0.00  0.00    +0.000 C 
ENDROOT
BRANCH   2   9
ATOM      9  C   UNL     1       1.028   9.076  20.411  0.00  0.00    +0.000 A 
ATOM     10  S   UNL     1       1.762   8.805  21.956  0.00  0.00    +0.000 S 
ATOM     11  C   UNL     1       0.412   9.396  22.799  0.00  0.00    +0.000 A 
ATOM     12  C   UNL     1      -0.478  10.000  21.947  0.00  0.00    +0.000 A 
ATOM     13  C   UNL     1      -0.109   9.878  20.559  0.00  0.00    +0.000 A 
BRANCH  13  14
ATOM     14  C   UNL     1      -0.854  10.523  19.466  0.00  0.00    +0.000 A 
ATOM     15  C   UNL     1      -1.741   9.742  18.702  0.00  0.00    +0.000 A 
ATOM     16  C   UNL     1      -2.453  10.290  17.632  0.00  0.00    +0.000 A 
ATOM     17  C   UNL     1      -2.301  11.637  17.319  0.00  0.00    +0.000 A 
ATOM     18  C   UNL     1      -1.430  12.426  18.069  0.00  0.00    +0.000 A 
ATOM     19  C   UNL     1      -0.699  11.871  19.126  0.00  0.00    +0.000 A 
ENDBRANCH  13  14
ENDBRANCH   2   9
BRANCH   6  20
ATOM     20  S   UNL     1       4.693   4.356  19.116  0.00  0.00    +0.000 S 
ATOM     21  O   UNL     1       5.035   5.498  19.935  0.00  0.00    +0.000 OA
ATOM     22  O   UNL     1       4.831   3.009  19.626  0.00  0.00    +0.000 OA
BRANCH  20  23
ATOM     23  C   UNL     1       5.643   4.459  17.615  0.00  0.00    +0.000 A 
ATOM     24  C   UNL     1       6.644   5.426  17.503  0.00  0.00    +0.000 A 
ATOM     25  C   UNL     1       7.324   5.562  16.293  0.00  0.00    +0.000 A 
ATOM     26  C   UNL     1       7.009   4.733  15.213  0.00  0.00    +0.000 A 
ATOM     27  C   UNL     1       6.018   3.758  15.336  0.00  0.00    +0.000 A 
ATOM     28  C   UNL     1       5.333   3.615  16.542  0.00  0.00    +0.000 A 
ENDBRANCH  20  23
ENDBRANCH   6  20
TORSDOF 4
ENDMDL
MODEL 2
REMARK VINA RESULT:      -7.2      6.274      9.353
REMARK  Name = 
REMARK  4 active torsions:
REMARK  status: ('A' for Active; 'I' for Inactive)
REMARK    1  A    between atoms: C_2  and  C_3
REMARK    2  A    between atoms: C_7  and  C_8
REMARK    3  A    between atoms: N_17  and  S_18
REMARK    4  A    between atoms: S_18  and  C_21
REMARK                            x       y       z     vdW  Elec       q    Type
REMARK                         _______ _______ _______ _____ _____    ______ ____
ROOT
ATOM      1  O   UNL     1      -1.490  11.625  19.197  0.00  0.00    +0.000 OA
ATOM      2  C   UNL     1      -0.538  11.738  19.974  0.00  0.00    +0.000 C 
ATOM      3  N   UNL     1       0.439  12.731  19.718  0.00  0.00    +0.000 N 
ATOM      4  C   UNL     1       1.529  13.081  20.638  0.00  0.00    +0.000 C 
ATOM      5  C   UNL     1       2.725  13.732  19.948  0.00  0.00    +0.000 C 
ATOM      6  N   UNL     1       2.333  14.885  19.091  0.00  0.00    +0.000 NA
ATOM      7  C   UNL     1       1.344  14.416  18.067  0.00  0.00    +0.000 C 
ATOM      8  C   UNL     1       0.107  13.755  18.707  0.00  0.00    +0.000 C 
ENDROOT
BRANCH   2   9
ATOM      9  C   UNL     1      -0.376  10.812  21.103  0.00  0.00    +0.000 A 
ATOM     10  S   UNL     1       0.729   9.485  20.965  0.00  0.00    +0.000 S 
ATOM     11  C   UNL     1       0.302   8.857  22.483  0.00  0.00    +0.000 A 
ATOM     12  C   UNL     1      -0.479   9.742  23.183  0.00  0.00    +0.000 A 
ATOM     13  C   UNL     1      -0.834  10.913  22.422  0.00  0.00    +0.000 A 
BRANCH  13  14
ATOM     14  C   UNL     1      -1.586  12.045  22.986  0.00  0.00    +0.000 A 
ATOM     15  C   UNL     1      -0.940  13.289  23.111  0.00  0.00    +0.000 A 
ATOM     16  C   UNL     1      -1.591  14.392  23.668  0.00  0.00    +0.000 A 
ATOM     17  C   UNL     1      -2.909  14.272  24.095  0.00  0.00    +0.000 A 
ATOM     18  C   UNL     1      -3.566  13.049  23.975  0.00  0.00    +0.000 A 
ATOM     19  C   UNL     1      -2.906  11.937  23.439  0.00  0.00    +0.000 A 
ENDBRANCH  13  14
ENDBRANCH   2   9
BRANCH   6  20
ATOM     20  S   UNL     1       1.900  16.349  19.857  0.00  0.00    +0.000 S 
ATOM     21  O   UNL     1       0.859  16.055  20.817  0.00  0.00    +0.000 OA
ATOM     22  O   UNL     1       3.113  17.025  20.262  0.00  0.00    +0.000 OA
BRANCH  20  23
ATOM     23  C   UNL     1       1.174  17.298  18.539  0.00  0.00    +0.000 A 
ATOM     24  C   UNL     1      -0.172  17.662  18.619  0.00  0.00    +0.000 A 
ATOM     25  C   UNL     1      -0.760  18.327  17.544  0.00  0.00    +0.000 A 
ATOM     26  C   UNL     1      -0.006  18.631  16.407  0.00  0.00    +0.000 A 
ATOM     27  C   UNL     1       1.344  18.278  16.341  0.00  0.00    +0.000 A 
ATOM     28  C   UNL     1       1.939  17.613  17.411  0.00  0.00    +0.000 A 
ENDBRANCH  20  23
ENDBRANCH   6  20
TORSDOF 4
ENDMDL
MODEL 3
REMARK VINA RESULT:      -7.1      7.838     11.910
REMARK  Name = 
REMARK  4 active torsions:
REMARK  status: ('A' for Active; 'I' for Inactive)
REMARK    1  A    between atoms: C_2  and  C_3
REMARK    2  A    between atoms: C_7  and  C_8
REMARK    3  A    between atoms: N_17  and  S_18
REMARK    4  A    between atoms: S_18  and  C_21
REMARK                            x       y       z     vdW  Elec       q    Type
REMARK                         _______ _______ _______ _____ _____    ______ ____
ROOT
ATOM      1  O   UNL     1       8.295  15.198  21.359  0.00  0.00    +0.000 OA
ATOM      2  C   UNL     1       8.069  15.262  20.147  0.00  0.00    +0.000 C 
ATOM      3  N   UNL     1       6.725  15.242  19.701  0.00  0.00    +0.000 N 
ATOM      4  C   UNL     1       6.306  15.471  18.312  0.00  0.00    +0.000 C 
ATOM      5  C   UNL     1       4.945  14.868  17.976  0.00  0.00    +0.000 C 
ATOM      6  N   UNL     1       3.887  15.268  18.945  0.00  0.00    +0.000 NA
ATOM      7  C   UNL     1       4.307  14.850  20.324  0.00  0.00    +0.000 C 
ATOM      8  C   UNL     1       5.676  15.438  20.721  0.00  0.00    +0.000 C 
ENDROOT
BRANCH   2   9
ATOM      9  C   UNL     1       9.171  15.283  19.177  0.00  0.00    +0.000 A 
ATOM     10  S   UNL     1       9.938  16.787  18.792  0.00  0.00    +0.000 S 
ATOM     11  C   UNL     1      10.933  16.079  17.612  0.00  0.00    +0.000 A 
ATOM     12  C   UNL     1      10.863  14.710  17.663  0.00  0.00    +0.000 A 
ATOM     13  C   UNL     1       9.889  14.224  18.608  0.00  0.00    +0.000 A 
BRANCH  13  14
ATOM     14  C   UNL     1       9.698  12.797  18.908  0.00  0.00    +0.000 A 
ATOM     15  C   UNL     1       9.177  11.960  17.904  0.00  0.00    +0.000 A 
ATOM     16  C   UNL     1       8.943  10.602  18.140  0.00  0.00    +0.000 A 
ATOM     17  C   UNL     1       9.244  10.056  19.383  0.00  0.00    +0.000 A 
ATOM     18  C   UNL     1       9.766  10.870  20.387  0.00  0.00    +0.000 A 
ATOM     19  C   UNL     1       9.977  12.234  20.159  0.00  0.00    +0.000 A 
ENDBRANCH  13  14
ENDBRANCH   2   9
BRANCH   6  20
ATOM     20  S   UNL     1       3.272  16.858  18.858  0.00  0.00    +0.000 S 
ATOM     21  O   UNL     1       4.029  17.677  19.779  0.00  0.00    +0.000 OA
ATOM     22  O   UNL     1       3.157  17.224  17.463  0.00  0.00    +0.000 OA
BRANCH  20  23
ATOM     23  C   UNL     1       1.623  16.693  19.505  0.00  0.00    +0.000 A 
ATOM     24  C   UNL     1       0.604  16.230  18.670  0.00  0.00    +0.000 A 
ATOM     25  C   UNL     1      -0.703  16.188  19.154  0.00  0.00    +0.000 A 
ATOM     26  C   UNL     1      -0.983  16.599  20.460  0.00  0.00    +0.000 A 
ATOM     27  C   UNL     1       0.043  17.047  21.294  0.00  0.00    +0.000 A 
ATOM     28  C   UNL     1       1.353  17.092  20.818  0.00  0.00    +0.000 A 
ENDBRANCH  20  23
ENDBRANCH   6  20
TORSDOF 4
ENDMDL
MODEL 4
REMARK VINA RESULT:      -7.1      7.826     11.683
REMARK  Name = 
REMARK  4 active torsions:
REMARK  status: ('A' for Active; 'I' for Inactive)
REMARK    1  A    between atoms: C_2  and  C_3
REMARK    2  A    between atoms: C_7  and  C_8
REMARK    3  A    between atoms: N_17  and  S_18
REMARK    4  A    between atoms: S_18  and  C_21
REMARK                            x       y       z     vdW  Elec       q    Type
REMARK                         _______ _______ _______ _____ _____    ______ ____
ROOT
ATOM      1  O   UNL     1       6.583  13.392  22.627  0.00  0.00    +0.000 OA
ATOM      2  C   UNL     1       6.872  14.261  21.800  0.00  0.00    +0.000 C 
ATOM      3  N   UNL     1       5.865  14.731  20.922  0.00  0.00    +0.000 N 
ATOM      4  C   UNL     1       6.026  15.867  20.005  0.00  0.00    +0.000 C 
ATOM      5  C   UNL     1       5.069  15.833  18.816  0.00  0.00    +0.000 C 
ATOM      6  N   UNL     1       3.650  15.653  19.229  0.00  0.00    +0.000 NA
ATOM      7  C   UNL     1       3.530  14.384  20.020  0.00  0.00    +0.000 C 
ATOM      8  C   UNL     1       4.471  14.366  21.241  0.00  0.00    +0.000 C 
ENDROOT
BRANCH   2   9
ATOM      9  C   UNL     1       8.252  14.749  21.674  0.00  0.00    +0.000 A 
ATOM     10  S   UNL     1       8.810  16.008  22.725  0.00  0.00    +0.000 S 
ATOM     11  C   UNL     1      10.319  16.104  21.953  0.00  0.00    +0.000 A 
ATOM     12  C   UNL     1      10.495  15.063  21.078  0.00  0.00    +0.000 A 
ATOM     13  C   UNL     1       9.328  14.227  20.945  0.00  0.00    +0.000 A 
BRANCH  13  14
ATOM     14  C   UNL     1       9.303  12.997  20.139  0.00  0.00    +0.000 A 
ATOM     15  C   UNL     1       9.022  13.097  18.763  0.00  0.00    +0.000 A 
ATOM     16  C   UNL     1       8.954  11.961  17.952  0.00  0.00    +0.000 A 
ATOM     17  C   UNL     1       9.182  10.705  18.503  0.00  0.00    +0.000 A 
ATOM     18  C   UNL     1       9.466  10.588  19.863  0.00  0.00    +0.000 A 
ATOM     19  C   UNL     1       9.511  11.724  20.680  0.00  0.00    +0.000 A 
ENDBRANCH  13  14
ENDBRANCH   2   9
BRANCH   6  20
ATOM     20  S   UNL     1       2.837  16.985  19.924  0.00  0.00    +0.000 S 
ATOM     21  O   UNL     1       2.141  16.514  21.101  0.00  0.00    +0.000 OA
ATOM     22  O   UNL     1       3.766  18.091  20.005  0.00  0.00    +0.000 OA
BRANCH  20  23
ATOM     23  C   UNL     1       1.616  17.401  18.699  0.00  0.00    +0.000 A 
ATOM     24  C   UNL     1       2.031  17.826  17.436  0.00  0.00    +0.000 A 
ATOM     25  C   UNL     1       1.073  18.238  16.510  0.00  0.00    +0.000 A 
ATOM     26  C   UNL     1      -0.284  18.215  16.844  0.00  0.00    +0.000 A 
ATOM     27  C   UNL     1      -0.693  17.774  18.104  0.00  0.00    +0.000 A 
ATOM     28  C   UNL     1       0.258  17.361  19.036  0.00  0.00    +0.000 A 
ENDBRANCH  20  23
ENDBRANCH   6  20
TORSDOF 4
ENDMDL
MODEL 5
REMARK VINA RESULT:      -7.1      8.539     12.120
REMARK  Name = 
REMARK  4 active torsions:
REMARK  status: ('A' for Active; 'I' for Inactive)
REMARK    1  A    between atoms: C_2  and  C_3
REMARK    2  A    between atoms: C_7  and  C_8
REMARK    3  A    between atoms: N_17  and  S_18
REMARK    4  A    between atoms: S_18  and  C_21
REMARK                            x       y       z     vdW  Elec       q    Type
REMARK                         _______ _______ _______ _____ _____    ______ ____
ROOT
ATOM      1  O   UNL     1       9.360  16.276  21.322  0.00  0.00    +0.000 OA
ATOM      2  C   UNL     1       8.996  16.158  20.149  0.00  0.00    +0.000 C 
ATOM      3  N   UNL     1       7.653  15.798  19.883  0.00  0.00    +0.000 N 
ATOM      4  C   UNL     1       7.046  15.779  18.545  0.00  0.00    +0.000 C 
ATOM      5  C   UNL     1       5.831  14.862  18.438  0.00  0.00    +0.000 C 
ATOM      6  N   UNL     1       4.820  15.124  19.499  0.00  0.00    +0.000 NA
ATOM      7  C   UNL     1       5.470  14.960  20.841  0.00  0.00    +0.000 C 
ATOM      8  C   UNL     1       6.702  15.871  21.010  0.00  0.00    +0.000 C 
ENDROOT
BRANCH   2   9
ATOM      9  C   UNL     1       9.954  16.312  19.045  0.00  0.00    +0.000 A 
ATOM     10  S   UNL     1      10.512  17.895  18.618  0.00  0.00    +0.000 S 
ATOM     11  C   UNL     1      11.408  17.318  17.296  0.00  0.00    +0.000 A 
ATOM     12  C   UNL     1      11.480  15.949  17.307  0.00  0.00    +0.000 A 
ATOM     13  C   UNL     1      10.692  15.346  18.352  0.00  0.00    +0.000 A 
BRANCH  13  14
ATOM     14  C   UNL     1      10.683  13.900  18.624  0.00  0.00    +0.000 A 
ATOM     15  C   UNL     1       9.820  13.077  17.875  0.00  0.00    +0.000 A 
ATOM     16  C   UNL     1       9.744  11.702  18.110  0.00  0.00    +0.000 A 
ATOM     17  C   UNL     1      10.545  11.123  19.089  0.00  0.00    +0.000 A 
ATOM     18  C   UNL     1      11.408  11.922  19.836  0.00  0.00    +0.000 A 
ATOM     19  C   UNL     1      11.467  13.304  19.618  0.00  0.00    +0.000 A 
ENDBRANCH  13  14
ENDBRANCH   2   9
BRANCH   6  20
ATOM     20  S   UNL     1       3.852  16.524  19.363  0.00  0.00    +0.000 S 
ATOM     21  O   UNL     1       3.935  17.244  20.614  0.00  0.00    +0.000 OA
ATOM     22  O   UNL     1       4.170  17.176  18.110  0.00  0.00    +0.000 OA
BRANCH  20  23
ATOM     23  C   UNL     1       2.204  15.868  19.220  0.00  0.00    +0.000 A 
ATOM     24  C   UNL     1       1.991  14.503  19.424  0.00  0.00    +0.000 A 
ATOM     25  C   UNL     1       0.715  13.978  19.222  0.00  0.00    +0.000 A 
ATOM     26  C   UNL     1      -0.334  14.813  18.830  0.00  0.00    +0.000 A 
ATOM     27  C   UNL     1      -0.118  16.179  18.643  0.00  0.00    +0.000 A 
ATOM     28  C   UNL     1       1.155  16.713  18.842  0.00  0.00    +0.000 A 
ENDBRANCH  20  23
ENDBRANCH   6  20
TORSDOF 4
ENDMDL
MODEL 6
REMARK VINA RESULT:      -7.0      2.531      8.703
REMARK  Name = 
REMARK  4 active torsions:
REMARK  status: ('A' for Active; 'I' for Inactive)
REMARK    1  A    between atoms: C_2  and  C_3
REMARK    2  A    between atoms: C_7  and  C_8
REMARK    3  A    between atoms: N_17  and  S_18
REMARK    4  A    between atoms: S_18  and  C_21
REMARK                            x       y       z     vdW  Elec       q    Type
REMARK                         _______ _______ _______ _____ _____    ______ ____
ROOT
ATOM      1  O   UNL     1       2.632   6.242  20.416  0.00  0.00    +0.000 OA
ATOM      2  C   UNL     1       2.658   6.927  19.389  0.00  0.00    +0.000 C 
ATOM      3  N   UNL     1       1.856   8.092  19.325  0.00  0.00    +0.000 N 
ATOM      4  C   UNL     1       1.910   9.079  18.239  0.00  0.00    +0.000 C 
ATOM      5  C   UNL     1       0.631   9.900  18.094  0.00  0.00    +0.000 C 
ATOM      6  N   UNL     1       0.197  10.515  19.379  0.00  0.00    +0.000 NA
ATOM      7  C   UNL     1      -0.002   9.430  20.395  0.00  0.00    +0.000 C 
ATOM      8  C   UNL     1       1.264   8.572  20.589  0.00  0.00    +0.000 C 
ENDROOT
BRANCH   2   9
ATOM      9  C   UNL     1       3.448   6.505  18.224  0.00  0.00    +0.000 A 
ATOM     10  S   UNL     1       4.649   7.573  17.579  0.00  0.00    +0.000 S 
ATOM     11  C   UNL     1       5.010   6.529  16.289  0.00  0.00    +0.000 A 
ATOM     12  C   UNL     1       4.414   5.306  16.461  0.00  0.00    +0.000 A 
ATOM     13  C   UNL     1       3.549   5.250  17.613  0.00  0.00    +0.000 A 
BRANCH  13  14
ATOM     14  C   UNL     1       2.874   4.021  18.058  0.00  0.00    +0.000 A 
ATOM     15  C   UNL     1       3.660   2.899  18.381  0.00  0.00    +0.000 A 
ATOM     16  C   UNL     1       3.074   1.694  18.778  0.00  0.00    +0.000 A 
ATOM     17  C   UNL     1       1.690   1.598  18.876  0.00  0.00    +0.000 A 
ATOM     18  C   UNL     1       0.898   2.701  18.565  0.00  0.00    +0.000 A 
ATOM     19  C   UNL     1       1.483   3.901  18.143  0.00  0.00    +0.000 A 
ENDBRANCH  13  14
ENDBRANCH   2   9
BRANCH   6  20
ATOM     20  S   UNL     1       1.068  11.863  19.962  0.00  0.00    +0.000 S 
ATOM     21  O   UNL     1       1.532  11.548  21.295  0.00  0.00    +0.000 OA
ATOM     22  O   UNL     1       1.997  12.283  18.935  0.00  0.00    +0.000 OA
BRANCH  20  23
ATOM     23  C   UNL     1      -0.179  13.124  20.104  0.00  0.00    +0.000 A 
ATOM     24  C   UNL     1       0.101  14.416  19.655  0.00  0.00    +0.000 A 
ATOM     25  C   UNL     1      -0.845  15.422  19.851  0.00  0.00    +0.000 A 
ATOM     26  C   UNL     1      -2.058  15.133  20.479  0.00  0.00    +0.000 A 
ATOM     27  C   UNL     1      -2.338  13.835  20.911  0.00  0.00    +0.000 A 
ATOM     28  C   UNL     1      -1.398  12.824  20.720  0.00  0.00    +0.000 A 
ENDBRANCH  20  23
ENDBRANCH   6  20
TORSDOF 4
ENDMDL
MODEL 7
REMARK VINA RESULT:      -7.0      5.229      7.550
REMARK  Name = 
REMARK  4 active torsions:
REMARK  status: ('A' for Active; 'I' for Inactive)
REMARK    1  A    between atoms: C_2  and  C_3
REMARK    2  A    between atoms: C_7  and  C_8
REMARK    3  A    between atoms: N_17  and  S_18
REMARK    4  A    between atoms: S_18  and  C_21
REMARK                            x       y       z     vdW  Elec       q    Type
REMARK                         _______ _______ _______ _____ _____    ______ ____
ROOT
ATOM      1  O   UNL     1      -2.964  15.431  21.150  0.00  0.00    +0.000 OA
ATOM      2  C   UNL     1      -2.392  14.682  21.947  0.00  0.00    +0.000 C 
ATOM      3  N   UNL     1      -1.862  13.457  21.474  0.00  0.00    +0.000 N 
ATOM      4  C   UNL     1      -1.024  12.551  22.270  0.00  0.00    +0.000 C 
ATOM      5  C   UNL     1      -1.044  11.107  21.777  0.00  0.00    +0.000 C 
ATOM      6  N   UNL     1      -0.751  10.995  20.321  0.00  0.00    +0.000 NA
ATOM      7  C   UNL     1      -1.751  11.812  19.559  0.00  0.00    +0.000 C 
ATOM      8  C   UNL     1      -1.769  13.286  20.010  0.00  0.00    +0.000 C 
ENDROOT
BRANCH   2   9
ATOM      9  C   UNL     1      -2.327  15.015  23.376  0.00  0.00    +0.000 A 
ATOM     10  S   UNL     1      -0.943  15.855  23.992  0.00  0.00    +0.000 S 
ATOM     11  C   UNL     1      -1.495  15.770  25.595  0.00  0.00    +0.000 A 
ATOM     12  C   UNL     1      -2.793  15.330  25.649  0.00  0.00    +0.000 A 
ATOM     13  C   UNL     1      -3.317  14.943  24.363  0.00  0.00    +0.000 A 
BRANCH  13  14
ATOM     14  C   UNL     1      -4.712  14.529  24.151  0.00  0.00    +0.000 A 
ATOM     15  C   UNL     1      -5.014  13.154  24.142  0.00  0.00    +0.000 A 
ATOM     16  C   UNL     1      -6.315  12.698  23.914  0.00  0.00    +0.000 A 
ATOM     17  C   UNL     1      -7.342  13.615  23.709  0.00  0.00    +0.000 A 
ATOM     18  C   UNL     1      -7.061  14.980  23.720  0.00  0.00    +0.000 A 
ATOM     19  C   UNL     1      -5.753  15.436  23.924  0.00  0.00    +0.000 A 
ENDBRANCH  13  14
ENDBRANCH   2   9
BRANCH   6  20
ATOM     20  S   UNL     1       0.862  11.213  19.804  0.00  0.00    +0.000 S 
ATOM     21  O   UNL     1       0.834  11.965  18.570  0.00  0.00    +0.000 OA
ATOM     22  O   UNL     1       1.643  11.670  20.934  0.00  0.00    +0.000 OA
BRANCH  20  23
ATOM     23  C   UNL     1       1.394   9.559  19.421  0.00  0.00    +0.000 A 
ATOM     24  C   UNL     1       1.430   8.600  20.435  0.00  0.00    +0.000 A 
ATOM     25  C   UNL     1       1.934   7.330  20.151  0.00  0.00    +0.000 A 
ATOM     26  C   UNL     1       2.387   7.026  18.865  0.00  0.00    +0.000 A 
ATOM     27  C   UNL     1       2.334   7.985  17.852  0.00  0.00    +0.000 A 
ATOM     28  C   UNL     1       1.832   9.256  18.127  0.00  0.00    +0.000 A 
ENDBRANCH  20  23
ENDBRANCH   6  20
TORSDOF 4
ENDMDL
MODEL 8
REMARK VINA RESULT:      -7.0      6.426     10.982
REMARK  Name = 
REMARK  4 active torsions:
REMARK  status: ('A' for Active; 'I' for Inactive)
REMARK    1  A    between atoms: C_2  and  C_3
REMARK    2  A    between atoms: C_7  and  C_8
REMARK    3  A    between atoms: N_17  and  S_18
REMARK    4  A    between atoms: S_18  and  C_21
REMARK                            x       y       z     vdW  Elec       q    Type
REMARK                         _______ _______ _______ _____ _____    ______ ____
ROOT
ATOM      1  O   UNL     1      -2.618  11.091  18.285  0.00  0.00    +0.000 OA
ATOM      2  C   UNL     1      -2.216  12.022  18.990  0.00  0.00    +0.000 C 
ATOM      3  N   UNL     1      -3.164  12.809  19.688  0.00  0.00    +0.000 N 
ATOM      4  C   UNL     1      -2.822  13.837  20.679  0.00  0.00    +0.000 C 
ATOM      5  C   UNL     1      -3.910  14.892  20.867  0.00  0.00    +0.000 C 
ATOM      6  N   UNL     1      -5.248  14.294  21.129  0.00  0.00    +0.000 NA
ATOM      7  C   UNL     1      -5.606  13.384  19.992  0.00  0.00    +0.000 C 
ATOM      8  C   UNL     1      -4.545  12.290  19.761  0.00  0.00    +0.000 C 
ENDROOT
BRANCH   2   9
ATOM      9  C   UNL     1      -0.787  12.359  19.047  0.00  0.00    +0.000 A 
ATOM     10  S   UNL     1      -0.202  13.739  18.178  0.00  0.00    +0.000 S 
ATOM     11  C   UNL     1       1.414  13.424  18.592  0.00  0.00    +0.000 A 
ATOM     12  C   UNL     1       1.498  12.445  19.549  0.00  0.00    +0.000 A 
ATOM     13  C   UNL     1       0.224  11.854  19.873  0.00  0.00    +0.000 A 
BRANCH  13  14
ATOM     14  C   UNL     1       0.045  10.852  20.935  0.00  0.00    +0.000 A 
ATOM     15  C   UNL     1      -0.550  11.250  22.146  0.00  0.00    +0.000 A 
ATOM     16  C   UNL     1      -0.717  10.351  23.203  0.00  0.00    +0.000 A 
ATOM     17  C   UNL     1      -0.307   9.030  23.056  0.00  0.00    +0.000 A 
ATOM     18  C   UNL     1       0.280   8.617  21.861  0.00  0.00    +0.000 A 
ATOM     19  C   UNL     1       0.469   9.524  20.812  0.00  0.00    +0.000 A 
ENDBRANCH  13  14
ENDBRANCH   2   9
BRANCH   6  20
ATOM     20  S   UNL     1      -5.545  13.626  22.672  0.00  0.00    +0.000 S 
ATOM     21  O   UNL     1      -6.948  13.809  22.972  0.00  0.00    +0.000 OA
ATOM     22  O   UNL     1      -4.941  12.312  22.722  0.00  0.00    +0.000 OA
BRANCH  20  23
ATOM     23  C   UNL     1      -4.614  14.684  23.760  0.00  0.00    +0.000 A 
ATOM     24  C   UNL     1      -3.462  14.189  24.374  0.00  0.00    +0.000 A 
ATOM     25  C   UNL     1      -2.787  14.990  25.295  0.00  0.00    +0.000 A 
ATOM     26  C   UNL     1      -3.257  16.272  25.589  0.00  0.00    +0.000 A 
ATOM     27  C   UNL     1      -4.402  16.766  24.959  0.00  0.00    +0.000 A 
ATOM     28  C   UNL     1      -5.083  15.972  24.038  0.00  0.00    +0.000 A 
ENDBRANCH  20  23
ENDBRANCH   6  20
TORSDOF 4
ENDMDL
MODEL 9
REMARK VINA RESULT:      -7.0      2.482      8.731
REMARK  Name = 
REMARK  4 active torsions:
REMARK  status: ('A' for Active; 'I' for Inactive)
REMARK    1  A    between atoms: C_2  and  C_3
REMARK    2  A    between atoms: C_7  and  C_8
REMARK    3  A    between atoms: N_17  and  S_18
REMARK    4  A    between atoms: S_18  and  C_21
REMARK                            x       y       z     vdW  Elec       q    Type
REMARK                         _______ _______ _______ _____ _____    ______ ____
ROOT
ATOM      1  O   UNL     1       2.842   6.137  20.404  0.00  0.00    +0.000 OA
ATOM      2  C   UNL     1       2.793   6.825  19.380  0.00  0.00    +0.000 C 
ATOM      3  N   UNL     1       1.924   7.943  19.349  0.00  0.00    +0.000 N 
ATOM      4  C   UNL     1       1.884   8.934  18.265  0.00  0.00    +0.000 C 
ATOM      5  C   UNL     1       0.556   9.681  18.168  0.00  0.00    +0.000 C 
ATOM      6  N   UNL     1       0.134  10.267  19.470  0.00  0.00    +0.000 NA
ATOM      7  C   UNL     1       0.032   9.170  20.488  0.00  0.00    +0.000 C 
ATOM      8  C   UNL     1       1.350   8.385  20.635  0.00  0.00    +0.000 C 
ENDROOT
BRANCH   2   9
ATOM      9  C   UNL     1       3.564   6.451  18.187  0.00  0.00    +0.000 A 
ATOM     10  S   UNL     1       4.728   7.561  17.544  0.00  0.00    +0.000 S 
ATOM     11  C   UNL     1       5.081   6.560  16.219  0.00  0.00    +0.000 A 
ATOM     12  C   UNL     1       4.515   5.320  16.371  0.00  0.00    +0.000 A 
ATOM     13  C   UNL     1       3.678   5.216  17.540  0.00  0.00    +0.000 A 
BRANCH  13  14
ATOM     14  C   UNL     1       3.040   3.961  17.966  0.00  0.00    +0.000 A 
ATOM     15  C   UNL     1       1.636   3.913  18.052  0.00  0.00    +0.000 A 
ATOM     16  C   UNL     1       0.974   2.759  18.481  0.00  0.00    +0.000 A 
ATOM     17  C   UNL     1       1.708   1.626  18.815  0.00  0.00    +0.000 A 
ATOM     18  C   UNL     1       3.099   1.655  18.731  0.00  0.00    +0.000 A 
ATOM     19  C   UNL     1       3.763   2.818  18.325  0.00  0.00    +0.000 A 
ENDBRANCH  13  14
ENDBRANCH   2   9
BRANCH   6  20
ATOM     20  S   UNL     1       0.947  11.661  20.029  0.00  0.00    +0.000 S 
ATOM     21  O   UNL     1       1.602  11.323  21.273  0.00  0.00    +0.000 OA
ATOM     22  O   UNL     1       1.695  12.223  18.925  0.00  0.00    +0.000 OA
BRANCH  20  23
ATOM     23  C   UNL     1      -0.381  12.785  20.401  0.00  0.00    +0.000 A 
ATOM     24  C   UNL     1      -1.701  12.347  20.285  0.00  0.00    +0.000 A 
ATOM     25  C   UNL     1      -2.739  13.257  20.490  0.00  0.00    +0.000 A 
ATOM     26  C   UNL     1      -2.454  14.586  20.815  0.00  0.00    +0.000 A 
ATOM     27  C   UNL     1      -1.131  15.013  20.946  0.00  0.00    +0.000 A 
ATOM     28  C   UNL     1      -0.088  14.110  20.742  0.00  0.00    +0.000 A 
ENDBRANCH  20  23
ENDBRANCH   6  20
TORSDOF 4
ENDMDL
