MODEL 1
REMARK VINA RESULT:      -8.0      0.000      0.000
REMARK  Name = 
REMARK  10 active torsions:
REMARK  status: ('A' for Active; 'I' for Inactive)
REMARK    1  A    between atoms: C_1  and  O_2
REMARK    2  A    between atoms: O_2  and  C_3
REMARK    3  A    between atoms: C_7  and  C_8
REMARK    4  A    between atoms: C_8  and  N_9
REMARK    5  A    between atoms: C_10  and  C_12
REMARK    6  A    between atoms: C_16  and  C_17
REMARK    7  A    between atoms: N_19  and  C_20
REMARK    8  A    between atoms: C_20  and  C_21
REMARK    9  A    between atoms: C_25  and  O_26
REMARK   10  A    between atoms: O_26  and  C_27
REMARK                            x       y       z     vdW  Elec       q    Type
REMARK                         _______ _______ _______ _____ _____    ______ ____
ROOT
ATOM      1  C   UNL     1       0.834   9.589  20.529  0.00  0.00    +0.000 A 
ATOM      2  C   UNL     1       0.947  10.390  19.384  0.00  0.00    +0.000 A 
ATOM      3  C   UNL     1       1.564   9.893  18.240  0.00  0.00    +0.000 A 
ATOM      4  C   UNL     1       2.074   8.594  18.238  0.00  0.00    +0.000 A 
ATOM      5  C   UNL     1       1.977   7.783  19.377  0.00  0.00    +0.000 A 
ATOM      6  C   UNL     1       1.375   8.293  20.537  0.00  0.00    +0.000 A 
ENDROOT
BRANCH   1   8
ATOM      7  N   UNL     1      -0.208  11.436  21.711  0.00  0.00    +0.000 N 
ATOM      8  C   UNL     1       0.155  10.106  21.753  0.00  0.00    +0.000 C 
ATOM      9  O   UNL     1      -0.073   9.360  22.696  0.00  0.00    +0.000 OA
ATOM     10  H   UNL     1      -0.226  11.915  20.822  0.00  0.00    +0.000 HD
BRANCH   7  11
ATOM     11  C   UNL     1      -0.903  12.075  22.807  0.00  0.00    +0.000 C 
BRANCH  11  16
ATOM     12  C   UNL     1      -4.647  12.791  23.097  0.00  0.00    +0.000 A 
ATOM     13  C   UNL     1      -4.986  12.979  21.756  0.00  0.00    +0.000 A 
ATOM     14  C   UNL     1      -4.019  12.863  20.758  0.00  0.00    +0.000 A 
ATOM     15  C   UNL     1      -2.701  12.560  21.099  0.00  0.00    +0.000 A 
ATOM     16  C   UNL     1      -2.338  12.370  22.442  0.00  0.00    +0.000 A 
ATOM     17  C   UNL     1      -3.325  12.489  23.436  0.00  0.00    +0.000 A 
BRANCH  12  19
ATOM     18  C   UNL     1      -6.989  12.615  23.481  0.00  0.00    +0.000 C 
ATOM     19  O   UNL     1      -5.692  12.929  23.971  0.00  0.00    +0.000 OA
ENDBRANCH  12  19
ENDBRANCH  11  16
ENDBRANCH   7  11
ENDBRANCH   1   8
BRANCH   5  20
ATOM     20  C   UNL     1       2.541   6.403  19.285  0.00  0.00    +0.000 C 
ATOM     21  O   UNL     1       2.783   5.780  20.312  0.00  0.00    +0.000 OA
ATOM     22  N   UNL     1       2.808   5.917  18.024  0.00  0.00    +0.000 N 
ATOM     23  H   UNL     1       2.687   6.504  17.214  0.00  0.00    +0.000 HD
BRANCH  22  24
ATOM     24  C   UNL     1       3.432   4.624  17.825  0.00  0.00    +0.000 C 
BRANCH  24  25
ATOM     25  C   UNL     1       4.659   4.739  16.956  0.00  0.00    +0.000 A 
ATOM     26  C   UNL     1       4.901   3.809  15.935  0.00  0.00    +0.000 A 
ATOM     27  C   UNL     1       6.046   3.911  15.144  0.00  0.00    +0.000 A 
ATOM     28  C   UNL     1       6.961   4.937  15.374  0.00  0.00    +0.000 A 
ATOM     29  C   UNL     1       6.739   5.873  16.388  0.00  0.00    +0.000 A 
ATOM     30  C   UNL     1       5.590   5.769  17.175  0.00  0.00    +0.000 A 
BRANCH  29  31
ATOM     31  O   UNL     1       7.712   6.828  16.510  0.00  0.00    +0.000 OA
ATOM     32  C   UNL     1       7.607   7.708  17.621  0.00  0.00    +0.000 C 
ENDBRANCH  29  31
ENDBRANCH  24  25
ENDBRANCH  22  24
ENDBRANCH   5  20
TORSDOF 8
ENDMDL
MODEL 2
REMARK VINA RESULT:      -7.8      1.556     11.239
REMARK  Name = 
REMARK  10 active torsions:
REMARK  status: ('A' for Active; 'I' for Inactive)
REMARK    1  A    between atoms: C_1  and  O_2
REMARK    2  A    between atoms: O_2  and  C_3
REMARK    3  A    between atoms: C_7  and  C_8
REMARK    4  A    between atoms: C_8  and  N_9
REMARK    5  A    between atoms: C_10  and  C_12
REMARK    6  A    between atoms: C_16  and  C_17
REMARK    7  A    between atoms: N_19  and  C_20
REMARK    8  A    between atoms: C_20  and  C_21
REMARK    9  A    between atoms: C_25  and  O_26
REMARK   10  A    between atoms: O_26  and  C_27
REMARK                            x       y       z     vdW  Elec       q    Type
REMARK                         _______ _______ _______ _____ _____    ______ ____
ROOT
ATOM      1  C   UNL     1       1.927   7.865  19.061  0.00  0.00    +0.000 A 
ATOM      2  C   UNL     1       1.836   8.747  17.975  0.00  0.00    +0.000 A 
ATOM      3  C   UNL     1       1.327  10.030  18.157  0.00  0.00    +0.000 A 
ATOM      4  C   UNL     1       0.904  10.434  19.424  0.00  0.00    +0.000 A 
ATOM      5  C   UNL     1       0.980   9.560  20.518  0.00  0.00    +0.000 A 
ATOM      6  C   UNL     1       1.471   8.260  20.329  0.00  0.00    +0.000 A 
ENDROOT
BRANCH   1   8
ATOM      7  N   UNL     1       3.453   6.126  19.795  0.00  0.00    +0.000 N 
ATOM      8  C   UNL     1       2.490   6.495  18.880  0.00  0.00    +0.000 C 
ATOM      9  O   UNL     1       2.076   5.769  17.986  0.00  0.00    +0.000 OA
ATOM     10  H   UNL     1       3.557   6.661  20.645  0.00  0.00    +0.000 HD
BRANCH   7  11
ATOM     11  C   UNL     1       4.072   4.819  19.771  0.00  0.00    +0.000 C 
BRANCH  11  16
ATOM     12  C   UNL     1       6.215   4.276  16.652  0.00  0.00    +0.000 A 
ATOM     13  C   UNL     1       7.434   4.811  17.072  0.00  0.00    +0.000 A 
ATOM     14  C   UNL     1       7.574   5.333  18.357  0.00  0.00    +0.000 A 
ATOM     15  C   UNL     1       6.488   5.325  19.233  0.00  0.00    +0.000 A 
ATOM     16  C   UNL     1       5.252   4.794  18.831  0.00  0.00    +0.000 A 
ATOM     17  C   UNL     1       5.128   4.270  17.531  0.00  0.00    +0.000 A 
BRANCH  12  19
ATOM     18  C   UNL     1       6.806   4.619  14.373  0.00  0.00    +0.000 C 
ATOM     19  O   UNL     1       6.217   3.795  15.370  0.00  0.00    +0.000 OA
ENDBRANCH  12  19
ENDBRANCH  11  16
ENDBRANCH   7  11
ENDBRANCH   1   8
BRANCH   5  20
ATOM     20  C   UNL     1       0.513  10.076  21.840  0.00  0.00    +0.000 C 
ATOM     21  O   UNL     1       0.990   9.616  22.870  0.00  0.00    +0.000 OA
ATOM     22  N   UNL     1      -0.483  11.027  21.825  0.00  0.00    +0.000 N 
ATOM     23  H   UNL     1      -0.916  11.303  20.957  0.00  0.00    +0.000 HD
BRANCH  22  24
ATOM     24  C   UNL     1      -1.066  11.534  23.051  0.00  0.00    +0.000 C 
BRANCH  24  25
ATOM     25  C   UNL     1      -2.444  12.099  22.809  0.00  0.00    +0.000 A 
ATOM     26  C   UNL     1      -3.318  12.334  23.878  0.00  0.00    +0.000 A 
ATOM     27  C   UNL     1      -4.597  12.843  23.645  0.00  0.00    +0.000 A 
ATOM     28  C   UNL     1      -5.013  13.110  22.342  0.00  0.00    +0.000 A 
ATOM     29  C   UNL     1      -4.156  12.881  21.262  0.00  0.00    +0.000 A 
ATOM     30  C   UNL     1      -2.876  12.376  21.500  0.00  0.00    +0.000 A 
BRANCH  29  31
ATOM     31  O   UNL     1      -4.684  13.184  20.037  0.00  0.00    +0.000 OA
ATOM     32  C   UNL     1      -5.610  14.262  19.988  0.00  0.00    +0.000 C 
ENDBRANCH  29  31
ENDBRANCH  24  25
ENDBRANCH  22  24
ENDBRANCH   5  20
TORSDOF 8
ENDMDL
MODEL 3
REMARK VINA RESULT:      -7.8      1.124     11.541
REMARK  Name = 
REMARK  10 active torsions:
REMARK  status: ('A' for Active; 'I' for Inactive)
REMARK    1  A    between atoms: C_1  and  O_2
REMARK    2  A    between atoms: O_2  and  C_3
REMARK    3  A    between atoms: C_7  and  C_8
REMARK    4  A    between atoms: C_8  and  N_9
REMARK    5  A    between atoms: C_10  and  C_12
REMARK    6  A    between atoms: C_16  and  C_17
REMARK    7  A    between atoms: N_19  and  C_20
REMARK    8  A    between atoms: C_20  and  C_21
REMARK    9  A    between atoms: C_25  and  O_26
REMARK   10  A    between atoms: O_26  and  C_27
REMARK                            x       y       z     vdW  Elec       q    Type
REMARK                         _______ _______ _______ _____ _____    ______ ____
ROOT
ATOM      1  C   UNL     1       1.732   7.750  19.857  0.00  0.00    +0.000 A 
ATOM      2  C   UNL     1       1.860   8.486  18.671  0.00  0.00    +0.000 A 
ATOM      3  C   UNL     1       1.444   9.814  18.623  0.00  0.00    +0.000 A 
ATOM      4  C   UNL     1       0.894  10.408  19.759  0.00  0.00    +0.000 A 
ATOM      5  C   UNL     1       0.750   9.683  20.950  0.00  0.00    +0.000 A 
ATOM      6  C   UNL     1       1.149   8.339  20.992  0.00  0.00    +0.000 A 
ENDROOT
BRANCH   1   8
ATOM      7  N   UNL     1       2.851   5.872  18.803  0.00  0.00    +0.000 N 
ATOM      8  C   UNL     1       2.195   6.333  19.925  0.00  0.00    +0.000 C 
ATOM      9  O   UNL     1       2.013   5.671  20.938  0.00  0.00    +0.000 OA
ATOM     10  H   UNL     1       3.190   6.534  18.122  0.00  0.00    +0.000 HD
BRANCH   7  11
ATOM     11  C   UNL     1       3.387   4.530  18.728  0.00  0.00    +0.000 C 
BRANCH  11  16
ATOM     12  C   UNL     1       6.097   4.170  16.055  0.00  0.00    +0.000 A 
ATOM     13  C   UNL     1       7.228   4.571  16.768  0.00  0.00    +0.000 A 
ATOM     14  C   UNL     1       7.125   4.943  18.108  0.00  0.00    +0.000 A 
ATOM     15  C   UNL     1       5.884   4.919  18.743  0.00  0.00    +0.000 A 
ATOM     16  C   UNL     1       4.733   4.522  18.044  0.00  0.00    +0.000 A 
ATOM     17  C   UNL     1       4.854   4.148  16.693  0.00  0.00    +0.000 A 
BRANCH  12  19
ATOM     18  C   UNL     1       7.002   4.792  13.944  0.00  0.00    +0.000 C 
ATOM     19  O   UNL     1       6.339   3.828  14.751  0.00  0.00    +0.000 OA
ENDBRANCH  12  19
ENDBRANCH  11  16
ENDBRANCH   7  11
ENDBRANCH   1   8
BRANCH   5  20
ATOM     20  C   UNL     1       0.160  10.400  22.120  0.00  0.00    +0.000 C 
ATOM     21  O   UNL     1       0.296   9.933  23.244  0.00  0.00    +0.000 OA
ATOM     22  N   UNL     1      -0.559  11.544  21.857  0.00  0.00    +0.000 N 
ATOM     23  H   UNL     1      -0.729  11.835  20.907  0.00  0.00    +0.000 HD
BRANCH  22  24
ATOM     24  C   UNL     1      -1.243  12.270  22.909  0.00  0.00    +0.000 C 
BRANCH  24  25
ATOM     25  C   UNL     1      -2.682  12.537  22.543  0.00  0.00    +0.000 A 
ATOM     26  C   UNL     1      -3.065  12.668  21.201  0.00  0.00    +0.000 A 
ATOM     27  C   UNL     1      -4.395  12.931  20.869  0.00  0.00    +0.000 A 
ATOM     28  C   UNL     1      -5.348  13.074  21.877  0.00  0.00    +0.000 A 
ATOM     29  C   UNL     1      -4.985  12.950  23.220  0.00  0.00    +0.000 A 
ATOM     30  C   UNL     1      -3.654  12.683  23.548  0.00  0.00    +0.000 A 
BRANCH  29  31
ATOM     31  O   UNL     1      -6.013  13.112  24.109  0.00  0.00    +0.000 OA
ATOM     32  C   UNL     1      -7.234  12.450  23.804  0.00  0.00    +0.000 C 
ENDBRANCH  29  31
ENDBRANCH  24  25
ENDBRANCH  22  24
ENDBRANCH   5  20
TORSDOF 8
ENDMDL
MODEL 4
REMARK VINA RESULT:      -7.8      1.590     11.503
REMARK  Name = 
REMARK  10 active torsions:
REMARK  status: ('A' for Active; 'I' for Inactive)
REMARK    1  A    between atoms: C_1  and  O_2
REMARK    2  A    between atoms: O_2  and  C_3
REMARK    3  A    between atoms: C_7  and  C_8
REMARK    4  A    between atoms: C_8  and  N_9
REMARK    5  A    between atoms: C_10  and  C_12
REMARK    6  A    between atoms: C_16  and  C_17
REMARK    7  A    between atoms: N_19  and  C_20
REMARK    8  A    between atoms: C_20  and  C_21
REMARK    9  A    between atoms: C_25  and  O_26
REMARK   10  A    between atoms: O_26  and  C_27
REMARK                            x       y       z     vdW  Elec       q    Type
REMARK                         _______ _______ _______ _____ _____    ______ ____
ROOT
ATOM      1  C   UNL     1       2.327   7.303  19.072  0.00  0.00    +0.000 A 
ATOM      2  C   UNL     1       2.071   8.099  17.947  0.00  0.00    +0.000 A 
ATOM      3  C   UNL     1       1.425   9.324  18.089  0.00  0.00    +0.000 A 
ATOM      4  C   UNL     1       1.030   9.756  19.355  0.00  0.00    +0.000 A 
ATOM      5  C   UNL     1       1.271   8.968  20.489  0.00  0.00    +0.000 A 
ATOM      6  C   UNL     1       1.902   7.723  20.343  0.00  0.00    +0.000 A 
ENDROOT
BRANCH   1   8
ATOM      7  N   UNL     1       3.062   5.471  17.659  0.00  0.00    +0.000 N 
ATOM      8  C   UNL     1       3.038   5.998  18.933  0.00  0.00    +0.000 C 
ATOM      9  O   UNL     1       3.575   5.481  19.903  0.00  0.00    +0.000 OA
ATOM     10  H   UNL     1       2.832   6.064  16.875  0.00  0.00    +0.000 HD
BRANCH   7  11
ATOM     11  C   UNL     1       3.739   4.229  17.357  0.00  0.00    +0.000 C 
BRANCH  11  16
ATOM     12  C   UNL     1       6.205   4.120  14.437  0.00  0.00    +0.000 A 
ATOM     13  C   UNL     1       7.204   4.977  14.901  0.00  0.00    +0.000 A 
ATOM     14  C   UNL     1       7.094   5.579  16.154  0.00  0.00    +0.000 A 
ATOM     15  C   UNL     1       5.978   5.328  16.951  0.00  0.00    +0.000 A 
ATOM     16  C   UNL     1       4.961   4.471  16.503  0.00  0.00    +0.000 A 
ATOM     17  C   UNL     1       5.087   3.870  15.238  0.00  0.00    +0.000 A 
BRANCH  12  19
ATOM     18  C   UNL     1       5.318   3.448  12.334  0.00  0.00    +0.000 C 
ATOM     19  O   UNL     1       6.440   3.594  13.195  0.00  0.00    +0.000 OA
ENDBRANCH  12  19
ENDBRANCH  11  16
ENDBRANCH   7  11
ENDBRANCH   1   8
BRANCH   5  20
ATOM     20  C   UNL     1       0.823   9.510  21.807  0.00  0.00    +0.000 C 
ATOM     21  O   UNL     1       1.586   9.475  22.765  0.00  0.00    +0.000 OA
ATOM     22  N   UNL     1      -0.468   9.985  21.883  0.00  0.00    +0.000 N 
ATOM     23  H   UNL     1      -1.091   9.902  21.096  0.00  0.00    +0.000 HD
BRANCH  22  24
ATOM     24  C   UNL     1      -1.030  10.456  23.133  0.00  0.00    +0.000 C 
BRANCH  24  25
ATOM     25  C   UNL     1      -1.584  11.852  22.991  0.00  0.00    +0.000 A 
ATOM     26  C   UNL     1      -0.797  12.882  22.459  0.00  0.00    +0.000 A 
ATOM     27  C   UNL     1      -1.311  14.175  22.344  0.00  0.00    +0.000 A 
ATOM     28  C   UNL     1      -2.610  14.448  22.771  0.00  0.00    +0.000 A 
ATOM     29  C   UNL     1      -3.409  13.435  23.306  0.00  0.00    +0.000 A 
ATOM     30  C   UNL     1      -2.893  12.142  23.416  0.00  0.00    +0.000 A 
BRANCH  29  31
ATOM     31  O   UNL     1      -4.662  13.833  23.686  0.00  0.00    +0.000 OA
ATOM     32  C   UNL     1      -5.178  15.002  23.063  0.00  0.00    +0.000 C 
ENDBRANCH  29  31
ENDBRANCH  24  25
ENDBRANCH  22  24
ENDBRANCH   5  20
TORSDOF 8
ENDMDL
MODEL 5
REMARK VINA RESULT:      -7.8      1.593     11.352
REMARK  Name = 
REMARK  10 active torsions:
REMARK  status: ('A' for Active; 'I' for Inactive)
REMARK    1  A    between atoms: C_1  and  O_2
REMARK    2  A    between atoms: O_2  and  C_3
REMARK    3  A    between atoms: C_7  and  C_8
REMARK    4  A    between atoms: C_8  and  N_9
REMARK    5  A    between atoms: C_10  and  C_12
REMARK    6  A    between atoms: C_16  and  C_17
REMARK    7  A    between atoms: N_19  and  C_20
REMARK    8  A    between atoms: C_20  and  C_21
REMARK    9  A    between atoms: C_25  and  O_26
REMARK   10  A    between atoms: O_26  and  C_27
REMARK                            x       y       z     vdW  Elec       q    Type
REMARK                         _______ _______ _______ _____ _____    ______ ____
ROOT
ATOM      1  C   UNL     1       1.992   7.746  19.011  0.00  0.00    +0.000 A 
ATOM      2  C   UNL     1       1.893   8.658  17.951  0.00  0.00    +0.000 A 
ATOM      3  C   UNL     1       1.377   9.932  18.170  0.00  0.00    +0.000 A 
ATOM      4  C   UNL     1       0.955  10.297  19.449  0.00  0.00    +0.000 A 
ATOM      5  C   UNL     1       1.039   9.394  20.517  0.00  0.00    +0.000 A 
ATOM      6  C   UNL     1       1.537   8.102  20.291  0.00  0.00    +0.000 A 
ENDROOT
BRANCH   1   8
ATOM      7  N   UNL     1       3.490   5.974  19.724  0.00  0.00    +0.000 N 
ATOM      8  C   UNL     1       2.563   6.385  18.790  0.00  0.00    +0.000 C 
ATOM      9  O   UNL     1       2.184   5.701  17.849  0.00  0.00    +0.000 OA
ATOM     10  H   UNL     1       3.561   6.470  20.600  0.00  0.00    +0.000 HD
BRANCH   7  11
ATOM     11  C   UNL     1       4.110   4.668  19.665  0.00  0.00    +0.000 C 
BRANCH  11  16
ATOM     12  C   UNL     1       6.243   4.076  16.547  0.00  0.00    +0.000 A 
ATOM     13  C   UNL     1       7.427   4.718  16.910  0.00  0.00    +0.000 A 
ATOM     14  C   UNL     1       7.548   5.329  18.158  0.00  0.00    +0.000 A 
ATOM     15  C   UNL     1       6.478   5.303  19.052  0.00  0.00    +0.000 A 
ATOM     16  C   UNL     1       5.276   4.665  18.706  0.00  0.00    +0.000 A 
ATOM     17  C   UNL     1       5.171   4.051  17.444  0.00  0.00    +0.000 A 
BRANCH  12  19
ATOM     18  C   UNL     1       5.925   4.362  14.206  0.00  0.00    +0.000 C 
ATOM     19  O   UNL     1       6.260   3.515  15.298  0.00  0.00    +0.000 OA
ENDBRANCH  12  19
ENDBRANCH  11  16
ENDBRANCH   7  11
ENDBRANCH   1   8
BRANCH   5  20
ATOM     20  C   UNL     1       0.573   9.869  21.855  0.00  0.00    +0.000 C 
ATOM     21  O   UNL     1       1.264   9.661  22.844  0.00  0.00    +0.000 OA
ATOM     22  N   UNL     1      -0.658  10.487  21.906  0.00  0.00    +0.000 N 
ATOM     23  H   UNL     1      -1.235  10.546  21.083  0.00  0.00    +0.000 HD
BRANCH  22  24
ATOM     24  C   UNL     1      -1.241  10.912  23.163  0.00  0.00    +0.000 C 
BRANCH  24  25
ATOM     25  C   UNL     1      -1.873  12.276  23.039  0.00  0.00    +0.000 A 
ATOM     26  C   UNL     1      -1.107  13.437  23.210  0.00  0.00    +0.000 A 
ATOM     27  C   UNL     1      -1.701  14.695  23.108  0.00  0.00    +0.000 A 
ATOM     28  C   UNL     1      -3.066  14.801  22.845  0.00  0.00    +0.000 A 
ATOM     29  C   UNL     1      -3.847  13.656  22.674  0.00  0.00    +0.000 A 
ATOM     30  C   UNL     1      -3.248  12.398  22.772  0.00  0.00    +0.000 A 
BRANCH  29  31
ATOM     31  O   UNL     1      -5.171  13.896  22.421  0.00  0.00    +0.000 OA
ATOM     32  C   UNL     1      -5.978  14.264  23.532  0.00  0.00    +0.000 C 
ENDBRANCH  29  31
ENDBRANCH  24  25
ENDBRANCH  22  24
ENDBRANCH   5  20
TORSDOF 8
ENDMDL
MODEL 6
REMARK VINA RESULT:      -7.7      1.012     11.255
REMARK  Name = 
REMARK  10 active torsions:
REMARK  status: ('A' for Active; 'I' for Inactive)
REMARK    1  A    between atoms: C_1  and  O_2
REMARK    2  A    between atoms: O_2  and  C_3
REMARK    3  A    between atoms: C_7  and  C_8
REMARK    4  A    between atoms: C_8  and  N_9
REMARK    5  A    between atoms: C_10  and  C_12
REMARK    6  A    between atoms: C_16  and  C_17
REMARK    7  A    between atoms: N_19  and  C_20
REMARK    8  A    between atoms: C_20  and  C_21
REMARK    9  A    between atoms: C_25  and  O_26
REMARK   10  A    between atoms: O_26  and  C_27
REMARK                            x       y       z     vdW  Elec       q    Type
REMARK                         _______ _______ _______ _____ _____    ______ ____
ROOT
ATOM      1  C   UNL     1       2.096   7.544  19.234  0.00  0.00    +0.000 A 
ATOM      2  C   UNL     1       1.960   8.408  18.139  0.00  0.00    +0.000 A 
ATOM      3  C   UNL     1       1.372   9.659  18.303  0.00  0.00    +0.000 A 
ATOM      4  C   UNL     1       0.916  10.049  19.563  0.00  0.00    +0.000 A 
ATOM      5  C   UNL     1       1.037   9.193  20.666  0.00  0.00    +0.000 A 
ATOM      6  C   UNL     1       1.608   7.923  20.495  0.00  0.00    +0.000 A 
ENDROOT
BRANCH   1   8
ATOM      7  N   UNL     1       2.731   5.697  17.791  0.00  0.00    +0.000 N 
ATOM      8  C   UNL     1       2.744   6.209  19.072  0.00  0.00    +0.000 C 
ATOM      9  O   UNL     1       3.267   5.655  20.030  0.00  0.00    +0.000 OA
ATOM     10  H   UNL     1       2.520   6.310  17.017  0.00  0.00    +0.000 HD
BRANCH   7  11
ATOM     11  C   UNL     1       3.346   4.429  17.467  0.00  0.00    +0.000 C 
BRANCH  11  16
ATOM     12  C   UNL     1       6.915   5.642  16.826  0.00  0.00    +0.000 A 
ATOM     13  C   UNL     1       7.225   4.948  15.656  0.00  0.00    +0.000 A 
ATOM     14  C   UNL     1       6.288   4.101  15.066  0.00  0.00    +0.000 A 
ATOM     15  C   UNL     1       5.030   3.943  15.647  0.00  0.00    +0.000 A 
ATOM     16  C   UNL     1       4.698   4.630  16.825  0.00  0.00    +0.000 A 
ATOM     17  C   UNL     1       5.654   5.481  17.408  0.00  0.00    +0.000 A 
BRANCH  12  19
ATOM     18  C   UNL     1       7.630   7.823  17.454  0.00  0.00    +0.000 C 
ATOM     19  O   UNL     1       7.923   6.441  17.297  0.00  0.00    +0.000 OA
ENDBRANCH  12  19
ENDBRANCH  11  16
ENDBRANCH   7  11
ENDBRANCH   1   8
BRANCH   5  20
ATOM     20  C   UNL     1       0.530   9.693  21.979  0.00  0.00    +0.000 C 
ATOM     21  O   UNL     1       1.150   9.435  23.004  0.00  0.00    +0.000 OA
ATOM     22  N   UNL     1      -0.658  10.391  21.968  0.00  0.00    +0.000 N 
ATOM     23  H   UNL     1      -1.184  10.493  21.114  0.00  0.00    +0.000 HD
BRANCH  22  24
ATOM     24  C   UNL     1      -1.280  10.849  23.194  0.00  0.00    +0.000 C 
BRANCH  24  25
ATOM     25  C   UNL     1      -1.817  12.251  23.044  0.00  0.00    +0.000 A 
ATOM     26  C   UNL     1      -0.969  13.306  22.684  0.00  0.00    +0.000 A 
ATOM     27  C   UNL     1      -1.469  14.603  22.561  0.00  0.00    +0.000 A 
ATOM     28  C   UNL     1      -2.818  14.855  22.807  0.00  0.00    +0.000 A 
ATOM     29  C   UNL     1      -3.680  13.817  23.170  0.00  0.00    +0.000 A 
ATOM     30  C   UNL     1      -3.176  12.519  23.287  0.00  0.00    +0.000 A 
BRANCH  29  31
ATOM     31  O   UNL     1      -4.977  14.195  23.383  0.00  0.00    +0.000 OA
ATOM     32  C   UNL     1      -5.887  13.994  22.309  0.00  0.00    +0.000 C 
ENDBRANCH  29  31
ENDBRANCH  24  25
ENDBRANCH  22  24
ENDBRANCH   5  20
TORSDOF 8
ENDMDL
MODEL 7
REMARK VINA RESULT:      -7.7      2.831      4.480
REMARK  Name = 
REMARK  10 active torsions:
REMARK  status: ('A' for Active; 'I' for Inactive)
REMARK    1  A    between atoms: C_1  and  O_2
REMARK    2  A    between atoms: O_2  and  C_3
REMARK    3  A    between atoms: C_7  and  C_8
REMARK    4  A    between atoms: C_8  and  N_9
REMARK    5  A    between atoms: C_10  and  C_12
REMARK    6  A    between atoms: C_16  and  C_17
REMARK    7  A    between atoms: N_19  and  C_20
REMARK    8  A    between atoms: C_20  and  C_21
REMARK    9  A    between atoms: C_25  and  O_26
REMARK   10  A    between atoms: O_26  and  C_27
REMARK                            x       y       z     vdW  Elec       q    Type
REMARK                         _______ _______ _______ _____ _____    ______ ____
ROOT
ATOM      1  C   UNL     1       2.504   7.384  18.691  0.00  0.00    +0.000 A 
ATOM      2  C   UNL     1       1.799   6.729  19.710  0.00  0.00    +0.000 A 
ATOM      3  C   UNL     1       2.237   5.494  20.181  0.00  0.00    +0.000 A 
ATOM      4  C   UNL     1       3.379   4.909  19.632  0.00  0.00    +0.000 A 
ATOM      5  C   UNL     1       4.090   5.548  18.607  0.00  0.00    +0.000 A 
ATOM      6  C   UNL     1       3.635   6.782  18.117  0.00  0.00    +0.000 A 
ENDROOT
BRANCH   1   8
ATOM      7  N   UNL     1       1.227   9.418  19.047  0.00  0.00    +0.000 N 
ATOM      8  C   UNL     1       2.054   8.718  18.194  0.00  0.00    +0.000 C 
ATOM      9  O   UNL     1       2.442   9.137  17.112  0.00  0.00    +0.000 OA
ATOM     10  H   UNL     1       1.160   9.134  20.013  0.00  0.00    +0.000 HD
BRANCH   7  11
ATOM     11  C   UNL     1       0.733  10.738  18.722  0.00  0.00    +0.000 C 
BRANCH  11  16
ATOM     12  C   UNL     1      -2.997  11.572  18.822  0.00  0.00    +0.000 A 
ATOM     13  C   UNL     1      -3.492  10.687  17.862  0.00  0.00    +0.000 A 
ATOM     14  C   UNL     1      -2.634   9.815  17.193  0.00  0.00    +0.000 A 
ATOM     15  C   UNL     1      -1.270   9.826  17.480  0.00  0.00    +0.000 A 
ATOM     16  C   UNL     1      -0.750  10.709  18.440  0.00  0.00    +0.000 A 
ATOM     17  C   UNL     1      -1.629  11.581  19.107  0.00  0.00    +0.000 A 
BRANCH  12  19
ATOM     18  C   UNL     1      -3.716  12.767  20.749  0.00  0.00    +0.000 C 
ATOM     19  O   UNL     1      -3.947  12.368  19.404  0.00  0.00    +0.000 OA
ENDBRANCH  12  19
ENDBRANCH  11  16
ENDBRANCH   7  11
ENDBRANCH   1   8
BRANCH   5  20
ATOM     20  C   UNL     1       5.305   4.856  18.083  0.00  0.00    +0.000 C 
ATOM     21  O   UNL     1       5.751   3.884  18.679  0.00  0.00    +0.000 OA
ATOM     22  N   UNL     1       5.897   5.393  16.960  0.00  0.00    +0.000 N 
ATOM     23  H   UNL     1       5.554   6.253  16.562  0.00  0.00    +0.000 HD
BRANCH  22  24
ATOM     24  C   UNL     1       7.127   4.850  16.417  0.00  0.00    +0.000 C 
BRANCH  24  25
ATOM     25  C   UNL     1       7.032   4.673  14.922  0.00  0.00    +0.000 A 
ATOM     26  C   UNL     1       7.882   5.383  14.064  0.00  0.00    +0.000 A 
ATOM     27  C   UNL     1       7.780   5.226  12.681  0.00  0.00    +0.000 A 
ATOM     28  C   UNL     1       6.821   4.367  12.147  0.00  0.00    +0.000 A 
ATOM     29  C   UNL     1       5.962   3.652  12.986  0.00  0.00    +0.000 A 
ATOM     30  C   UNL     1       6.071   3.809  14.370  0.00  0.00    +0.000 A 
BRANCH  29  31
ATOM     31  O   UNL     1       5.068   2.845  12.338  0.00  0.00    +0.000 OA
ATOM     32  C   UNL     1       5.606   1.900  11.422  0.00  0.00    +0.000 C 
ENDBRANCH  29  31
ENDBRANCH  24  25
ENDBRANCH  22  24
ENDBRANCH   5  20
TORSDOF 8
ENDMDL
MODEL 8
REMARK VINA RESULT:      -7.6      1.263     11.257
REMARK  Name = 
REMARK  10 active torsions:
REMARK  status: ('A' for Active; 'I' for Inactive)
REMARK    1  A    between atoms: C_1  and  O_2
REMARK    2  A    between atoms: O_2  and  C_3
REMARK    3  A    between atoms: C_7  and  C_8
REMARK    4  A    between atoms: C_8  and  N_9
REMARK    5  A    between atoms: C_10  and  C_12
REMARK    6  A    between atoms: C_16  and  C_17
REMARK    7  A    between atoms: N_19  and  C_20
REMARK    8  A    between atoms: C_20  and  C_21
REMARK    9  A    between atoms: C_25  and  O_26
REMARK   10  A    between atoms: O_26  and  C_27
REMARK                            x       y       z     vdW  Elec       q    Type
REMARK                         _______ _______ _______ _____ _____    ______ ____
ROOT
ATOM      1  C   UNL     1       1.947   7.976  18.993  0.00  0.00    +0.000 A 
ATOM      2  C   UNL     1       1.848   8.969  18.009  0.00  0.00    +0.000 A 
ATOM      3  C   UNL     1       1.301  10.211  18.320  0.00  0.00    +0.000 A 
ATOM      4  C   UNL     1       0.847  10.462  19.616  0.00  0.00    +0.000 A 
ATOM      5  C   UNL     1       0.932   9.477  20.609  0.00  0.00    +0.000 A 
ATOM      6  C   UNL     1       1.462   8.218  20.289  0.00  0.00    +0.000 A 
ENDROOT
BRANCH   1   8
ATOM      7  N   UNL     1       3.535   6.224  19.543  0.00  0.00    +0.000 N 
ATOM      8  C   UNL     1       2.552   6.649  18.675  0.00  0.00    +0.000 C 
ATOM      9  O   UNL     1       2.152   6.002  17.716  0.00  0.00    +0.000 OA
ATOM     10  H   UNL     1       3.630   6.676  20.440  0.00  0.00    +0.000 HD
BRANCH   7  11
ATOM     11  C   UNL     1       4.194   4.945  19.386  0.00  0.00    +0.000 C 
BRANCH  11  16
ATOM     12  C   UNL     1       6.946   6.010  16.955  0.00  0.00    +0.000 A 
ATOM     13  C   UNL     1       6.923   4.950  16.047  0.00  0.00    +0.000 A 
ATOM     14  C   UNL     1       6.017   3.902  16.206  0.00  0.00    +0.000 A 
ATOM     15  C   UNL     1       5.128   3.908  17.280  0.00  0.00    +0.000 A 
ATOM     16  C   UNL     1       5.136   4.962  18.207  0.00  0.00    +0.000 A 
ATOM     17  C   UNL     1       6.055   6.013  18.032  0.00  0.00    +0.000 A 
BRANCH  12  19
ATOM     18  C   UNL     1       7.898   8.114  17.528  0.00  0.00    +0.000 C 
ATOM     19  O   UNL     1       7.880   6.973  16.681  0.00  0.00    +0.000 OA
ENDBRANCH  12  19
ENDBRANCH  11  16
ENDBRANCH   7  11
ENDBRANCH   1   8
BRANCH   5  20
ATOM     20  C   UNL     1       0.431   9.833  21.970  0.00  0.00    +0.000 C 
ATOM     21  O   UNL     1       1.032   9.430  22.959  0.00  0.00    +0.000 OA
ATOM     22  N   UNL     1      -0.731  10.571  22.038  0.00  0.00    +0.000 N 
ATOM     23  H   UNL     1      -1.245  10.794  21.201  0.00  0.00    +0.000 HD
BRANCH  22  24
ATOM     24  C   UNL     1      -1.347  10.899  23.308  0.00  0.00    +0.000 C 
BRANCH  24  25
ATOM     25  C   UNL     1      -1.985  12.266  23.268  0.00  0.00    +0.000 A 
ATOM     26  C   UNL     1      -1.237  13.393  22.902  0.00  0.00    +0.000 A 
ATOM     27  C   UNL     1      -1.828  14.657  22.881  0.00  0.00    +0.000 A 
ATOM     28  C   UNL     1      -3.168  14.803  23.237  0.00  0.00    +0.000 A 
ATOM     29  C   UNL     1      -3.931  13.692  23.607  0.00  0.00    +0.000 A 
ATOM     30  C   UNL     1      -3.336  12.429  23.622  0.00  0.00    +0.000 A 
BRANCH  29  31
ATOM     31  O   UNL     1      -5.230  13.971  23.932  0.00  0.00    +0.000 OA
ATOM     32  C   UNL     1      -6.174  12.923  23.749  0.00  0.00    +0.000 C 
ENDBRANCH  29  31
ENDBRANCH  24  25
ENDBRANCH  22  24
ENDBRANCH   5  20
TORSDOF 8
ENDMDL
MODEL 9
REMARK VINA RESULT:      -7.6      2.065     11.552
REMARK  Name = 
REMARK  10 active torsions:
REMARK  status: ('A' for Active; 'I' for Inactive)
REMARK    1  A    between atoms: C_1  and  O_2
REMARK    2  A    between atoms: O_2  and  C_3
REMARK    3  A    between atoms: C_7  and  C_8
REMARK    4  A    between atoms: C_8  and  N_9
REMARK    5  A    between atoms: C_10  and  C_12
REMARK    6  A    between atoms: C_16  and  C_17
REMARK    7  A    between atoms: N_19  and  C_20
REMARK    8  A    between atoms: C_20  and  C_21
REMARK    9  A    between atoms: C_25  and  O_26
REMARK   10  A    between atoms: O_26  and  C_27
REMARK                            x       y       z     vdW  Elec       q    Type
REMARK                         _______ _______ _______ _____ _____    ______ ____
ROOT
ATOM      1  C   UNL     1       0.341   9.813  20.590  0.00  0.00    +0.000 A 
ATOM      2  C   UNL     1       0.556   8.815  21.551  0.00  0.00    +0.000 A 
ATOM      3  C   UNL     1       0.072   8.975  22.846  0.00  0.00    +0.000 A 
ATOM      4  C   UNL     1      -0.625  10.134  23.186  0.00  0.00    +0.000 A 
ATOM      5  C   UNL     1      -0.842  11.145  22.240  0.00  0.00    +0.000 A 
ATOM      6  C   UNL     1      -0.334  10.994  20.940  0.00  0.00    +0.000 A 
ENDROOT
BRANCH   1   8
ATOM      7  N   UNL     1       1.910   8.786  19.048  0.00  0.00    +0.000 N 
ATOM      8  C   UNL     1       0.837   9.641  19.193  0.00  0.00    +0.000 C 
ATOM      9  O   UNL     1       0.281  10.213  18.265  0.00  0.00    +0.000 OA
ATOM     10  H   UNL     1       2.146   8.159  19.802  0.00  0.00    +0.000 HD
BRANCH   7  11
ATOM     11  C   UNL     1       2.484   8.492  17.753  0.00  0.00    +0.000 C 
BRANCH  11  16
ATOM     12  C   UNL     1       4.866   5.565  17.140  0.00  0.00    +0.000 A 
ATOM     13  C   UNL     1       4.152   4.516  17.721  0.00  0.00    +0.000 A 
ATOM     14  C   UNL     1       2.903   4.743  18.297  0.00  0.00    +0.000 A 
ATOM     15  C   UNL     1       2.360   6.028  18.297  0.00  0.00    +0.000 A 
ATOM     16  C   UNL     1       3.062   7.098  17.720  0.00  0.00    +0.000 A 
ATOM     17  C   UNL     1       4.320   6.852  17.142  0.00  0.00    +0.000 A 
BRANCH  12  19
ATOM     18  C   UNL     1       6.096   4.048  15.780  0.00  0.00    +0.000 C 
ATOM     19  O   UNL     1       6.075   5.204  16.608  0.00  0.00    +0.000 OA
ENDBRANCH  12  19
ENDBRANCH  11  16
ENDBRANCH   7  11
ENDBRANCH   1   8
BRANCH   5  20
ATOM     20  C   UNL     1      -1.606  12.348  22.686  0.00  0.00    +0.000 C 
ATOM     21  O   UNL     1      -1.067  13.168  23.419  0.00  0.00    +0.000 OA
ATOM     22  N   UNL     1      -2.917  12.446  22.276  0.00  0.00    +0.000 N 
ATOM     23  H   UNL     1      -3.348  11.697  21.756  0.00  0.00    +0.000 HD
BRANCH  22  24
ATOM     24  C   UNL     1      -3.772  13.529  22.719  0.00  0.00    +0.000 C 
BRANCH  24  25
ATOM     25  C   UNL     1      -5.222  13.113  22.726  0.00  0.00    +0.000 A 
ATOM     26  C   UNL     1      -5.994  13.234  23.890  0.00  0.00    +0.000 A 
ATOM     27  C   UNL     1      -7.331  12.832  23.895  0.00  0.00    +0.000 A 
ATOM     28  C   UNL     1      -7.901  12.299  22.740  0.00  0.00    +0.000 A 
ATOM     29  C   UNL     1      -7.148  12.168  21.571  0.00  0.00    +0.000 A 
ATOM     30  C   UNL     1      -5.811  12.574  21.569  0.00  0.00    +0.000 A 
BRANCH  29  31
ATOM     31  O   UNL     1      -7.824  11.631  20.509  0.00  0.00    +0.000 OA
ATOM     32  C   UNL     1      -7.050  10.920  19.551  0.00  0.00    +0.000 C 
ENDBRANCH  29  31
ENDBRANCH  24  25
ENDBRANCH  22  24
ENDBRANCH   5  20
TORSDOF 8
ENDMDL
