MODEL 1
REMARK VINA RESULT:      -8.1      0.000      0.000
REMARK  Name = 
REMARK  6 active torsions:
REMARK  status: ('A' for Active; 'I' for Inactive)
REMARK    1  A    between atoms: C_1  and  C_2
REMARK    2  A    between atoms: C_5  and  C_6
REMARK    3  A    between atoms: N_9  and  C_10
REMARK    4  A    between atoms: C_10  and  C_11
REMARK    5  A    between atoms: C_11  and  N_12
REMARK    6  A    between atoms: C_13  and  C_15
REMARK                            x       y       z     vdW  Elec       q    Type
REMARK                         _______ _______ _______ _____ _____    ______ ____
ROOT
ATOM      1  C   UNL     1       7.619   8.072  17.382  0.00  0.00    +0.000 C 
ENDROOT
BRANCH   1   2
ATOM      2  N   UNL     1       6.689   7.017  17.765  0.00  0.00    +0.000 N 
ATOM      3  C   UNL     1       5.704   6.588  16.897  0.00  0.00    +0.000 C 
ATOM      4  O   UNL     1       5.572   7.026  15.758  0.00  0.00    +0.000 OA
ATOM      5  H   UNL     1       6.624   6.775  18.744  0.00  0.00    +0.000 HD
BRANCH   3   6
ATOM      6  C   UNL     1       4.720   5.613  17.435  0.00  0.00    +0.000 A 
ATOM      7  C   UNL     1       4.542   4.418  16.730  0.00  0.00    +0.000 A 
ATOM      8  C   UNL     1       3.546   3.521  17.112  0.00  0.00    +0.000 A 
ATOM      9  C   UNL     1       2.728   3.791  18.218  0.00  0.00    +0.000 A 
ATOM     10  C   UNL     1       1.662   2.941  18.549  0.00  0.00    +0.000 A 
ATOM     11  C   UNL     1       0.868   3.197  19.665  0.00  0.00    +0.000 A 
ATOM     12  C   UNL     1       1.160   4.278  20.490  0.00  0.00    +0.000 A 
ATOM     13  C   UNL     1       2.208   5.145  20.164  0.00  0.00    +0.000 A 
ATOM     14  C   UNL     1       2.976   4.942  19.003  0.00  0.00    +0.000 A 
ATOM     15  C   UNL     1       3.970   5.855  18.594  0.00  0.00    +0.000 A 
ENDBRANCH   3   6
ENDBRANCH   1   2
BRANCH   1  16
ATOM     16  C   UNL     1       8.542   8.490  18.546  0.00  0.00    +0.000 C 
BRANCH  16  20
ATOM     17  C   UNL     1       9.695  12.589  19.030  0.00  0.00    +0.000 C 
ATOM     18  C   UNL     1       9.960  11.685  19.987  0.00  0.00    +0.000 C 
ATOM     19  C   UNL     1       9.501  10.255  19.917  0.00  0.00    +0.000 C 
ATOM     20  N   UNL     1       8.560   9.945  18.821  0.00  0.00    +0.000 NA
ATOM     21  C   UNL     1       8.917  10.682  17.595  0.00  0.00    +0.000 C 
ATOM     22  C   UNL     1       8.913  12.207  17.808  0.00  0.00    +0.000 C 
BRANCH  17  27
ATOM     23  C   UNL     1      11.818  17.958  19.377  0.00  0.00    +0.000 C 
ATOM     24  C   UNL     1      11.264  16.561  19.297  0.00  0.00    +0.000 A 
ATOM     25  C   UNL     1      11.709  15.560  20.169  0.00  0.00    +0.000 A 
ATOM     26  C   UNL     1      11.193  14.264  20.079  0.00  0.00    +0.000 A 
ATOM     27  C   UNL     1      10.229  13.952  19.116  0.00  0.00    +0.000 A 
ATOM     28  C   UNL     1       9.776  14.948  18.250  0.00  0.00    +0.000 A 
ATOM     29  C   UNL     1      10.292  16.244  18.339  0.00  0.00    +0.000 A 
ENDBRANCH  17  27
ENDBRANCH  16  20
ENDBRANCH   1  16
TORSDOF 5
ENDMDL
MODEL 2
REMARK VINA RESULT:      -8.1      1.022      1.983
REMARK  Name = 
REMARK  6 active torsions:
REMARK  status: ('A' for Active; 'I' for Inactive)
REMARK    1  A    between atoms: C_1  and  C_2
REMARK    2  A    between atoms: C_5  and  C_6
REMARK    3  A    between atoms: N_9  and  C_10
REMARK    4  A    between atoms: C_10  and  C_11
REMARK    5  A    between atoms: C_11  and  N_12
REMARK    6  A    between atoms: C_13  and  C_15
REMARK                            x       y       z     vdW  Elec       q    Type
REMARK                         _______ _______ _______ _____ _____    ______ ____
ROOT
ATOM      1  C   UNL     1       7.881   8.456  17.456  0.00  0.00    +0.000 C 
ENDROOT
BRANCH   1   2
ATOM      2  N   UNL     1       6.667   7.686  17.699  0.00  0.00    +0.000 N 
ATOM      3  C   UNL     1       6.544   6.389  17.240  0.00  0.00    +0.000 C 
ATOM      4  O   UNL     1       7.440   5.797  16.645  0.00  0.00    +0.000 OA
ATOM      5  H   UNL     1       5.840   8.186  17.994  0.00  0.00    +0.000 HD
BRANCH   3   6
ATOM      6  C   UNL     1       5.216   5.744  17.414  0.00  0.00    +0.000 A 
ATOM      7  C   UNL     1       4.103   6.579  17.542  0.00  0.00    +0.000 A 
ATOM      8  C   UNL     1       2.851   6.039  17.832  0.00  0.00    +0.000 A 
ATOM      9  C   UNL     1       2.687   4.654  17.975  0.00  0.00    +0.000 A 
ATOM     10  C   UNL     1       1.452   4.112  18.362  0.00  0.00    +0.000 A 
ATOM     11  C   UNL     1       1.284   2.733  18.476  0.00  0.00    +0.000 A 
ATOM     12  C   UNL     1       2.335   1.879  18.158  0.00  0.00    +0.000 A 
ATOM     13  C   UNL     1       3.577   2.404  17.788  0.00  0.00    +0.000 A 
ATOM     14  C   UNL     1       3.785   3.795  17.734  0.00  0.00    +0.000 A 
ATOM     15  C   UNL     1       5.052   4.353  17.466  0.00  0.00    +0.000 A 
ENDBRANCH   3   6
ENDBRANCH   1   2
BRANCH   1  16
ATOM     16  C   UNL     1       8.590   8.860  18.765  0.00  0.00    +0.000 C 
BRANCH  16  20
ATOM     17  C   UNL     1      10.063  12.875  19.034  0.00  0.00    +0.000 C 
ATOM     18  C   UNL     1       9.188  12.530  18.076  0.00  0.00    +0.000 C 
ATOM     19  C   UNL     1       8.706  11.120  17.873  0.00  0.00    +0.000 C 
ATOM     20  N   UNL     1       9.408  10.090  18.665  0.00  0.00    +0.000 NA
ATOM     21  C   UNL     1       9.729  10.589  20.015  0.00  0.00    +0.000 C 
ATOM     22  C   UNL     1      10.615  11.848  19.977  0.00  0.00    +0.000 C 
BRANCH  17  27
ATOM     23  C   UNL     1      11.553  18.412  19.799  0.00  0.00    +0.000 C 
ATOM     24  C   UNL     1      11.172  16.971  19.591  0.00  0.00    +0.000 A 
ATOM     25  C   UNL     1      10.742  16.514  18.340  0.00  0.00    +0.000 A 
ATOM     26  C   UNL     1      10.381  15.175  18.161  0.00  0.00    +0.000 A 
ATOM     27  C   UNL     1      10.444  14.277  19.232  0.00  0.00    +0.000 A 
ATOM     28  C   UNL     1      10.880  14.726  20.479  0.00  0.00    +0.000 A 
ATOM     29  C   UNL     1      11.239  16.065  20.658  0.00  0.00    +0.000 A 
ENDBRANCH  17  27
ENDBRANCH  16  20
ENDBRANCH   1  16
TORSDOF 5
ENDMDL
MODEL 3
REMARK VINA RESULT:      -8.1      1.105      1.485
REMARK  Name = 
REMARK  6 active torsions:
REMARK  status: ('A' for Active; 'I' for Inactive)
REMARK    1  A    between atoms: C_1  and  C_2
REMARK    2  A    between atoms: C_5  and  C_6
REMARK    3  A    between atoms: N_9  and  C_10
REMARK    4  A    between atoms: C_10  and  C_11
REMARK    5  A    between atoms: C_11  and  N_12
REMARK    6  A    between atoms: C_13  and  C_15
REMARK                            x       y       z     vdW  Elec       q    Type
REMARK                         _______ _______ _______ _____ _____    ______ ____
ROOT
ATOM      1  C   UNL     1       7.771   8.142  17.368  0.00  0.00    +0.000 C 
ENDROOT
BRANCH   1   2
ATOM      2  N   UNL     1       6.661   7.292  17.783  0.00  0.00    +0.000 N 
ATOM      3  C   UNL     1       6.610   5.961  17.419  0.00  0.00    +0.000 C 
ATOM      4  O   UNL     1       7.492   5.405  16.771  0.00  0.00    +0.000 OA
ATOM      5  H   UNL     1       5.826   7.742  18.131  0.00  0.00    +0.000 HD
BRANCH   3   6
ATOM      6  C   UNL     1       5.369   5.221  17.769  0.00  0.00    +0.000 A 
ATOM      7  C   UNL     1       4.864   4.323  16.824  0.00  0.00    +0.000 A 
ATOM      8  C   UNL     1       3.639   3.694  17.040  0.00  0.00    +0.000 A 
ATOM      9  C   UNL     1       2.911   3.934  18.214  0.00  0.00    +0.000 A 
ATOM     10  C   UNL     1       1.634   3.380  18.394  0.00  0.00    +0.000 A 
ATOM     11  C   UNL     1       0.924   3.597  19.574  0.00  0.00    +0.000 A 
ATOM     12  C   UNL     1       1.503   4.330  20.605  0.00  0.00    +0.000 A 
ATOM     13  C   UNL     1       2.767   4.903  20.435  0.00  0.00    +0.000 A 
ATOM     14  C   UNL     1       3.469   4.752  19.224  0.00  0.00    +0.000 A 
ATOM     15  C   UNL     1       4.697   5.403  18.985  0.00  0.00    +0.000 A 
ENDBRANCH   3   6
ENDBRANCH   1   2
BRANCH   1  16
ATOM     16  C   UNL     1       8.382   8.925  18.548  0.00  0.00    +0.000 C 
BRANCH  16  20
ATOM     17  C   UNL     1       9.699  12.989  18.217  0.00  0.00    +0.000 C 
ATOM     18  C   UNL     1       8.590  12.575  17.583  0.00  0.00    +0.000 C 
ATOM     19  C   UNL     1       8.128  11.144  17.586  0.00  0.00    +0.000 C 
ATOM     20  N   UNL     1       9.080  10.172  18.161  0.00  0.00    +0.000 NA
ATOM     21  C   UNL     1       9.773  10.742  19.332  0.00  0.00    +0.000 C 
ATOM     22  C   UNL     1      10.553  12.022  18.982  0.00  0.00    +0.000 C 
BRANCH  17  27
ATOM     23  C   UNL     1      11.127  18.593  18.329  0.00  0.00    +0.000 C 
ATOM     24  C   UNL     1      10.746  17.138  18.296  0.00  0.00    +0.000 A 
ATOM     25  C   UNL     1       9.550  16.695  18.873  0.00  0.00    +0.000 A 
ATOM     26  C   UNL     1       9.211  15.339  18.844  0.00  0.00    +0.000 A 
ATOM     27  C   UNL     1      10.064  14.409  18.240  0.00  0.00    +0.000 A 
ATOM     28  C   UNL     1      11.253  14.847  17.658  0.00  0.00    +0.000 A 
ATOM     29  C   UNL     1      11.593  16.202  17.687  0.00  0.00    +0.000 A 
ENDBRANCH  17  27
ENDBRANCH  16  20
ENDBRANCH   1  16
TORSDOF 5
ENDMDL
MODEL 4
REMARK VINA RESULT:      -8.1      7.238     10.472
REMARK  Name = 
REMARK  6 active torsions:
REMARK  status: ('A' for Active; 'I' for Inactive)
REMARK    1  A    between atoms: C_1  and  C_2
REMARK    2  A    between atoms: C_5  and  C_6
REMARK    3  A    between atoms: N_9  and  C_10
REMARK    4  A    between atoms: C_10  and  C_11
REMARK    5  A    between atoms: C_11  and  N_12
REMARK    6  A    between atoms: C_13  and  C_15
REMARK                            x       y       z     vdW  Elec       q    Type
REMARK                         _______ _______ _______ _____ _____    ______ ____
ROOT
ATOM      1  C   UNL     1       0.875  10.487  19.074  0.00  0.00    +0.000 C 
ENDROOT
BRANCH   1   2
ATOM      2  N   UNL     1       1.248   9.112  19.382  0.00  0.00    +0.000 N 
ATOM      3  C   UNL     1       1.967   8.352  18.481  0.00  0.00    +0.000 C 
ATOM      4  O   UNL     1       2.366   8.783  17.402  0.00  0.00    +0.000 OA
ATOM      5  H   UNL     1       0.776   8.654  20.149  0.00  0.00    +0.000 HD
BRANCH   3   6
ATOM      6  C   UNL     1       2.170   6.921  18.828  0.00  0.00    +0.000 A 
ATOM      7  C   UNL     1       2.012   6.552  20.167  0.00  0.00    +0.000 A 
ATOM      8  C   UNL     1       2.311   5.253  20.576  0.00  0.00    +0.000 A 
ATOM      9  C   UNL     1       2.749   4.297  19.650  0.00  0.00    +0.000 A 
ATOM     10  C   UNL     1       3.144   3.017  20.070  0.00  0.00    +0.000 A 
ATOM     11  C   UNL     1       3.554   2.059  19.145  0.00  0.00    +0.000 A 
ATOM     12  C   UNL     1       3.528   2.354  17.786  0.00  0.00    +0.000 A 
ATOM     13  C   UNL     1       3.154   3.630  17.352  0.00  0.00    +0.000 A 
ATOM     14  C   UNL     1       2.804   4.631  18.277  0.00  0.00    +0.000 A 
ATOM     15  C   UNL     1       2.523   5.954  17.877  0.00  0.00    +0.000 A 
ENDBRANCH   3   6
ENDBRANCH   1   2
BRANCH   1  16
ATOM     16  C   UNL     1       1.370  11.482  20.146  0.00  0.00    +0.000 C 
BRANCH  16  20
ATOM     17  C   UNL     1      -2.360  12.535  21.975  0.00  0.00    +0.000 C 
ATOM     18  C   UNL     1      -2.145  12.775  20.671  0.00  0.00    +0.000 C 
ATOM     19  C   UNL     1      -0.828  12.513  19.994  0.00  0.00    +0.000 C 
ATOM     20  N   UNL     1       0.289  12.163  20.895  0.00  0.00    +0.000 NA
ATOM     21  C   UNL     1      -0.173  11.303  22.000  0.00  0.00    +0.000 C 
ATOM     22  C   UNL     1      -1.272  11.975  22.842  0.00  0.00    +0.000 C 
BRANCH  17  27
ATOM     23  C   UNL     1      -7.597  13.348  24.292  0.00  0.00    +0.000 C 
ATOM     24  C   UNL     1      -6.234  13.146  23.685  0.00  0.00    +0.000 A 
ATOM     25  C   UNL     1      -5.987  13.475  22.347  0.00  0.00    +0.000 A 
ATOM     26  C   UNL     1      -4.720  13.275  21.792  0.00  0.00    +0.000 A 
ATOM     27  C   UNL     1      -3.685  12.742  22.567  0.00  0.00    +0.000 A 
ATOM     28  C   UNL     1      -3.924  12.420  23.903  0.00  0.00    +0.000 A 
ATOM     29  C   UNL     1      -5.192  12.619  24.458  0.00  0.00    +0.000 A 
ENDBRANCH  17  27
ENDBRANCH  16  20
ENDBRANCH   1  16
TORSDOF 5
ENDMDL
MODEL 5
REMARK VINA RESULT:      -8.1      2.960      5.122
REMARK  Name = 
REMARK  6 active torsions:
REMARK  status: ('A' for Active; 'I' for Inactive)
REMARK    1  A    between atoms: C_1  and  C_2
REMARK    2  A    between atoms: C_5  and  C_6
REMARK    3  A    between atoms: N_9  and  C_10
REMARK    4  A    between atoms: C_10  and  C_11
REMARK    5  A    between atoms: C_11  and  N_12
REMARK    6  A    between atoms: C_13  and  C_15
REMARK                            x       y       z     vdW  Elec       q    Type
REMARK                         _______ _______ _______ _____ _____    ______ ____
ROOT
ATOM      1  C   UNL     1       5.337   4.363  18.929  0.00  0.00    +0.000 C 
ENDROOT
BRANCH   1   2
ATOM      2  N   UNL     1       4.533   5.560  19.145  0.00  0.00    +0.000 N 
ATOM      3  C   UNL     1       3.160   5.482  19.268  0.00  0.00    +0.000 C 
ATOM      4  O   UNL     1       2.541   4.421  19.244  0.00  0.00    +0.000 OA
ATOM      5  H   UNL     1       4.963   6.458  18.968  0.00  0.00    +0.000 HD
BRANCH   3   6
ATOM      6  C   UNL     1       2.422   6.770  19.342  0.00  0.00    +0.000 A 
ATOM      7  C   UNL     1       2.361   7.547  18.181  0.00  0.00    +0.000 A 
ATOM      8  C   UNL     1       1.793   8.819  18.218  0.00  0.00    +0.000 A 
ATOM      9  C   UNL     1       1.256   9.326  19.410  0.00  0.00    +0.000 A 
ATOM     10  C   UNL     1       0.771  10.641  19.478  0.00  0.00    +0.000 A 
ATOM     11  C   UNL     1       0.213  11.134  20.656  0.00  0.00    +0.000 A 
ATOM     12  C   UNL     1       0.089  10.302  21.764  0.00  0.00    +0.000 A 
ATOM     13  C   UNL     1       0.583   8.994  21.718  0.00  0.00    +0.000 A 
ATOM     14  C   UNL     1       1.212   8.503  20.559  0.00  0.00    +0.000 A 
ATOM     15  C   UNL     1       1.811   7.227  20.517  0.00  0.00    +0.000 A 
ENDBRANCH   3   6
ENDBRANCH   1   2
BRANCH   1  16
ATOM     16  C   UNL     1       6.187   4.453  17.644  0.00  0.00    +0.000 C 
BRANCH  16  20
ATOM     17  C   UNL     1       8.068   8.272  18.139  0.00  0.00    +0.000 C 
ATOM     18  C   UNL     1       7.159   8.077  17.170  0.00  0.00    +0.000 C 
ATOM     19  C   UNL     1       6.533   6.739  16.887  0.00  0.00    +0.000 C 
ATOM     20  N   UNL     1       7.128   5.596  17.610  0.00  0.00    +0.000 NA
ATOM     21  C   UNL     1       7.502   5.977  18.985  0.00  0.00    +0.000 C 
ATOM     22  C   UNL     1       8.513   7.138  19.014  0.00  0.00    +0.000 C 
BRANCH  17  27
ATOM     23  C   UNL     1      10.120  13.570  19.226  0.00  0.00    +0.000 C 
ATOM     24  C   UNL     1       9.590  12.192  18.933  0.00  0.00    +0.000 A 
ATOM     25  C   UNL     1       8.808  11.948  17.797  0.00  0.00    +0.000 A 
ATOM     26  C   UNL     1       8.314  10.666  17.540  0.00  0.00    +0.000 A 
ATOM     27  C   UNL     1       8.592   9.612  18.417  0.00  0.00    +0.000 A 
ATOM     28  C   UNL     1       9.377   9.848  19.546  0.00  0.00    +0.000 A 
ATOM     29  C   UNL     1       9.871  11.131  19.804  0.00  0.00    +0.000 A 
ENDBRANCH  17  27
ENDBRANCH  16  20
ENDBRANCH   1  16
TORSDOF 5
ENDMDL
MODEL 6
REMARK VINA RESULT:      -8.0      0.861      1.357
REMARK  Name = 
REMARK  6 active torsions:
REMARK  status: ('A' for Active; 'I' for Inactive)
REMARK    1  A    between atoms: C_1  and  C_2
REMARK    2  A    between atoms: C_5  and  C_6
REMARK    3  A    between atoms: N_9  and  C_10
REMARK    4  A    between atoms: C_10  and  C_11
REMARK    5  A    between atoms: C_11  and  N_12
REMARK    6  A    between atoms: C_13  and  C_15
REMARK                            x       y       z     vdW  Elec       q    Type
REMARK                         _______ _______ _______ _____ _____    ______ ____
ROOT
ATOM      1  C   UNL     1       7.589   8.083  17.366  0.00  0.00    +0.000 C 
ENDROOT
BRANCH   1   2
ATOM      2  N   UNL     1       6.572   7.140  17.815  0.00  0.00    +0.000 N 
ATOM      3  C   UNL     1       6.127   6.128  16.987  0.00  0.00    +0.000 C 
ATOM      4  O   UNL     1       6.573   5.933  15.860  0.00  0.00    +0.000 OA
ATOM      5  H   UNL     1       6.036   7.378  18.637  0.00  0.00    +0.000 HD
BRANCH   3   6
ATOM      6  C   UNL     1       4.989   5.312  17.485  0.00  0.00    +0.000 A 
ATOM      7  C   UNL     1       4.559   4.247  16.688  0.00  0.00    +0.000 A 
ATOM      8  C   UNL     1       3.420   3.524  17.038  0.00  0.00    +0.000 A 
ATOM      9  C   UNL     1       2.706   3.838  18.203  0.00  0.00    +0.000 A 
ATOM     10  C   UNL     1       1.506   3.179  18.510  0.00  0.00    +0.000 A 
ATOM     11  C   UNL     1       0.812   3.473  19.683  0.00  0.00    +0.000 A 
ATOM     12  C   UNL     1       1.336   4.395  20.584  0.00  0.00    +0.000 A 
ATOM     13  C   UNL     1       2.522   5.072  20.284  0.00  0.00    +0.000 A 
ATOM     14  C   UNL     1       3.199   4.839  19.073  0.00  0.00    +0.000 A 
ATOM     15  C   UNL     1       4.338   5.580  18.697  0.00  0.00    +0.000 A 
ENDBRANCH   3   6
ENDBRANCH   1   2
BRANCH   1  16
ATOM     16  C   UNL     1       8.454   8.610  18.530  0.00  0.00    +0.000 C 
BRANCH  16  20
ATOM     17  C   UNL     1       9.530  12.758  18.470  0.00  0.00    +0.000 C 
ATOM     18  C   UNL     1       8.539  12.296  17.690  0.00  0.00    +0.000 C 
ATOM     19  C   UNL     1       8.177  10.839  17.598  0.00  0.00    +0.000 C 
ATOM     20  N   UNL     1       9.111   9.910  18.266  0.00  0.00    +0.000 NA
ATOM     21  C   UNL     1       9.612  10.484  19.530  0.00  0.00    +0.000 C 
ATOM     22  C   UNL     1      10.342  11.822  19.315  0.00  0.00    +0.000 C 
BRANCH  17  27
ATOM     23  C   UNL     1      10.569  18.434  18.864  0.00  0.00    +0.000 C 
ATOM     24  C   UNL     1      10.309  16.955  18.760  0.00  0.00    +0.000 A 
ATOM     25  C   UNL     1      10.789  16.216  17.672  0.00  0.00    +0.000 A 
ATOM     26  C   UNL     1      10.534  14.844  17.582  0.00  0.00    +0.000 A 
ATOM     27  C   UNL     1       9.793  14.196  18.576  0.00  0.00    +0.000 A 
ATOM     28  C   UNL     1       9.319  14.927  19.665  0.00  0.00    +0.000 A 
ATOM     29  C   UNL     1       9.573  16.299  19.755  0.00  0.00    +0.000 A 
ENDBRANCH  17  27
ENDBRANCH  16  20
ENDBRANCH   1  16
TORSDOF 5
ENDMDL
MODEL 7
REMARK VINA RESULT:      -8.0      2.827      4.607
REMARK  Name = 
REMARK  6 active torsions:
REMARK  status: ('A' for Active; 'I' for Inactive)
REMARK    1  A    between atoms: C_1  and  C_2
REMARK    2  A    between atoms: C_5  and  C_6
REMARK    3  A    between atoms: N_9  and  C_10
REMARK    4  A    between atoms: C_10  and  C_11
REMARK    5  A    between atoms: C_11  and  N_12
REMARK    6  A    between atoms: C_13  and  C_15
REMARK                            x       y       z     vdW  Elec       q    Type
REMARK                         _______ _______ _______ _____ _____    ______ ____
ROOT
ATOM      1  C   UNL     1       5.219   4.663  17.274  0.00  0.00    +0.000 C 
ENDROOT
BRANCH   1   2
ATOM      2  N   UNL     1       4.327   5.779  17.565  0.00  0.00    +0.000 N 
ATOM      3  C   UNL     1       3.767   5.934  18.817  0.00  0.00    +0.000 C 
ATOM      4  O   UNL     1       4.005   5.183  19.760  0.00  0.00    +0.000 OA
ATOM      5  H   UNL     1       3.942   6.294  16.785  0.00  0.00    +0.000 HD
BRANCH   3   6
ATOM      6  C   UNL     1       2.761   7.018  18.969  0.00  0.00    +0.000 A 
ATOM      7  C   UNL     1       2.463   7.786  17.840  0.00  0.00    +0.000 A 
ATOM      8  C   UNL     1       1.625   8.895  17.947  0.00  0.00    +0.000 A 
ATOM      9  C   UNL     1       1.052   9.239  19.179  0.00  0.00    +0.000 A 
ATOM     10  C   UNL     1       0.287  10.407  19.315  0.00  0.00    +0.000 A 
ATOM     11  C   UNL     1      -0.305  10.732  20.535  0.00  0.00    +0.000 A 
ATOM     12  C   UNL     1      -0.178   9.870  21.618  0.00  0.00    +0.000 A 
ATOM     13  C   UNL     1       0.596   8.710  21.504  0.00  0.00    +0.000 A 
ATOM     14  C   UNL     1       1.258   8.401  20.301  0.00  0.00    +0.000 A 
ATOM     15  C   UNL     1       2.127   7.297  20.187  0.00  0.00    +0.000 A 
ENDBRANCH   3   6
ENDBRANCH   1   2
BRANCH   1  16
ATOM     16  C   UNL     1       6.706   5.061  17.374  0.00  0.00    +0.000 C 
BRANCH  16  20
ATOM     17  C   UNL     1       8.442   8.789  18.577  0.00  0.00    +0.000 C 
ATOM     18  C   UNL     1       8.658   7.671  19.290  0.00  0.00    +0.000 C 
ATOM     19  C   UNL     1       8.004   6.355  18.972  0.00  0.00    +0.000 C 
ATOM     20  N   UNL     1       6.945   6.406  17.944  0.00  0.00    +0.000 NA
ATOM     21  C   UNL     1       7.298   7.351  16.868  0.00  0.00    +0.000 C 
ATOM     22  C   UNL     1       7.519   8.780  17.396  0.00  0.00    +0.000 C 
BRANCH  17  27
ATOM     23  C   UNL     1      11.270  13.687  19.789  0.00  0.00    +0.000 C 
ATOM     24  C   UNL     1      10.543  12.410  19.467  0.00  0.00    +0.000 A 
ATOM     25  C   UNL     1      10.320  12.024  18.139  0.00  0.00    +0.000 A 
ATOM     26  C   UNL     1       9.635  10.840  17.853  0.00  0.00    +0.000 A 
ATOM     27  C   UNL     1       9.161  10.028  18.889  0.00  0.00    +0.000 A 
ATOM     28  C   UNL     1       9.387  10.405  20.213  0.00  0.00    +0.000 A 
ATOM     29  C   UNL     1      10.071  11.589  20.500  0.00  0.00    +0.000 A 
ENDBRANCH  17  27
ENDBRANCH  16  20
ENDBRANCH   1  16
TORSDOF 5
ENDMDL
MODEL 8
REMARK VINA RESULT:      -8.0      1.664      2.164
REMARK  Name = 
REMARK  6 active torsions:
REMARK  status: ('A' for Active; 'I' for Inactive)
REMARK    1  A    between atoms: C_1  and  C_2
REMARK    2  A    between atoms: C_5  and  C_6
REMARK    3  A    between atoms: N_9  and  C_10
REMARK    4  A    between atoms: C_10  and  C_11
REMARK    5  A    between atoms: C_11  and  N_12
REMARK    6  A    between atoms: C_13  and  C_15
REMARK                            x       y       z     vdW  Elec       q    Type
REMARK                         _______ _______ _______ _____ _____    ______ ____
ROOT
ATOM      1  C   UNL     1       8.403   8.028  18.212  0.00  0.00    +0.000 C 
ENDROOT
BRANCH   1   2
ATOM      2  N   UNL     1       7.256   7.140  18.067  0.00  0.00    +0.000 N 
ATOM      3  C   UNL     1       7.200   5.935  18.738  0.00  0.00    +0.000 C 
ATOM      4  O   UNL     1       8.072   5.555  19.515  0.00  0.00    +0.000 OA
ATOM      5  H   UNL     1       6.623   7.307  17.297  0.00  0.00    +0.000 HD
BRANCH   3   6
ATOM      6  C   UNL     1       6.058   5.042  18.411  0.00  0.00    +0.000 A 
ATOM      7  C   UNL     1       5.759   4.843  17.059  0.00  0.00    +0.000 A 
ATOM      8  C   UNL     1       4.627   4.119  16.690  0.00  0.00    +0.000 A 
ATOM      9  C   UNL     1       3.788   3.561  17.666  0.00  0.00    +0.000 A 
ATOM     10  C   UNL     1       2.596   2.915  17.304  0.00  0.00    +0.000 A 
ATOM     11  C   UNL     1       1.778   2.337  18.274  0.00  0.00    +0.000 A 
ATOM     12  C   UNL     1       2.167   2.357  19.609  0.00  0.00    +0.000 A 
ATOM     13  C   UNL     1       3.343   3.012  19.987  0.00  0.00    +0.000 A 
ATOM     14  C   UNL     1       4.146   3.661  19.031  0.00  0.00    +0.000 A 
ATOM     15  C   UNL     1       5.280   4.416  19.394  0.00  0.00    +0.000 A 
ENDBRANCH   3   6
ENDBRANCH   1   2
BRANCH   1  16
ATOM     16  C   UNL     1       8.074   9.481  17.811  0.00  0.00    +0.000 C 
BRANCH  16  20
ATOM     17  C   UNL     1       9.958  12.863  19.649  0.00  0.00    +0.000 C 
ATOM     18  C   UNL     1       9.348  12.982  18.458  0.00  0.00    +0.000 C 
ATOM     19  C   UNL     1       8.751  11.816  17.721  0.00  0.00    +0.000 C 
ATOM     20  N   UNL     1       9.051  10.486  18.289  0.00  0.00    +0.000 NA
ATOM     21  C   UNL     1       9.044  10.528  19.764  0.00  0.00    +0.000 C 
ATOM     22  C   UNL     1      10.072  11.529  20.323  0.00  0.00    +0.000 C 
BRANCH  17  27
ATOM     23  C   UNL     1      11.935  17.517  22.458  0.00  0.00    +0.000 C 
ATOM     24  C   UNL     1      11.410  16.309  21.729  0.00  0.00    +0.000 A 
ATOM     25  C   UNL     1      10.408  15.509  22.290  0.00  0.00    +0.000 A 
ATOM     26  C   UNL     1       9.935  14.385  21.607  0.00  0.00    +0.000 A 
ATOM     27  C   UNL     1      10.460  14.045  20.356  0.00  0.00    +0.000 A 
ATOM     28  C   UNL     1      11.453  14.844  19.789  0.00  0.00    +0.000 A 
ATOM     29  C   UNL     1      11.927  15.968  20.472  0.00  0.00    +0.000 A 
ENDBRANCH  17  27
ENDBRANCH  16  20
ENDBRANCH   1  16
TORSDOF 5
ENDMDL
MODEL 9
REMARK VINA RESULT:      -8.0      7.811     11.437
REMARK  Name = 
REMARK  6 active torsions:
REMARK  status: ('A' for Active; 'I' for Inactive)
REMARK    1  A    between atoms: C_1  and  C_2
REMARK    2  A    between atoms: C_5  and  C_6
REMARK    3  A    between atoms: N_9  and  C_10
REMARK    4  A    between atoms: C_10  and  C_11
REMARK    5  A    between atoms: C_11  and  N_12
REMARK    6  A    between atoms: C_13  and  C_15
REMARK                            x       y       z     vdW  Elec       q    Type
REMARK                         _______ _______ _______ _____ _____    ______ ____
ROOT
ATOM      1  C   UNL     1       0.061  11.058  20.393  0.00  0.00    +0.000 C 
ENDROOT
BRANCH   1   2
ATOM      2  N   UNL     1      -1.234  11.480  20.913  0.00  0.00    +0.000 N 
ATOM      3  C   UNL     1      -1.324  12.433  21.908  0.00  0.00    +0.000 C 
ATOM      4  O   UNL     1      -0.347  13.005  22.384  0.00  0.00    +0.000 OA
ATOM      5  H   UNL     1      -2.038  10.903  20.707  0.00  0.00    +0.000 HD
BRANCH   3   6
ATOM      6  C   UNL     1      -2.677  12.688  22.468  0.00  0.00    +0.000 A 
ATOM      7  C   UNL     1      -2.921  12.276  23.782  0.00  0.00    +0.000 A 
ATOM      8  C   UNL     1      -4.204  12.372  24.319  0.00  0.00    +0.000 A 
ATOM      9  C   UNL     1      -5.257  12.904  23.562  0.00  0.00    +0.000 A 
ATOM     10  C   UNL     1      -6.568  12.914  24.061  0.00  0.00    +0.000 A 
ATOM     11  C   UNL     1      -7.609  13.468  23.318  0.00  0.00    +0.000 A 
ATOM     12  C   UNL     1      -7.342  14.060  22.088  0.00  0.00    +0.000 A 
ATOM     13  C   UNL     1      -6.044  14.042  21.568  0.00  0.00    +0.000 A 
ATOM     14  C   UNL     1      -4.993  13.426  22.274  0.00  0.00    +0.000 A 
ATOM     15  C   UNL     1      -3.698  13.301  21.730  0.00  0.00    +0.000 A 
ENDBRANCH   3   6
ENDBRANCH   1   2
BRANCH   1  16
ATOM     16  C   UNL     1       0.557   9.751  21.047  0.00  0.00    +0.000 C 
BRANCH  16  20
ATOM     17  C   UNL     1       2.687   7.117  18.422  0.00  0.00    +0.000 C 
ATOM     18  C   UNL     1       2.317   8.341  18.012  0.00  0.00    +0.000 C 
ATOM     19  C   UNL     1       1.489   9.274  18.852  0.00  0.00    +0.000 C 
ATOM     20  N   UNL     1       0.930   8.688  20.087  0.00  0.00    +0.000 NA
ATOM     21  C   UNL     1       1.892   7.762  20.714  0.00  0.00    +0.000 C 
ATOM     22  C   UNL     1       2.289   6.608  19.775  0.00  0.00    +0.000 C 
BRANCH  17  27
ATOM     23  C   UNL     1       6.121   3.817  15.141  0.00  0.00    +0.000 C 
ATOM     24  C   UNL     1       5.225   4.682  15.986  0.00  0.00    +0.000 A 
ATOM     25  C   UNL     1       5.345   6.076  15.966  0.00  0.00    +0.000 A 
ATOM     26  C   UNL     1       4.513   6.869  16.763  0.00  0.00    +0.000 A 
ATOM     27  C   UNL     1       3.553   6.277  17.590  0.00  0.00    +0.000 A 
ATOM     28  C   UNL     1       3.425   4.888  17.608  0.00  0.00    +0.000 A 
ATOM     29  C   UNL     1       4.258   4.095  16.812  0.00  0.00    +0.000 A 
ENDBRANCH  17  27
ENDBRANCH  16  20
ENDBRANCH   1  16
TORSDOF 5
ENDMDL
