MODEL 1
REMARK VINA RESULT:      -8.4      0.000      0.000
REMARK  Name = 
REMARK  6 active torsions:
REMARK  status: ('A' for Active; 'I' for Inactive)
REMARK    1  A    between atoms: C_1  and  C_2
REMARK    2  A    between atoms: C_2  and  N_3
REMARK    3  A    between atoms: C_2  and  C_19
REMARK    4  A    between atoms: C_4  and  C_6
REMARK    5  A    between atoms: C_6  and  C_7
REMARK    6  A    between atoms: C_10  and  C_11
REMARK                            x       y       z     vdW  Elec       q    Type
REMARK                         _______ _______ _______ _____ _____    ______ ____
ROOT
ATOM      1  C   UNL     1       6.628   4.563  17.528  0.00  0.00    +0.000 C 
ENDROOT
BRANCH   1   2
ATOM      2  C   UNL     1       7.236   5.915  17.796  0.00  0.00    +0.000 A 
ATOM      3  C   UNL     1       7.996   6.149  18.948  0.00  0.00    +0.000 A 
ATOM      4  C   UNL     1       8.513   7.426  19.213  0.00  0.00    +0.000 A 
ATOM      5  C   UNL     1       8.292   8.507  18.340  0.00  0.00    +0.000 A 
ATOM      6  C   UNL     1       7.539   8.244  17.180  0.00  0.00    +0.000 A 
ATOM      7  C   UNL     1       7.019   6.974  16.912  0.00  0.00    +0.000 A 
BRANCH   5   8
ATOM      8  C   UNL     1       8.819   9.867  18.618  0.00  0.00    +0.000 A 
ATOM      9  C   UNL     1       8.676  10.923  17.699  0.00  0.00    +0.000 A 
ATOM     10  C   UNL     1       9.162  12.205  17.979  0.00  0.00    +0.000 A 
ATOM     11  C   UNL     1       9.795  12.466  19.190  0.00  0.00    +0.000 A 
ATOM     12  C   UNL     1       9.955  11.443  20.116  0.00  0.00    +0.000 A 
ATOM     13  C   UNL     1       9.480  10.158  19.829  0.00  0.00    +0.000 A 
ENDBRANCH   5   8
ENDBRANCH   1   2
BRANCH   1  15
ATOM     14  N   UNL     1       4.455   5.500  18.148  0.00  0.00    +0.000 N 
ATOM     15  C   UNL     1       5.126   4.627  17.314  0.00  0.00    +0.000 C 
ATOM     16  O   UNL     1       4.565   3.958  16.448  0.00  0.00    +0.000 OA
ATOM     17  H   UNL     1       4.949   5.961  18.899  0.00  0.00    +0.000 HD
BRANCH  14  19
ATOM     18  C   UNL     1       2.639   7.160  18.301  0.00  0.00    +0.000 C 
ATOM     19  C   UNL     1       3.021   5.700  18.029  0.00  0.00    +0.000 C 
BRANCH  19  20
ATOM     20  C   UNL     1       2.241   4.762  18.934  0.00  0.00    +0.000 A 
ATOM     21  C   UNL     1       2.360   4.893  20.328  0.00  0.00    +0.000 A 
ATOM     22  C   UNL     1       1.770   3.961  21.184  0.00  0.00    +0.000 A 
ATOM     23  C   UNL     1       1.044   2.895  20.662  0.00  0.00    +0.000 A 
ATOM     24  C   UNL     1       0.878   2.776  19.284  0.00  0.00    +0.000 A 
ATOM     25  C   UNL     1       1.463   3.710  18.424  0.00  0.00    +0.000 A 
ENDBRANCH  19  20
ENDBRANCH  14  19
ENDBRANCH   1  15
TORSDOF 5
ENDMDL
MODEL 2
REMARK VINA RESULT:      -8.4      0.432      1.740
REMARK  Name = 
REMARK  6 active torsions:
REMARK  status: ('A' for Active; 'I' for Inactive)
REMARK    1  A    between atoms: C_1  and  C_2
REMARK    2  A    between atoms: C_2  and  N_3
REMARK    3  A    between atoms: C_2  and  C_19
REMARK    4  A    between atoms: C_4  and  C_6
REMARK    5  A    between atoms: C_6  and  C_7
REMARK    6  A    between atoms: C_10  and  C_11
REMARK                            x       y       z     vdW  Elec       q    Type
REMARK                         _______ _______ _______ _____ _____    ______ ____
ROOT
ATOM      1  C   UNL     1       6.797   4.897  17.427  0.00  0.00    +0.000 C 
ENDROOT
BRANCH   1   2
ATOM      2  C   UNL     1       7.319   6.263  17.787  0.00  0.00    +0.000 A 
ATOM      3  C   UNL     1       7.040   7.376  16.987  0.00  0.00    +0.000 A 
ATOM      4  C   UNL     1       7.574   8.634  17.303  0.00  0.00    +0.000 A 
ATOM      5  C   UNL     1       8.400   8.822  18.426  0.00  0.00    +0.000 A 
ATOM      6  C   UNL     1       8.654   7.692  19.226  0.00  0.00    +0.000 A 
ATOM      7  C   UNL     1       8.126   6.435  18.913  0.00  0.00    +0.000 A 
BRANCH   5   8
ATOM      8  C   UNL     1       8.986  10.144  18.763  0.00  0.00    +0.000 A 
ATOM      9  C   UNL     1       9.670  10.370  19.972  0.00  0.00    +0.000 A 
ATOM     10  C   UNL     1      10.233  11.616  20.271  0.00  0.00    +0.000 A 
ATOM     11  C   UNL     1      10.136  12.665  19.363  0.00  0.00    +0.000 A 
ATOM     12  C   UNL     1       9.464  12.475  18.162  0.00  0.00    +0.000 A 
ATOM     13  C   UNL     1       8.890  11.232  17.870  0.00  0.00    +0.000 A 
ENDBRANCH   5   8
ENDBRANCH   1   2
BRANCH   1  15
ATOM     14  N   UNL     1       4.535   5.599  18.038  0.00  0.00    +0.000 N 
ATOM     15  C   UNL     1       5.308   4.894  17.135  0.00  0.00    +0.000 C 
ATOM     16  O   UNL     1       4.839   4.319  16.155  0.00  0.00    +0.000 OA
ATOM     17  H   UNL     1       4.957   5.981  18.873  0.00  0.00    +0.000 HD
BRANCH  14  19
ATOM     18  C   UNL     1       2.616   7.135  18.214  0.00  0.00    +0.000 C 
ATOM     19  C   UNL     1       3.099   5.723  17.863  0.00  0.00    +0.000 C 
BRANCH  19  20
ATOM     20  C   UNL     1       2.338   4.679  18.663  0.00  0.00    +0.000 A 
ATOM     21  C   UNL     1       1.855   3.531  18.015  0.00  0.00    +0.000 A 
ATOM     22  C   UNL     1       1.033   2.625  18.688  0.00  0.00    +0.000 A 
ATOM     23  C   UNL     1       0.695   2.846  20.020  0.00  0.00    +0.000 A 
ATOM     24  C   UNL     1       1.204   3.955  20.691  0.00  0.00    +0.000 A 
ATOM     25  C   UNL     1       2.030   4.861  20.021  0.00  0.00    +0.000 A 
ENDBRANCH  19  20
ENDBRANCH  14  19
ENDBRANCH   1  15
TORSDOF 5
ENDMDL
MODEL 3
REMARK VINA RESULT:      -8.3      0.649      1.177
REMARK  Name = 
REMARK  6 active torsions:
REMARK  status: ('A' for Active; 'I' for Inactive)
REMARK    1  A    between atoms: C_1  and  C_2
REMARK    2  A    between atoms: C_2  and  N_3
REMARK    3  A    between atoms: C_2  and  C_19
REMARK    4  A    between atoms: C_4  and  C_6
REMARK    5  A    between atoms: C_6  and  C_7
REMARK    6  A    between atoms: C_10  and  C_11
REMARK                            x       y       z     vdW  Elec       q    Type
REMARK                         _______ _______ _______ _____ _____    ______ ____
ROOT
ATOM      1  C   UNL     1       6.717   5.254  17.312  0.00  0.00    +0.000 C 
ENDROOT
BRANCH   1   2
ATOM      2  C   UNL     1       7.318   6.564  17.748  0.00  0.00    +0.000 A 
ATOM      3  C   UNL     1       7.096   7.738  17.020  0.00  0.00    +0.000 A 
ATOM      4  C   UNL     1       7.703   8.942  17.406  0.00  0.00    +0.000 A 
ATOM      5  C   UNL     1       8.548   9.015  18.528  0.00  0.00    +0.000 A 
ATOM      6  C   UNL     1       8.745   7.826  19.254  0.00  0.00    +0.000 A 
ATOM      7  C   UNL     1       8.144   6.622  18.873  0.00  0.00    +0.000 A 
BRANCH   5   8
ATOM      8  C   UNL     1       9.211  10.279  18.937  0.00  0.00    +0.000 A 
ATOM      9  C   UNL     1       9.635  11.236  17.997  0.00  0.00    +0.000 A 
ATOM     10  C   UNL     1      10.244  12.432  18.394  0.00  0.00    +0.000 A 
ATOM     11  C   UNL     1      10.435  12.705  19.745  0.00  0.00    +0.000 A 
ATOM     12  C   UNL     1      10.031  11.778  20.697  0.00  0.00    +0.000 A 
ATOM     13  C   UNL     1       9.434  10.578  20.297  0.00  0.00    +0.000 A 
ENDBRANCH   5   8
ENDBRANCH   1   2
BRANCH   1  15
ATOM     14  N   UNL     1       4.434   5.530  18.146  0.00  0.00    +0.000 N 
ATOM     15  C   UNL     1       5.229   5.355  17.029  0.00  0.00    +0.000 C 
ATOM     16  O   UNL     1       4.780   5.300  15.887  0.00  0.00    +0.000 OA
ATOM     17  H   UNL     1       4.842   5.482  19.069  0.00  0.00    +0.000 HD
BRANCH  14  19
ATOM     18  C   UNL     1       2.579   7.151  18.223  0.00  0.00    +0.000 C 
ATOM     19  C   UNL     1       2.996   5.689  18.026  0.00  0.00    +0.000 C 
BRANCH  19  20
ATOM     20  C   UNL     1       2.244   4.782  18.986  0.00  0.00    +0.000 A 
ATOM     21  C   UNL     1       2.477   4.896  20.367  0.00  0.00    +0.000 A 
ATOM     22  C   UNL     1       1.912   3.987  21.263  0.00  0.00    +0.000 A 
ATOM     23  C   UNL     1       1.096   2.961  20.794  0.00  0.00    +0.000 A 
ATOM     24  C   UNL     1       0.817   2.861  19.433  0.00  0.00    +0.000 A 
ATOM     25  C   UNL     1       1.378   3.772  18.534  0.00  0.00    +0.000 A 
ENDBRANCH  19  20
ENDBRANCH  14  19
ENDBRANCH   1  15
TORSDOF 5
ENDMDL
MODEL 4
REMARK VINA RESULT:      -8.2      0.725      1.197
REMARK  Name = 
REMARK  6 active torsions:
REMARK  status: ('A' for Active; 'I' for Inactive)
REMARK    1  A    between atoms: C_1  and  C_2
REMARK    2  A    between atoms: C_2  and  N_3
REMARK    3  A    between atoms: C_2  and  C_19
REMARK    4  A    between atoms: C_4  and  C_6
REMARK    5  A    between atoms: C_6  and  C_7
REMARK    6  A    between atoms: C_10  and  C_11
REMARK                            x       y       z     vdW  Elec       q    Type
REMARK                         _______ _______ _______ _____ _____    ______ ____
ROOT
ATOM      1  C   UNL     1       6.689   5.282  17.327  0.00  0.00    +0.000 C 
ENDROOT
BRANCH   1   2
ATOM      2  C   UNL     1       7.371   6.560  17.739  0.00  0.00    +0.000 A 
ATOM      3  C   UNL     1       8.176   6.614  18.882  0.00  0.00    +0.000 A 
ATOM      4  C   UNL     1       8.764   7.822  19.284  0.00  0.00    +0.000 A 
ATOM      5  C   UNL     1       8.570   9.013  18.560  0.00  0.00    +0.000 A 
ATOM      6  C   UNL     1       7.770   8.932  17.405  0.00  0.00    +0.000 A 
ATOM      7  C   UNL     1       7.179   7.730  17.001  0.00  0.00    +0.000 A 
BRANCH   5   8
ATOM      8  C   UNL     1       9.172  10.302  18.984  0.00  0.00    +0.000 A 
ATOM      9  C   UNL     1       9.424  10.597  20.336  0.00  0.00    +0.000 A 
ATOM     10  C   UNL     1      10.007  11.809  20.724  0.00  0.00    +0.000 A 
ATOM     11  C   UNL     1      10.362  12.753  19.766  0.00  0.00    +0.000 A 
ATOM     12  C   UNL     1      10.121  12.493  18.422  0.00  0.00    +0.000 A 
ATOM     13  C   UNL     1       9.526  11.286  18.038  0.00  0.00    +0.000 A 
ENDBRANCH   5   8
ENDBRANCH   1   2
BRANCH   1  15
ATOM     14  N   UNL     1       4.385   5.655  18.061  0.00  0.00    +0.000 N 
ATOM     15  C   UNL     1       5.225   5.483  16.978  0.00  0.00    +0.000 C 
ATOM     16  O   UNL     1       4.833   5.505  15.813  0.00  0.00    +0.000 OA
ATOM     17  H   UNL     1       4.743   5.542  19.000  0.00  0.00    +0.000 HD
BRANCH  14  19
ATOM     18  C   UNL     1       2.593   7.331  18.295  0.00  0.00    +0.000 C 
ATOM     19  C   UNL     1       2.966   5.903  17.880  0.00  0.00    +0.000 C 
BRANCH  19  20
ATOM     20  C   UNL     1       2.114   4.888  18.622  0.00  0.00    +0.000 A 
ATOM     21  C   UNL     1       1.920   5.032  20.006  0.00  0.00    +0.000 A 
ATOM     22  C   UNL     1       1.263   4.042  20.741  0.00  0.00    +0.000 A 
ATOM     23  C   UNL     1       0.780   2.905  20.102  0.00  0.00    +0.000 A 
ATOM     24  C   UNL     1       0.922   2.768  18.723  0.00  0.00    +0.000 A 
ATOM     25  C   UNL     1       1.576   3.758  17.985  0.00  0.00    +0.000 A 
ENDBRANCH  19  20
ENDBRANCH  14  19
ENDBRANCH   1  15
TORSDOF 5
ENDMDL
MODEL 5
REMARK VINA RESULT:      -8.1      0.237      1.009
REMARK  Name = 
REMARK  6 active torsions:
REMARK  status: ('A' for Active; 'I' for Inactive)
REMARK    1  A    between atoms: C_1  and  C_2
REMARK    2  A    between atoms: C_2  and  N_3
REMARK    3  A    between atoms: C_2  and  C_19
REMARK    4  A    between atoms: C_4  and  C_6
REMARK    5  A    between atoms: C_6  and  C_7
REMARK    6  A    between atoms: C_10  and  C_11
REMARK                            x       y       z     vdW  Elec       q    Type
REMARK                         _______ _______ _______ _____ _____    ______ ____
ROOT
ATOM      1  C   UNL     1       6.728   4.658  17.287  0.00  0.00    +0.000 C 
ENDROOT
BRANCH   1   2
ATOM      2  C   UNL     1       7.314   5.999  17.646  0.00  0.00    +0.000 A 
ATOM      3  C   UNL     1       8.047   6.173  18.825  0.00  0.00    +0.000 A 
ATOM      4  C   UNL     1       8.543   7.437  19.175  0.00  0.00    +0.000 A 
ATOM      5  C   UNL     1       8.327   8.565  18.363  0.00  0.00    +0.000 A 
ATOM      6  C   UNL     1       7.601   8.363  17.174  0.00  0.00    +0.000 A 
ATOM      7  C   UNL     1       7.102   7.105  16.822  0.00  0.00    +0.000 A 
BRANCH   5   8
ATOM      8  C   UNL     1       8.832   9.912  18.731  0.00  0.00    +0.000 A 
ATOM      9  C   UNL     1       8.963  10.943  17.783  0.00  0.00    +0.000 A 
ATOM     10  C   UNL     1       9.424  12.214  18.144  0.00  0.00    +0.000 A 
ATOM     11  C   UNL     1       9.756  12.489  19.467  0.00  0.00    +0.000 A 
ATOM     12  C   UNL     1       9.641  11.490  20.426  0.00  0.00    +0.000 A 
ATOM     13  C   UNL     1       9.192  10.216  20.060  0.00  0.00    +0.000 A 
ENDBRANCH   5   8
ENDBRANCH   1   2
BRANCH   1  15
ATOM     14  N   UNL     1       4.601   5.530  18.125  0.00  0.00    +0.000 N 
ATOM     15  C   UNL     1       5.211   4.678  17.224  0.00  0.00    +0.000 C 
ATOM     16  O   UNL     1       4.586   3.995  16.416  0.00  0.00    +0.000 OA
ATOM     17  H   UNL     1       5.154   6.004  18.825  0.00  0.00    +0.000 HD
BRANCH  14  19
ATOM     18  C   UNL     1       2.762   7.122  18.524  0.00  0.00    +0.000 C 
ATOM     19  C   UNL     1       3.158   5.688  18.150  0.00  0.00    +0.000 C 
BRANCH  19  20
ATOM     20  C   UNL     1       2.495   4.688  19.082  0.00  0.00    +0.000 A 
ATOM     21  C   UNL     1       1.594   3.748  18.555  0.00  0.00    +0.000 A 
ATOM     22  C   UNL     1       0.862   2.910  19.399  0.00  0.00    +0.000 A 
ATOM     23  C   UNL     1       1.030   2.991  20.778  0.00  0.00    +0.000 A 
ATOM     24  C   UNL     1       1.954   3.885  21.315  0.00  0.00    +0.000 A 
ATOM     25  C   UNL     1       2.690   4.722  20.473  0.00  0.00    +0.000 A 
ENDBRANCH  19  20
ENDBRANCH  14  19
ENDBRANCH   1  15
TORSDOF 5
ENDMDL
MODEL 6
REMARK VINA RESULT:      -8.1      3.480      7.266
REMARK  Name = 
REMARK  6 active torsions:
REMARK  status: ('A' for Active; 'I' for Inactive)
REMARK    1  A    between atoms: C_1  and  C_2
REMARK    2  A    between atoms: C_2  and  N_3
REMARK    3  A    between atoms: C_2  and  C_19
REMARK    4  A    between atoms: C_4  and  C_6
REMARK    5  A    between atoms: C_6  and  C_7
REMARK    6  A    between atoms: C_10  and  C_11
REMARK                            x       y       z     vdW  Elec       q    Type
REMARK                         _______ _______ _______ _____ _____    ______ ____
ROOT
ATOM      1  C   UNL     1       3.436   4.043  18.340  0.00  0.00    +0.000 C 
ENDROOT
BRANCH   1   2
ATOM      2  C   UNL     1       2.841   5.263  18.996  0.00  0.00    +0.000 A 
ATOM      3  C   UNL     1       2.161   5.167  20.215  0.00  0.00    +0.000 A 
ATOM      4  C   UNL     1       1.567   6.300  20.790  0.00  0.00    +0.000 A 
ATOM      5  C   UNL     1       1.633   7.562  20.170  0.00  0.00    +0.000 A 
ATOM      6  C   UNL     1       2.335   7.636  18.953  0.00  0.00    +0.000 A 
ATOM      7  C   UNL     1       2.928   6.510  18.375  0.00  0.00    +0.000 A 
BRANCH   5   8
ATOM      8  C   UNL     1       0.992   8.765  20.759  0.00  0.00    +0.000 A 
ATOM      9  C   UNL     1       0.590   8.811  22.106  0.00  0.00    +0.000 A 
ATOM     10  C   UNL     1       0.003   9.957  22.655  0.00  0.00    +0.000 A 
ATOM     11  C   UNL     1      -0.188  11.090  21.871  0.00  0.00    +0.000 A 
ATOM     12  C   UNL     1       0.195  11.074  20.536  0.00  0.00    +0.000 A 
ATOM     13  C   UNL     1       0.770   9.923  19.986  0.00  0.00    +0.000 A 
ENDBRANCH   5   8
ENDBRANCH   1   2
BRANCH   1  15
ATOM     14  N   UNL     1       5.164   4.578  16.694  0.00  0.00    +0.000 N 
ATOM     15  C   UNL     1       4.906   4.216  18.002  0.00  0.00    +0.000 C 
ATOM     16  O   UNL     1       5.789   4.059  18.842  0.00  0.00    +0.000 OA
ATOM     17  H   UNL     1       4.411   4.610  16.021  0.00  0.00    +0.000 HD
BRANCH  14  19
ATOM     18  C   UNL     1       7.019   6.202  16.686  0.00  0.00    +0.000 C 
ATOM     19  C   UNL     1       6.520   4.823  16.236  0.00  0.00    +0.000 C 
BRANCH  19  20
ATOM     20  C   UNL     1       6.645   4.672  14.729  0.00  0.00    +0.000 A 
ATOM     21  C   UNL     1       5.843   3.732  14.062  0.00  0.00    +0.000 A 
ATOM     22  C   UNL     1       6.032   3.468  12.704  0.00  0.00    +0.000 A 
ATOM     23  C   UNL     1       7.015   4.149  11.992  0.00  0.00    +0.000 A 
ATOM     24  C   UNL     1       7.788   5.118  12.627  0.00  0.00    +0.000 A 
ATOM     25  C   UNL     1       7.598   5.387  13.985  0.00  0.00    +0.000 A 
ENDBRANCH  19  20
ENDBRANCH  14  19
ENDBRANCH   1  15
TORSDOF 5
ENDMDL
MODEL 7
REMARK VINA RESULT:      -8.1      3.488      7.181
REMARK  Name = 
REMARK  6 active torsions:
REMARK  status: ('A' for Active; 'I' for Inactive)
REMARK    1  A    between atoms: C_1  and  C_2
REMARK    2  A    between atoms: C_2  and  N_3
REMARK    3  A    between atoms: C_2  and  C_19
REMARK    4  A    between atoms: C_4  and  C_6
REMARK    5  A    between atoms: C_6  and  C_7
REMARK    6  A    between atoms: C_10  and  C_11
REMARK                            x       y       z     vdW  Elec       q    Type
REMARK                         _______ _______ _______ _____ _____    ______ ____
ROOT
ATOM      1  C   UNL     1       3.388   4.119  18.245  0.00  0.00    +0.000 C 
ENDROOT
BRANCH   1   2
ATOM      2  C   UNL     1       2.813   5.334  18.926  0.00  0.00    +0.000 A 
ATOM      3  C   UNL     1       2.216   5.239  20.189  0.00  0.00    +0.000 A 
ATOM      4  C   UNL     1       1.638   6.367  20.790  0.00  0.00    +0.000 A 
ATOM      5  C   UNL     1       1.638   7.622  20.155  0.00  0.00    +0.000 A 
ATOM      6  C   UNL     1       2.258   7.697  18.893  0.00  0.00    +0.000 A 
ATOM      7  C   UNL     1       2.834   6.575  18.288  0.00  0.00    +0.000 A 
BRANCH   5   8
ATOM      8  C   UNL     1       1.015   8.820  20.772  0.00  0.00    +0.000 A 
ATOM      9  C   UNL     1       0.847  10.023  20.062  0.00  0.00    +0.000 A 
ATOM     10  C   UNL     1       0.242  11.140  20.649  0.00  0.00    +0.000 A 
ATOM     11  C   UNL     1      -0.220  11.079  21.960  0.00  0.00    +0.000 A 
ATOM     12  C   UNL     1      -0.065   9.906  22.689  0.00  0.00    +0.000 A 
ATOM     13  C   UNL     1       0.551   8.794  22.104  0.00  0.00    +0.000 A 
ENDBRANCH   5   8
ENDBRANCH   1   2
BRANCH   1  15
ATOM     14  N   UNL     1       5.196   4.590  16.667  0.00  0.00    +0.000 N 
ATOM     15  C   UNL     1       4.874   4.250  17.967  0.00  0.00    +0.000 C 
ATOM     16  O   UNL     1       5.717   4.079  18.845  0.00  0.00    +0.000 OA
ATOM     17  H   UNL     1       4.472   4.634  15.963  0.00  0.00    +0.000 HD
BRANCH  14  19
ATOM     18  C   UNL     1       7.064   6.198  16.643  0.00  0.00    +0.000 C 
ATOM     19  C   UNL     1       6.576   4.794  16.263  0.00  0.00    +0.000 C 
BRANCH  19  20
ATOM     20  C   UNL     1       6.775   4.540  14.778  0.00  0.00    +0.000 A 
ATOM     21  C   UNL     1       7.734   5.287  14.074  0.00  0.00    +0.000 A 
ATOM     22  C   UNL     1       7.843   5.178  12.686  0.00  0.00    +0.000 A 
ATOM     23  C   UNL     1       7.008   4.313  11.986  0.00  0.00    +0.000 A 
ATOM     24  C   UNL     1       6.084   3.530  12.675  0.00  0.00    +0.000 A 
ATOM     25  C   UNL     1       5.975   3.633  14.064  0.00  0.00    +0.000 A 
ENDBRANCH  19  20
ENDBRANCH  14  19
ENDBRANCH   1  15
TORSDOF 5
ENDMDL
MODEL 8
REMARK VINA RESULT:      -8.0      1.255      2.543
REMARK  Name = 
REMARK  6 active torsions:
REMARK  status: ('A' for Active; 'I' for Inactive)
REMARK    1  A    between atoms: C_1  and  C_2
REMARK    2  A    between atoms: C_2  and  N_3
REMARK    3  A    between atoms: C_2  and  C_19
REMARK    4  A    between atoms: C_4  and  C_6
REMARK    5  A    between atoms: C_6  and  C_7
REMARK    6  A    between atoms: C_10  and  C_11
REMARK                            x       y       z     vdW  Elec       q    Type
REMARK                         _______ _______ _______ _____ _____    ______ ____
ROOT
ATOM      1  C   UNL     1       6.494   4.490  17.573  0.00  0.00    +0.000 C 
ENDROOT
BRANCH   1   2
ATOM      2  C   UNL     1       7.109   5.847  17.800  0.00  0.00    +0.000 A 
ATOM      3  C   UNL     1       7.962   6.081  18.884  0.00  0.00    +0.000 A 
ATOM      4  C   UNL     1       8.486   7.361  19.114  0.00  0.00    +0.000 A 
ATOM      5  C   UNL     1       8.180   8.446  18.272  0.00  0.00    +0.000 A 
ATOM      6  C   UNL     1       7.333   8.183  17.179  0.00  0.00    +0.000 A 
ATOM      7  C   UNL     1       6.805   6.909  16.946  0.00  0.00    +0.000 A 
BRANCH   5   8
ATOM      8  C   UNL     1       8.714   9.810  18.515  0.00  0.00    +0.000 A 
ATOM      9  C   UNL     1       9.572  10.093  19.594  0.00  0.00    +0.000 A 
ATOM     10  C   UNL     1      10.083  11.379  19.803  0.00  0.00    +0.000 A 
ATOM     11  C   UNL     1       9.756  12.413  18.932  0.00  0.00    +0.000 A 
ATOM     12  C   UNL     1       8.907  12.166  17.860  0.00  0.00    +0.000 A 
ATOM     13  C   UNL     1       8.387  10.883  17.660  0.00  0.00    +0.000 A 
ENDBRANCH   5   8
ENDBRANCH   1   2
BRANCH   1  15
ATOM     14  N   UNL     1       4.127   4.949  17.986  0.00  0.00    +0.000 N 
ATOM     15  C   UNL     1       5.248   4.262  18.410  0.00  0.00    +0.000 C 
ATOM     16  O   UNL     1       5.247   3.508  19.380  0.00  0.00    +0.000 OA
ATOM     17  H   UNL     1       4.202   5.623  17.235  0.00  0.00    +0.000 HD
BRANCH  14  19
ATOM     18  C   UNL     1       1.835   4.068  17.771  0.00  0.00    +0.000 C 
ATOM     19  C   UNL     1       2.851   4.795  18.661  0.00  0.00    +0.000 C 
BRANCH  19  20
ATOM     20  C   UNL     1       2.295   6.127  19.133  0.00  0.00    +0.000 A 
ATOM     21  C   UNL     1       2.369   7.244  18.285  0.00  0.00    +0.000 A 
ATOM     22  C   UNL     1       1.998   8.511  18.740  0.00  0.00    +0.000 A 
ATOM     23  C   UNL     1       1.535   8.677  20.042  0.00  0.00    +0.000 A 
ATOM     24  C   UNL     1       1.411   7.572  20.881  0.00  0.00    +0.000 A 
ATOM     25  C   UNL     1       1.778   6.303  20.428  0.00  0.00    +0.000 A 
ENDBRANCH  19  20
ENDBRANCH  14  19
ENDBRANCH   1  15
TORSDOF 5
ENDMDL
MODEL 9
REMARK VINA RESULT:      -8.0      4.377      6.682
REMARK  Name = 
REMARK  6 active torsions:
REMARK  status: ('A' for Active; 'I' for Inactive)
REMARK    1  A    between atoms: C_1  and  C_2
REMARK    2  A    between atoms: C_2  and  N_3
REMARK    3  A    between atoms: C_2  and  C_19
REMARK    4  A    between atoms: C_4  and  C_6
REMARK    5  A    between atoms: C_6  and  C_7
REMARK    6  A    between atoms: C_10  and  C_11
REMARK                            x       y       z     vdW  Elec       q    Type
REMARK                         _______ _______ _______ _____ _____    ______ ____
ROOT
ATOM      1  C   UNL     1       3.477   7.433  17.342  0.00  0.00    +0.000 C 
ENDROOT
BRANCH   1   2
ATOM      2  C   UNL     1       2.513   8.156  18.246  0.00  0.00    +0.000 A 
ATOM      3  C   UNL     1       1.933   9.369  17.861  0.00  0.00    +0.000 A 
ATOM      4  C   UNL     1       1.078  10.059  18.732  0.00  0.00    +0.000 A 
ATOM      5  C   UNL     1       0.772   9.562  20.012  0.00  0.00    +0.000 A 
ATOM      6  C   UNL     1       1.355   8.332  20.372  0.00  0.00    +0.000 A 
ATOM      7  C   UNL     1       2.210   7.642  19.508  0.00  0.00    +0.000 A 
BRANCH   5   8
ATOM      8  C   UNL     1      -0.117  10.291  20.951  0.00  0.00    +0.000 A 
ATOM      9  C   UNL     1      -0.250   9.910  22.299  0.00  0.00    +0.000 A 
ATOM     10  C   UNL     1      -1.079  10.615  23.179  0.00  0.00    +0.000 A 
ATOM     11  C   UNL     1      -1.789  11.726  22.736  0.00  0.00    +0.000 A 
ATOM     12  C   UNL     1      -1.682  12.124  21.409  0.00  0.00    +0.000 A 
ATOM     13  C   UNL     1      -0.863  11.411  20.527  0.00  0.00    +0.000 A 
ENDBRANCH   5   8
ENDBRANCH   1   2
BRANCH   1  15
ATOM     14  N   UNL     1       3.027   5.039  17.560  0.00  0.00    +0.000 N 
ATOM     15  C   UNL     1       3.884   6.074  17.882  0.00  0.00    +0.000 C 
ATOM     16  O   UNL     1       4.908   5.917  18.542  0.00  0.00    +0.000 OA
ATOM     17  H   UNL     1       2.154   5.234  17.089  0.00  0.00    +0.000 HD
BRANCH  14  19
ATOM     18  C   UNL     1       2.797   2.666  16.934  0.00  0.00    +0.000 C 
ATOM     19  C   UNL     1       3.310   3.674  17.969  0.00  0.00    +0.000 C 
BRANCH  19  20
ATOM     20  C   UNL     1       2.745   3.367  19.345  0.00  0.00    +0.000 A 
ATOM     21  C   UNL     1       3.562   2.744  20.302  0.00  0.00    +0.000 A 
ATOM     22  C   UNL     1       3.035   2.320  21.524  0.00  0.00    +0.000 A 
ATOM     23  C   UNL     1       1.689   2.526  21.811  0.00  0.00    +0.000 A 
ATOM     24  C   UNL     1       0.874   3.184  20.892  0.00  0.00    +0.000 A 
ATOM     25  C   UNL     1       1.401   3.612  19.671  0.00  0.00    +0.000 A 
ENDBRANCH  19  20
ENDBRANCH  14  19
ENDBRANCH   1  15
TORSDOF 5
ENDMDL
