MODEL 1
REMARK VINA RESULT:      -8.0      0.000      0.000
REMARK  Name = 
REMARK  3 active torsions:
REMARK  status: ('A' for Active; 'I' for Inactive)
REMARK    1  A    between atoms: N_12  and  C_13
REMARK    2  A    between atoms: C_16  and  N_17
REMARK    3  A    between atoms: C_20  and  C_21
REMARK                            x       y       z     vdW  Elec       q    Type
REMARK                         _______ _______ _______ _____ _____    ______ ____
ROOT
ATOM      1  C   UNL     1       2.383   6.952  18.664  0.00  0.00    +0.000 A 
ATOM      2  C   UNL     1       2.535   7.823  17.571  0.00  0.00    +0.000 A 
ATOM      3  C   UNL     1       2.078   9.144  17.622  0.00  0.00    +0.000 A 
ATOM      4  C   UNL     1       1.493   9.626  18.795  0.00  0.00    +0.000 A 
ATOM      5  C   UNL     1       1.360   8.819  19.929  0.00  0.00    +0.000 A 
ATOM      6  C   UNL     1       1.788   7.472  19.830  0.00  0.00    +0.000 A 
ENDROOT
BRANCH   1  18
ATOM      7  O   UNL     1       4.663   5.519  19.902  0.00  0.00    +0.000 OA
ATOM      8  C   UNL     1       3.911   5.037  19.064  0.00  0.00    +0.000 C 
ATOM      9  C   UNL     1       4.163   3.707  18.415  0.00  0.00    +0.000 C 
ATOM     10  C   UNL     1       4.316   2.456  19.301  0.00  0.00    +0.000 C 
ATOM     11  C   UNL     1       3.210   2.381  20.325  0.00  0.00    +0.000 C 
ATOM     12  C   UNL     1       2.065   2.166  19.662  0.00  0.00    +0.000 C 
ATOM     13  C   UNL     1       2.400   2.073  18.191  0.00  0.00    +0.000 C 
ATOM     14  C   UNL     1       3.771   1.385  18.336  0.00  0.00    +0.000 C 
ATOM     15  C   UNL     1       2.872   3.423  17.626  0.00  0.00    +0.000 C 
ATOM     16  C   UNL     1       2.018   4.638  17.830  0.00  0.00    +0.000 C 
ATOM     17  O   UNL     1       0.906   4.748  17.330  0.00  0.00    +0.000 OA
ATOM     18  N   UNL     1       2.747   5.578  18.539  0.00  0.00    +0.000 N 
ENDBRANCH   1  18
BRANCH   5  19
ATOM     19  C   UNL     1       0.834   9.311  21.253  0.00  0.00    +0.000 C 
ATOM     20  F   UNL     1       1.277  10.534  21.635  0.00  0.00    +0.000 F 
ATOM     21  F   UNL     1      -0.524   9.369  21.281  0.00  0.00    +0.000 F 
ATOM     22  F   UNL     1       1.191   8.471  22.265  0.00  0.00    +0.000 F 
ENDBRANCH   5  19
BRANCH   4  23
ATOM     23  N   UNL     1       0.991  10.987  18.766  0.00  0.00    +0.000 N 
ATOM     24  O   UNL     1       1.829  11.893  18.851  0.00  0.00    +0.000 OA
ATOM     25  O   UNL     1      -0.227  11.127  18.607  0.00  0.00    +0.000 OA
ENDBRANCH   4  23
TORSDOF 3
ENDMDL
MODEL 2
REMARK VINA RESULT:      -7.6      1.134      1.777
REMARK  Name = 
REMARK  3 active torsions:
REMARK  status: ('A' for Active; 'I' for Inactive)
REMARK    1  A    between atoms: N_12  and  C_13
REMARK    2  A    between atoms: C_16  and  N_17
REMARK    3  A    between atoms: C_20  and  C_21
REMARK                            x       y       z     vdW  Elec       q    Type
REMARK                         _______ _______ _______ _____ _____    ______ ____
ROOT
ATOM      1  C   UNL     1       2.180   7.390  19.245  0.00  0.00    +0.000 A 
ATOM      2  C   UNL     1       2.164   8.060  18.009  0.00  0.00    +0.000 A 
ATOM      3  C   UNL     1       1.580   9.323  17.872  0.00  0.00    +0.000 A 
ATOM      4  C   UNL     1       1.034   9.955  18.991  0.00  0.00    +0.000 A 
ATOM      5  C   UNL     1       1.066   9.357  20.254  0.00  0.00    +0.000 A 
ATOM      6  C   UNL     1       1.621   8.057  20.352  0.00  0.00    +0.000 A 
ENDROOT
BRANCH   1  18
ATOM      7  O   UNL     1       0.914   5.025  20.504  0.00  0.00    +0.000 OA
ATOM      8  C   UNL     1       2.052   5.046  20.051  0.00  0.00    +0.000 C 
ATOM      9  C   UNL     1       3.025   3.919  20.245  0.00  0.00    +0.000 C 
ATOM     10  C   UNL     1       2.639   2.505  19.772  0.00  0.00    +0.000 C 
ATOM     11  C   UNL     1       2.088   2.536  18.367  0.00  0.00    +0.000 C 
ATOM     12  C   UNL     1       3.093   2.884  17.551  0.00  0.00    +0.000 C 
ATOM     13  C   UNL     1       4.329   3.066  18.402  0.00  0.00    +0.000 C 
ATOM     14  C   UNL     1       4.037   1.955  19.429  0.00  0.00    +0.000 C 
ATOM     15  C   UNL     1       4.209   4.284  19.332  0.00  0.00    +0.000 C 
ATOM     16  C   UNL     1       3.851   5.617  18.747  0.00  0.00    +0.000 C 
ATOM     17  O   UNL     1       4.585   6.208  17.967  0.00  0.00    +0.000 OA
ATOM     18  N   UNL     1       2.671   6.053  19.326  0.00  0.00    +0.000 N 
ENDBRANCH   1  18
BRANCH   5  19
ATOM     19  C   UNL     1       0.589  10.032  21.515  0.00  0.00    +0.000 C 
ATOM     20  F   UNL     1       1.033  11.300  21.699  0.00  0.00    +0.000 F 
ATOM     21  F   UNL     1      -0.767  10.087  21.592  0.00  0.00    +0.000 F 
ATOM     22  F   UNL     1       0.997   9.348  22.621  0.00  0.00    +0.000 F 
ENDBRANCH   5  19
BRANCH   4  23
ATOM     23  N   UNL     1       0.396  11.241  18.773  0.00  0.00    +0.000 N 
ATOM     24  O   UNL     1       1.134  12.233  18.745  0.00  0.00    +0.000 OA
ATOM     25  O   UNL     1      -0.825  11.228  18.581  0.00  0.00    +0.000 OA
ENDBRANCH   4  23
TORSDOF 3
ENDMDL
MODEL 3
REMARK VINA RESULT:      -7.3      2.947      6.981
REMARK  Name = 
REMARK  3 active torsions:
REMARK  status: ('A' for Active; 'I' for Inactive)
REMARK    1  A    between atoms: N_12  and  C_13
REMARK    2  A    between atoms: C_16  and  N_17
REMARK    3  A    between atoms: C_20  and  C_21
REMARK                            x       y       z     vdW  Elec       q    Type
REMARK                         _______ _______ _______ _____ _____    ______ ____
ROOT
ATOM      1  C   UNL     1       2.370   6.913  19.218  0.00  0.00    +0.000 A 
ATOM      2  C   UNL     1       3.473   6.735  18.363  0.00  0.00    +0.000 A 
ATOM      3  C   UNL     1       4.133   5.506  18.271  0.00  0.00    +0.000 A 
ATOM      4  C   UNL     1       3.668   4.416  19.012  0.00  0.00    +0.000 A 
ATOM      5  C   UNL     1       2.548   4.523  19.840  0.00  0.00    +0.000 A 
ATOM      6  C   UNL     1       1.930   5.793  19.949  0.00  0.00    +0.000 A 
ENDROOT
BRANCH   1  18
ATOM      7  O   UNL     1       2.039   9.062  17.204  0.00  0.00    +0.000 OA
ATOM      8  C   UNL     1       1.804   9.187  18.400  0.00  0.00    +0.000 C 
ATOM      9  C   UNL     1       1.491  10.512  19.032  0.00  0.00    +0.000 C 
ATOM     10  C   UNL     1       0.305  11.336  18.499  0.00  0.00    +0.000 C 
ATOM     11  C   UNL     1      -0.928  10.478  18.355  0.00  0.00    +0.000 C 
ATOM     12  C   UNL     1      -1.314  10.121  19.588  0.00  0.00    +0.000 C 
ATOM     13  C   UNL     1      -0.354  10.757  20.568  0.00  0.00    +0.000 C 
ATOM     14  C   UNL     1      -0.107  12.066  19.793  0.00  0.00    +0.000 C 
ATOM     15  C   UNL     1       1.055  10.151  20.463  0.00  0.00    +0.000 C 
ATOM     16  C   UNL     1       1.218   8.664  20.556  0.00  0.00    +0.000 C 
ATOM     17  O   UNL     1       0.959   8.039  21.575  0.00  0.00    +0.000 OA
ATOM     18  N   UNL     1       1.795   8.208  19.382  0.00  0.00    +0.000 N 
ENDBRANCH   1  18
BRANCH   5  19
ATOM     19  C   UNL     1       1.938   3.360  20.581  0.00  0.00    +0.000 C 
ATOM     20  F   UNL     1       1.682   2.262  19.829  0.00  0.00    +0.000 F 
ATOM     21  F   UNL     1       2.712   2.942  21.617  0.00  0.00    +0.000 F 
ATOM     22  F   UNL     1       0.738   3.703  21.129  0.00  0.00    +0.000 F 
ENDBRANCH   5  19
BRANCH   4  23
ATOM     23  N   UNL     1       4.429   3.184  18.913  0.00  0.00    +0.000 N 
ATOM     24  O   UNL     1       5.279   2.981  19.788  0.00  0.00    +0.000 OA
ATOM     25  O   UNL     1       4.127   2.418  17.991  0.00  0.00    +0.000 OA
ENDBRANCH   4  23
TORSDOF 3
ENDMDL
MODEL 4
REMARK VINA RESULT:      -7.2      3.362      7.269
REMARK  Name = 
REMARK  3 active torsions:
REMARK  status: ('A' for Active; 'I' for Inactive)
REMARK    1  A    between atoms: N_12  and  C_13
REMARK    2  A    between atoms: C_16  and  N_17
REMARK    3  A    between atoms: C_20  and  C_21
REMARK                            x       y       z     vdW  Elec       q    Type
REMARK                         _______ _______ _______ _____ _____    ______ ____
ROOT
ATOM      1  C   UNL     1       2.252   7.430  19.375  0.00  0.00    +0.000 A 
ATOM      2  C   UNL     1       2.101   6.372  20.290  0.00  0.00    +0.000 A 
ATOM      3  C   UNL     1       2.772   5.158  20.118  0.00  0.00    +0.000 A 
ATOM      4  C   UNL     1       3.643   4.998  19.038  0.00  0.00    +0.000 A 
ATOM      5  C   UNL     1       3.869   6.032  18.124  0.00  0.00    +0.000 A 
ATOM      6  C   UNL     1       3.138   7.233  18.298  0.00  0.00    +0.000 A 
ENDROOT
BRANCH   1  18
ATOM      7  O   UNL     1       1.349   8.781  21.852  0.00  0.00    +0.000 OA
ATOM      8  C   UNL     1       0.990   9.088  20.723  0.00  0.00    +0.000 C 
ATOM      9  C   UNL     1      -0.108  10.078  20.459  0.00  0.00    +0.000 C 
ATOM     10  C   UNL     1       0.012  11.502  21.033  0.00  0.00    +0.000 C 
ATOM     11  C   UNL     1       1.375  12.086  20.748  0.00  0.00    +0.000 C 
ATOM     12  C   UNL     1       1.465  12.265  19.423  0.00  0.00    +0.000 C 
ATOM     13  C   UNL     1       0.154  11.823  18.814  0.00  0.00    +0.000 C 
ATOM     14  C   UNL     1      -0.770  12.282  19.958  0.00  0.00    +0.000 C 
ATOM     15  C   UNL     1      -0.052  10.305  18.938  0.00  0.00    +0.000 C 
ATOM     16  C   UNL     1       1.020   9.380  18.447  0.00  0.00    +0.000 C 
ATOM     17  O   UNL     1       1.328   9.303  17.265  0.00  0.00    +0.000 OA
ATOM     18  N   UNL     1       1.462   8.609  19.509  0.00  0.00    +0.000 N 
ENDBRANCH   1  18
BRANCH   5  19
ATOM     19  C   UNL     1       4.871   5.956  17.002  0.00  0.00    +0.000 C 
ATOM     20  F   UNL     1       6.164   5.808  17.386  0.00  0.00    +0.000 F 
ATOM     21  F   UNL     1       4.610   4.937  16.140  0.00  0.00    +0.000 F 
ATOM     22  F   UNL     1       4.853   7.093  16.250  0.00  0.00    +0.000 F 
ENDBRANCH   5  19
BRANCH   4  23
ATOM     23  N   UNL     1       4.266   3.696  18.885  0.00  0.00    +0.000 N 
ATOM     24  O   UNL     1       5.363   3.535  19.434  0.00  0.00    +0.000 OA
ATOM     25  O   UNL     1       3.624   2.843  18.263  0.00  0.00    +0.000 OA
ENDBRANCH   4  23
TORSDOF 3
ENDMDL
MODEL 5
REMARK VINA RESULT:      -7.2      3.421      7.266
REMARK  Name = 
REMARK  3 active torsions:
REMARK  status: ('A' for Active; 'I' for Inactive)
REMARK    1  A    between atoms: N_12  and  C_13
REMARK    2  A    between atoms: C_16  and  N_17
REMARK    3  A    between atoms: C_20  and  C_21
REMARK                            x       y       z     vdW  Elec       q    Type
REMARK                         _______ _______ _______ _____ _____    ______ ____
ROOT
ATOM      1  C   UNL     1       2.340   7.228  19.347  0.00  0.00    +0.000 A 
ATOM      2  C   UNL     1       2.112   6.248  20.330  0.00  0.00    +0.000 A 
ATOM      3  C   UNL     1       2.645   4.961  20.214  0.00  0.00    +0.000 A 
ATOM      4  C   UNL     1       3.454   4.646  19.120  0.00  0.00    +0.000 A 
ATOM      5  C   UNL     1       3.754   5.594  18.138  0.00  0.00    +0.000 A 
ATOM      6  C   UNL     1       3.160   6.875  18.258  0.00  0.00    +0.000 A 
ENDROOT
BRANCH   1  18
ATOM      7  O   UNL     1       2.031   9.298  17.250  0.00  0.00    +0.000 OA
ATOM      8  C   UNL     1       1.706   9.442  18.421  0.00  0.00    +0.000 C 
ATOM      9  C   UNL     1       1.275  10.763  18.990  0.00  0.00    +0.000 C 
ATOM     10  C   UNL     1       0.084  11.502  18.351  0.00  0.00    +0.000 C 
ATOM     11  C   UNL     1      -1.085  10.570  18.149  0.00  0.00    +0.000 C 
ATOM     12  C   UNL     1      -1.536  10.224  19.364  0.00  0.00    +0.000 C 
ATOM     13  C   UNL     1      -0.685  10.941  20.386  0.00  0.00    +0.000 C 
ATOM     14  C   UNL     1      -0.458  12.241  19.590  0.00  0.00    +0.000 C 
ATOM     15  C   UNL     1       0.760  10.416  20.398  0.00  0.00    +0.000 C 
ATOM     16  C   UNL     1       1.000   8.944  20.548  0.00  0.00    +0.000 C 
ATOM     17  O   UNL     1       0.705   8.333  21.565  0.00  0.00    +0.000 OA
ATOM     18  N   UNL     1       1.683   8.491  19.431  0.00  0.00    +0.000 N 
ENDBRANCH   1  18
BRANCH   5  19
ATOM     19  C   UNL     1       4.702   5.345  16.993  0.00  0.00    +0.000 C 
ATOM     20  F   UNL     1       4.391   4.290  16.199  0.00  0.00    +0.000 F 
ATOM     21  F   UNL     1       4.816   6.422  16.170  0.00  0.00    +0.000 F 
ATOM     22  F   UNL     1       5.962   5.089  17.446  0.00  0.00    +0.000 F 
ENDBRANCH   5  19
BRANCH   4  23
ATOM     23  N   UNL     1       3.932   3.278  19.030  0.00  0.00    +0.000 N 
ATOM     24  O   UNL     1       4.993   3.018  19.608  0.00  0.00    +0.000 OA
ATOM     25  O   UNL     1       3.209   2.477  18.426  0.00  0.00    +0.000 OA
ENDBRANCH   4  23
TORSDOF 3
ENDMDL
MODEL 6
REMARK VINA RESULT:      -7.1      1.973      3.001
REMARK  Name = 
REMARK  3 active torsions:
REMARK  status: ('A' for Active; 'I' for Inactive)
REMARK    1  A    between atoms: N_12  and  C_13
REMARK    2  A    between atoms: C_16  and  N_17
REMARK    3  A    between atoms: C_20  and  C_21
REMARK                            x       y       z     vdW  Elec       q    Type
REMARK                         _______ _______ _______ _____ _____    ______ ____
ROOT
ATOM      1  C   UNL     1       1.825   6.957  20.095  0.00  0.00    +0.000 A 
ATOM      2  C   UNL     1       1.317   7.269  21.369  0.00  0.00    +0.000 A 
ATOM      3  C   UNL     1       0.877   8.558  21.683  0.00  0.00    +0.000 A 
ATOM      4  C   UNL     1       0.904   9.553  20.703  0.00  0.00    +0.000 A 
ATOM      5  C   UNL     1       1.353   9.288  19.407  0.00  0.00    +0.000 A 
ATOM      6  C   UNL     1       1.837   7.985  19.133  0.00  0.00    +0.000 A 
ENDROOT
BRANCH   1  18
ATOM      7  O   UNL     1       0.583   4.297  20.498  0.00  0.00    +0.000 OA
ATOM      8  C   UNL     1       1.754   4.478  20.186  0.00  0.00    +0.000 C 
ATOM      9  C   UNL     1       2.766   3.369  20.149  0.00  0.00    +0.000 C 
ATOM     10  C   UNL     1       2.501   2.141  19.258  0.00  0.00    +0.000 C 
ATOM     11  C   UNL     1       2.076   2.560  17.872  0.00  0.00    +0.000 C 
ATOM     12  C   UNL     1       3.129   3.155  17.293  0.00  0.00    +0.000 C 
ATOM     13  C   UNL     1       4.272   3.118  18.280  0.00  0.00    +0.000 C 
ATOM     14  C   UNL     1       3.952   1.751  18.915  0.00  0.00    +0.000 C 
ATOM     15  C   UNL     1       4.005   4.013  19.501  0.00  0.00    +0.000 C 
ATOM     16  C   UNL     1       3.628   5.448  19.285  0.00  0.00    +0.000 C 
ATOM     17  O   UNL     1       4.395   6.258  18.782  0.00  0.00    +0.000 OA
ATOM     18  N   UNL     1       2.379   5.667  19.843  0.00  0.00    +0.000 N 
ENDBRANCH   1  18
BRANCH   5  19
ATOM     19  C   UNL     1       1.309  10.290  18.281  0.00  0.00    +0.000 C 
ATOM     20  F   UNL     1       0.070  10.723  17.937  0.00  0.00    +0.000 F 
ATOM     21  F   UNL     1       2.042  11.403  18.549  0.00  0.00    +0.000 F 
ATOM     22  F   UNL     1       1.832   9.766  17.137  0.00  0.00    +0.000 F 
ENDBRANCH   5  19
BRANCH   4  23
ATOM     23  N   UNL     1       0.485  10.883  21.108  0.00  0.00    +0.000 N 
ATOM     24  O   UNL     1      -0.728  11.123  21.066  0.00  0.00    +0.000 OA
ATOM     25  O   UNL     1       1.371  11.646  21.510  0.00  0.00    +0.000 OA
ENDBRANCH   4  23
TORSDOF 3
ENDMDL
MODEL 7
REMARK VINA RESULT:      -7.0      1.229      1.422
REMARK  Name = 
REMARK  3 active torsions:
REMARK  status: ('A' for Active; 'I' for Inactive)
REMARK    1  A    between atoms: N_12  and  C_13
REMARK    2  A    between atoms: C_16  and  N_17
REMARK    3  A    between atoms: C_20  and  C_21
REMARK                            x       y       z     vdW  Elec       q    Type
REMARK                         _______ _______ _______ _____ _____    ______ ____
ROOT
ATOM      1  C   UNL     1       1.995   7.243  19.054  0.00  0.00    +0.000 A 
ATOM      2  C   UNL     1       2.039   8.198  18.021  0.00  0.00    +0.000 A 
ATOM      3  C   UNL     1       1.615   9.514  18.227  0.00  0.00    +0.000 A 
ATOM      4  C   UNL     1       1.174   9.906  19.493  0.00  0.00    +0.000 A 
ATOM      5  C   UNL     1       1.155   9.012  20.568  0.00  0.00    +0.000 A 
ATOM      6  C   UNL     1       1.545   7.674  20.316  0.00  0.00    +0.000 A 
ENDROOT
BRANCH   1  18
ATOM      7  O   UNL     1       4.113   6.159  17.288  0.00  0.00    +0.000 OA
ATOM      8  C   UNL     1       3.253   5.483  17.837  0.00  0.00    +0.000 C 
ATOM      9  C   UNL     1       3.047   4.027  17.534  0.00  0.00    +0.000 C 
ATOM     10  C   UNL     1       4.224   3.049  17.713  0.00  0.00    +0.000 C 
ATOM     11  C   UNL     1       4.900   3.256  19.046  0.00  0.00    +0.000 C 
ATOM     12  C   UNL     1       4.030   2.887  19.997  0.00  0.00    +0.000 C 
ATOM     13  C   UNL     1       2.774   2.410  19.305  0.00  0.00    +0.000 C 
ATOM     14  C   UNL     1       3.446   1.769  18.076  0.00  0.00    +0.000 C 
ATOM     15  C   UNL     1       2.038   3.561  18.599  0.00  0.00    +0.000 C 
ATOM     16  C   UNL     1       1.696   4.795  19.376  0.00  0.00    +0.000 C 
ATOM     17  O   UNL     1       0.907   4.783  20.311  0.00  0.00    +0.000 OA
ATOM     18  N   UNL     1       2.317   5.880  18.781  0.00  0.00    +0.000 N 
ENDBRANCH   1  18
BRANCH   5  19
ATOM     19  C   UNL     1       0.789   9.402  21.977  0.00  0.00    +0.000 C 
ATOM     20  F   UNL     1       0.451  10.704  22.151  0.00  0.00    +0.000 F 
ATOM     21  F   UNL     1      -0.246   8.670  22.466  0.00  0.00    +0.000 F 
ATOM     22  F   UNL     1       1.831   9.190  22.830  0.00  0.00    +0.000 F 
ENDBRANCH   5  19
BRANCH   4  23
ATOM     23  N   UNL     1       0.697  11.270  19.627  0.00  0.00    +0.000 N 
ATOM     24  O   UNL     1       1.546  12.139  19.858  0.00  0.00    +0.000 OA
ATOM     25  O   UNL     1      -0.513  11.455  19.449  0.00  0.00    +0.000 OA
ENDBRANCH   4  23
TORSDOF 3
ENDMDL
MODEL 8
REMARK VINA RESULT:      -7.0      2.276      3.106
REMARK  Name = 
REMARK  3 active torsions:
REMARK  status: ('A' for Active; 'I' for Inactive)
REMARK    1  A    between atoms: N_12  and  C_13
REMARK    2  A    between atoms: C_16  and  N_17
REMARK    3  A    between atoms: C_20  and  C_21
REMARK                            x       y       z     vdW  Elec       q    Type
REMARK                         _______ _______ _______ _____ _____    ______ ____
ROOT
ATOM      1  C   UNL     1       1.609   7.855  20.151  0.00  0.00    +0.000 A 
ATOM      2  C   UNL     1       1.674   8.193  21.515  0.00  0.00    +0.000 A 
ATOM      3  C   UNL     1       1.117   9.380  22.000  0.00  0.00    +0.000 A 
ATOM      4  C   UNL     1       0.447  10.235  21.123  0.00  0.00    +0.000 A 
ATOM      5  C   UNL     1       0.310   9.927  19.766  0.00  0.00    +0.000 A 
ATOM      6  C   UNL     1       0.926   8.741  19.296  0.00  0.00    +0.000 A 
ENDROOT
BRANCH   1  18
ATOM      7  O   UNL     1       1.488   5.073  21.164  0.00  0.00    +0.000 OA
ATOM      8  C   UNL     1       2.259   5.464  20.297  0.00  0.00    +0.000 C 
ATOM      9  C   UNL     1       3.379   4.618  19.763  0.00  0.00    +0.000 C 
ATOM     10  C   UNL     1       3.053   3.245  19.147  0.00  0.00    +0.000 C 
ATOM     11  C   UNL     1       1.911   3.349  18.166  0.00  0.00    +0.000 C 
ATOM     12  C   UNL     1       2.343   4.074  17.124  0.00  0.00    +0.000 C 
ATOM     13  C   UNL     1       3.785   4.439  17.391  0.00  0.00    +0.000 C 
ATOM     14  C   UNL     1       4.195   3.144  18.117  0.00  0.00    +0.000 C 
ATOM     15  C   UNL     1       3.918   5.421  18.566  0.00  0.00    +0.000 C 
ATOM     16  C   UNL     1       3.116   6.687  18.554  0.00  0.00    +0.000 C 
ATOM     17  O   UNL     1       3.290   7.566  17.721  0.00  0.00    +0.000 OA
ATOM     18  N   UNL     1       2.292   6.700  19.668  0.00  0.00    +0.000 N 
ENDBRANCH   1  18
BRANCH   5  19
ATOM     19  C   UNL     1      -0.489  10.756  18.794  0.00  0.00    +0.000 C 
ATOM     20  F   UNL     1      -1.763  11.029  19.172  0.00  0.00    +0.000 F 
ATOM     21  F   UNL     1       0.096  11.955  18.531  0.00  0.00    +0.000 F 
ATOM     22  F   UNL     1      -0.604  10.126  17.590  0.00  0.00    +0.000 F 
ENDBRANCH   5  19
BRANCH   4  23
ATOM     23  N   UNL     1      -0.061  11.476  21.678  0.00  0.00    +0.000 N 
ATOM     24  O   UNL     1      -1.180  11.436  22.204  0.00  0.00    +0.000 OA
ATOM     25  O   UNL     1       0.689  12.457  21.623  0.00  0.00    +0.000 OA
ENDBRANCH   4  23
TORSDOF 3
ENDMDL
MODEL 9
REMARK VINA RESULT:      -7.0      2.468      3.375
REMARK  Name = 
REMARK  3 active torsions:
REMARK  status: ('A' for Active; 'I' for Inactive)
REMARK    1  A    between atoms: N_12  and  C_13
REMARK    2  A    between atoms: C_16  and  N_17
REMARK    3  A    between atoms: C_20  and  C_21
REMARK                            x       y       z     vdW  Elec       q    Type
REMARK                         _______ _______ _______ _____ _____    ______ ____
ROOT
ATOM      1  C   UNL     1       1.573   8.035  19.996  0.00  0.00    +0.000 A 
ATOM      2  C   UNL     1       1.674   8.213  21.388  0.00  0.00    +0.000 A 
ATOM      3  C   UNL     1       1.090   9.310  22.027  0.00  0.00    +0.000 A 
ATOM      4  C   UNL     1       0.356  10.234  21.279  0.00  0.00    +0.000 A 
ATOM      5  C   UNL     1       0.182  10.081  19.901  0.00  0.00    +0.000 A 
ATOM      6  C   UNL     1       0.826   8.985  19.274  0.00  0.00    +0.000 A 
ENDROOT
BRANCH   1  18
ATOM      7  O   UNL     1       3.331   8.153  17.614  0.00  0.00    +0.000 OA
ATOM      8  C   UNL     1       2.980   7.119  18.168  0.00  0.00    +0.000 C 
ATOM      9  C   UNL     1       3.248   5.757  17.595  0.00  0.00    +0.000 C 
ATOM     10  C   UNL     1       4.700   5.345  17.287  0.00  0.00    +0.000 C 
ATOM     11  C   UNL     1       5.607   5.653  18.453  0.00  0.00    +0.000 C 
ATOM     12  C   UNL     1       5.251   4.844  19.461  0.00  0.00    +0.000 C 
ATOM     13  C   UNL     1       4.117   3.974  18.969  0.00  0.00    +0.000 C 
ATOM     14  C   UNL     1       4.591   3.824  17.510  0.00  0.00    +0.000 C 
ATOM     15  C   UNL     1       2.838   4.789  18.719  0.00  0.00    +0.000 C 
ATOM     16  C   UNL     1       2.306   5.666  19.812  0.00  0.00    +0.000 C 
ATOM     17  O   UNL     1       1.885   5.214  20.868  0.00  0.00    +0.000 OA
ATOM     18  N   UNL     1       2.281   6.974  19.358  0.00  0.00    +0.000 N 
ENDBRANCH   1  18
BRANCH   5  19
ATOM     19  C   UNL     1      -0.683  10.984  19.059  0.00  0.00    +0.000 C 
ATOM     20  F   UNL     1      -1.915  11.243  19.563  0.00  0.00    +0.000 F 
ATOM     21  F   UNL     1      -0.103  12.191  18.829  0.00  0.00    +0.000 F 
ATOM     22  F   UNL     1      -0.910  10.440  17.830  0.00  0.00    +0.000 F 
ENDBRANCH   5  19
BRANCH   4  23
ATOM     23  N   UNL     1      -0.178  11.379  21.993  0.00  0.00    +0.000 N 
ATOM     24  O   UNL     1      -1.193  11.188  22.674  0.00  0.00    +0.000 OA
ATOM     25  O   UNL     1       0.456  12.436  21.901  0.00  0.00    +0.000 OA
ENDBRANCH   4  23
TORSDOF 3
ENDMDL
