MODEL 1
REMARK VINA RESULT:      -8.6      0.000      0.000
REMARK  Name = 
REMARK  5 active torsions:
REMARK  status: ('A' for Active; 'I' for Inactive)
REMARK    1  A    between atoms: C_2  and  C_19
REMARK    2  A    between atoms: C_7  and  S_8
REMARK    3  A    between atoms: S_8  and  C_11
REMARK    4  A    between atoms: C_11  and  C_12
REMARK    5  A    between atoms: C_21  and  C_22
REMARK                            x       y       z     vdW  Elec       q    Type
REMARK                         _______ _______ _______ _____ _____    ______ ____
ROOT
ATOM      1  O   UNL     1       1.245   9.229  21.748  0.00  0.00    +0.000 OA
ATOM      2  C   UNL     1       1.325   9.157  20.510  0.00  0.00    +0.000 C 
ATOM      3  N   UNL     1       1.463   7.872  20.024  0.00  0.00    +0.000 N 
ATOM      4  C   UNL     1       2.244   7.269  19.068  0.00  0.00    +0.000 A 
ATOM      5  N   UNL     1       2.309   5.952  18.973  0.00  0.00    +0.000 NA
ATOM      6  N   UNL     1       3.258   5.516  18.063  0.00  0.00    +0.000 NA
ATOM      7  C   UNL     1       3.866   6.541  17.508  0.00  0.00    +0.000 A 
ATOM      8  S   UNL     1       3.314   8.072  18.040  0.00  0.00    +0.000 S 
ATOM      9  H   UNL     1       1.275   7.194  20.759  0.00  0.00    +0.000 HD
ENDROOT
BRANCH   2  10
ATOM     10  C   UNL     1       0.654  10.284  19.769  0.00  0.00    +0.000 A 
ATOM     11  C   UNL     1       0.941  11.492  20.443  0.00  0.00    +0.000 A 
ATOM     12  C   UNL     1      -0.093  12.385  20.433  0.00  0.00    +0.000 A 
ATOM     13  N   UNL     1      -0.397  12.739  19.187  0.00  0.00    +0.000 NA
ATOM     14  C   UNL     1      -0.736  11.698  18.415  0.00  0.00    +0.000 A 
ATOM     15  C   UNL     1      -1.754  11.953  17.510  0.00  0.00    +0.000 A 
ATOM     16  C   UNL     1      -2.350  10.925  16.798  0.00  0.00    +0.000 A 
ATOM     17  C   UNL     1      -1.805   9.654  16.883  0.00  0.00    +0.000 A 
ATOM     18  C   UNL     1      -0.736   9.393  17.759  0.00  0.00    +0.000 A 
ATOM     19  C   UNL     1      -0.250  10.382  18.654  0.00  0.00    +0.000 A 
BRANCH  12  20
ATOM     20  C   UNL     1      -1.373  12.041  21.192  0.00  0.00    +0.000 A 
ATOM     21  C   UNL     1      -2.596  12.673  20.897  0.00  0.00    +0.000 A 
ATOM     22  C   UNL     1      -3.511  12.947  21.916  0.00  0.00    +0.000 A 
ATOM     23  C   UNL     1      -3.253  12.525  23.217  0.00  0.00    +0.000 A 
ATOM     24  C   UNL     1      -2.146  11.725  23.479  0.00  0.00    +0.000 A 
ATOM     25  C   UNL     1      -1.248  11.431  22.455  0.00  0.00    +0.000 A 
ENDBRANCH  12  20
ENDBRANCH   2  10
BRANCH   7  26
ATOM     26  S   UNL     1       5.193   6.464  16.347  0.00  0.00    +0.000 S 
ATOM     27  O   UNL     1       4.737   7.229  15.215  0.00  0.00    +0.000 OA
ATOM     28  O   UNL     1       6.362   6.898  17.097  0.00  0.00    +0.000 OA
BRANCH  26  29
ATOM     29  C   UNL     1       5.344   4.745  15.911  0.00  0.00    +0.000 C 
BRANCH  29  30
ATOM     30  C   UNL     1       5.908   4.469  14.517  0.00  0.00    +0.000 A 
ATOM     31  C   UNL     1       5.336   3.632  13.554  0.00  0.00    +0.000 A 
ATOM     32  C   UNL     1       5.939   3.444  12.301  0.00  0.00    +0.000 A 
ATOM     33  C   UNL     1       7.131   4.087  11.977  0.00  0.00    +0.000 A 
ATOM     34  C   UNL     1       7.728   4.924  12.917  0.00  0.00    +0.000 A 
ATOM     35  C   UNL     1       7.122   5.109  14.170  0.00  0.00    +0.000 A 
ENDBRANCH  29  30
ENDBRANCH  26  29
ENDBRANCH   7  26
TORSDOF 5
ENDMDL
MODEL 2
REMARK VINA RESULT:      -8.2      2.362      3.999
REMARK  Name = 
REMARK  5 active torsions:
REMARK  status: ('A' for Active; 'I' for Inactive)
REMARK    1  A    between atoms: C_2  and  C_19
REMARK    2  A    between atoms: C_7  and  S_8
REMARK    3  A    between atoms: S_8  and  C_11
REMARK    4  A    between atoms: C_11  and  C_12
REMARK    5  A    between atoms: C_21  and  C_22
REMARK                            x       y       z     vdW  Elec       q    Type
REMARK                         _______ _______ _______ _____ _____    ______ ____
ROOT
ATOM      1  O   UNL     1      -1.135   9.948  17.004  0.00  0.00    +0.000 OA
ATOM      2  C   UNL     1      -0.322   9.754  17.923  0.00  0.00    +0.000 C 
ATOM      3  N   UNL     1       0.963   9.481  17.497  0.00  0.00    +0.000 N 
ATOM      4  C   UNL     1       1.935   8.576  17.848  0.00  0.00    +0.000 A 
ATOM      5  N   UNL     1       3.011   8.407  17.098  0.00  0.00    +0.000 NA
ATOM      6  N   UNL     1       3.807   7.352  17.515  0.00  0.00    +0.000 NA
ATOM      7  C   UNL     1       3.284   6.774  18.573  0.00  0.00    +0.000 A 
ATOM      8  S   UNL     1       1.827   7.481  19.127  0.00  0.00    +0.000 S 
ATOM      9  H   UNL     1       1.056   9.683  16.505  0.00  0.00    +0.000 HD
ENDROOT
BRANCH   2  10
ATOM     10  C   UNL     1      -0.666  10.436  19.221  0.00  0.00    +0.000 A 
ATOM     11  C   UNL     1      -1.013  11.777  18.941  0.00  0.00    +0.000 A 
ATOM     12  C   UNL     1      -0.605  12.661  19.899  0.00  0.00    +0.000 A 
ATOM     13  N   UNL     1      -1.177  12.385  21.069  0.00  0.00    +0.000 NA
ATOM     14  C   UNL     1      -0.910  11.146  21.502  0.00  0.00    +0.000 A 
ATOM     15  C   UNL     1      -0.727  11.036  22.872  0.00  0.00    +0.000 A 
ATOM     16  C   UNL     1      -0.241   9.868  23.436  0.00  0.00    +0.000 A 
ATOM     17  C   UNL     1      -0.091   8.752  22.628  0.00  0.00    +0.000 A 
ATOM     18  C   UNL     1      -0.325   8.836  21.244  0.00  0.00    +0.000 A 
ATOM     19  C   UNL     1      -0.616  10.074  20.613  0.00  0.00    +0.000 A 
BRANCH  12  20
ATOM     20  C   UNL     1       0.891  12.889  20.104  0.00  0.00    +0.000 A 
ATOM     21  C   UNL     1       1.376  13.681  21.163  0.00  0.00    +0.000 A 
ATOM     22  C   UNL     1       2.517  14.468  20.989  0.00  0.00    +0.000 A 
ATOM     23  C   UNL     1       3.226  14.413  19.792  0.00  0.00    +0.000 A 
ATOM     24  C   UNL     1       2.870  13.487  18.818  0.00  0.00    +0.000 A 
ATOM     25  C   UNL     1       1.747  12.683  19.005  0.00  0.00    +0.000 A 
ENDBRANCH  12  20
ENDBRANCH   2  10
BRANCH   7  26
ATOM     26  S   UNL     1       3.914   5.348  19.400  0.00  0.00    +0.000 S 
ATOM     27  O   UNL     1       5.254   5.706  19.786  0.00  0.00    +0.000 OA
ATOM     28  O   UNL     1       2.918   5.044  20.417  0.00  0.00    +0.000 OA
BRANCH  26  29
ATOM     29  C   UNL     1       3.948   4.062  18.169  0.00  0.00    +0.000 C 
BRANCH  29  30
ATOM     30  C   UNL     1       4.967   4.257  17.046  0.00  0.00    +0.000 A 
ATOM     31  C   UNL     1       4.684   4.274  15.677  0.00  0.00    +0.000 A 
ATOM     32  C   UNL     1       5.697   4.458  14.725  0.00  0.00    +0.000 A 
ATOM     33  C   UNL     1       7.023   4.628  15.114  0.00  0.00    +0.000 A 
ATOM     34  C   UNL     1       7.339   4.609  16.471  0.00  0.00    +0.000 A 
ATOM     35  C   UNL     1       6.322   4.426  17.421  0.00  0.00    +0.000 A 
ENDBRANCH  29  30
ENDBRANCH  26  29
ENDBRANCH   7  26
TORSDOF 5
ENDMDL
MODEL 3
REMARK VINA RESULT:      -7.9      0.615      1.045
REMARK  Name = 
REMARK  5 active torsions:
REMARK  status: ('A' for Active; 'I' for Inactive)
REMARK    1  A    between atoms: C_2  and  C_19
REMARK    2  A    between atoms: C_7  and  S_8
REMARK    3  A    between atoms: S_8  and  C_11
REMARK    4  A    between atoms: C_11  and  C_12
REMARK    5  A    between atoms: C_21  and  C_22
REMARK                            x       y       z     vdW  Elec       q    Type
REMARK                         _______ _______ _______ _____ _____    ______ ____
ROOT
ATOM      1  O   UNL     1       1.196   9.120  21.617  0.00  0.00    +0.000 OA
ATOM      2  C   UNL     1       1.327   9.063  20.383  0.00  0.00    +0.000 C 
ATOM      3  N   UNL     1       1.461   7.782  19.884  0.00  0.00    +0.000 N 
ATOM      4  C   UNL     1       2.270   7.177  18.954  0.00  0.00    +0.000 A 
ATOM      5  N   UNL     1       2.314   5.860  18.843  0.00  0.00    +0.000 NA
ATOM      6  N   UNL     1       3.292   5.418  17.966  0.00  0.00    +0.000 NA
ATOM      7  C   UNL     1       3.941   6.439  17.452  0.00  0.00    +0.000 A 
ATOM      8  S   UNL     1       3.397   7.972  17.983  0.00  0.00    +0.000 S 
ATOM      9  H   UNL     1       1.229   7.098  20.601  0.00  0.00    +0.000 HD
ENDROOT
BRANCH   2  10
ATOM     10  C   UNL     1       0.710  10.212  19.631  0.00  0.00    +0.000 A 
ATOM     11  C   UNL     1       1.485  11.369  19.871  0.00  0.00    +0.000 A 
ATOM     12  C   UNL     1       0.747  12.516  19.960  0.00  0.00    +0.000 A 
ATOM     13  N   UNL     1       0.105  12.752  18.819  0.00  0.00    +0.000 NA
ATOM     14  C   UNL     1      -0.714  11.753  18.463  0.00  0.00    +0.000 A 
ATOM     15  C   UNL     1      -1.903  12.159  17.878  0.00  0.00    +0.000 A 
ATOM     16  C   UNL     1      -2.931  11.259  17.653  0.00  0.00    +0.000 A 
ATOM     17  C   UNL     1      -2.695   9.911  17.873  0.00  0.00    +0.000 A 
ATOM     18  C   UNL     1      -1.472   9.481  18.418  0.00  0.00    +0.000 A 
ATOM     19  C   UNL     1      -0.487  10.405  18.855  0.00  0.00    +0.000 A 
BRANCH  12  20
ATOM     20  C   UNL     1      -0.217  12.684  21.132  0.00  0.00    +0.000 A 
ATOM     21  C   UNL     1      -0.317  11.712  22.148  0.00  0.00    +0.000 A 
ATOM     22  C   UNL     1      -1.548  11.447  22.751  0.00  0.00    +0.000 A 
ATOM     23  C   UNL     1      -2.669  12.199  22.408  0.00  0.00    +0.000 A 
ATOM     24  C   UNL     1      -2.536  13.290  21.556  0.00  0.00    +0.000 A 
ATOM     25  C   UNL     1      -1.300  13.569  20.976  0.00  0.00    +0.000 A 
ENDBRANCH  12  20
ENDBRANCH   2  10
BRANCH   7  26
ATOM     26  S   UNL     1       5.315   6.352  16.347  0.00  0.00    +0.000 S 
ATOM     27  O   UNL     1       4.923   7.145  15.209  0.00  0.00    +0.000 OA
ATOM     28  O   UNL     1       6.460   6.747  17.153  0.00  0.00    +0.000 OA
BRANCH  26  29
ATOM     29  C   UNL     1       5.447   4.637  15.888  0.00  0.00    +0.000 C 
BRANCH  29  30
ATOM     30  C   UNL     1       5.941   4.375  14.465  0.00  0.00    +0.000 A 
ATOM     31  C   UNL     1       5.292   3.595  13.503  0.00  0.00    +0.000 A 
ATOM     32  C   UNL     1       5.835   3.415  12.223  0.00  0.00    +0.000 A 
ATOM     33  C   UNL     1       7.044   4.009  11.868  0.00  0.00    +0.000 A 
ATOM     34  C   UNL     1       7.718   4.787  12.806  0.00  0.00    +0.000 A 
ATOM     35  C   UNL     1       7.171   4.965  14.086  0.00  0.00    +0.000 A 
ENDBRANCH  29  30
ENDBRANCH  26  29
ENDBRANCH   7  26
TORSDOF 5
ENDMDL
MODEL 4
REMARK VINA RESULT:      -7.9      2.659      3.507
REMARK  Name = 
REMARK  5 active torsions:
REMARK  status: ('A' for Active; 'I' for Inactive)
REMARK    1  A    between atoms: C_2  and  C_19
REMARK    2  A    between atoms: C_7  and  S_8
REMARK    3  A    between atoms: S_8  and  C_11
REMARK    4  A    between atoms: C_11  and  C_12
REMARK    5  A    between atoms: C_21  and  C_22
REMARK                            x       y       z     vdW  Elec       q    Type
REMARK                         _______ _______ _______ _____ _____    ______ ____
ROOT
ATOM      1  O   UNL     1       0.400  10.351  23.095  0.00  0.00    +0.000 OA
ATOM      2  C   UNL     1       0.408  10.013  21.899  0.00  0.00    +0.000 C 
ATOM      3  N   UNL     1       0.474   8.649  21.696  0.00  0.00    +0.000 N 
ATOM      4  C   UNL     1       1.180   7.821  20.857  0.00  0.00    +0.000 A 
ATOM      5  N   UNL     1       1.193   6.512  21.045  0.00  0.00    +0.000 NA
ATOM      6  N   UNL     1       2.074   5.849  20.205  0.00  0.00    +0.000 NA
ATOM      7  C   UNL     1       2.685   6.703  19.415  0.00  0.00    +0.000 A 
ATOM      8  S   UNL     1       2.218   8.336  19.631  0.00  0.00    +0.000 S 
ATOM      9  H   UNL     1       0.304   8.153  22.567  0.00  0.00    +0.000 HD
ENDROOT
BRANCH   2  10
ATOM     10  C   UNL     1      -0.262  10.986  20.966  0.00  0.00    +0.000 A 
ATOM     11  C   UNL     1      -0.230  12.267  21.560  0.00  0.00    +0.000 A 
ATOM     12  C   UNL     1      -1.346  13.015  21.313  0.00  0.00    +0.000 A 
ATOM     13  N   UNL     1      -1.487  13.234  20.008  0.00  0.00    +0.000 NA
ATOM     14  C   UNL     1      -1.573  12.104  19.294  0.00  0.00    +0.000 A 
ATOM     15  C   UNL     1      -2.457  12.157  18.227  0.00  0.00    +0.000 A 
ATOM     16  C   UNL     1      -2.808  11.011  17.533  0.00  0.00    +0.000 A 
ATOM     17  C   UNL     1      -2.138   9.832  17.816  0.00  0.00    +0.000 A 
ATOM     18  C   UNL     1      -1.199   9.777  18.862  0.00  0.00    +0.000 A 
ATOM     19  C   UNL     1      -0.982  10.883  19.724  0.00  0.00    +0.000 A 
BRANCH  12  20
ATOM     20  C   UNL     1      -2.681  12.565  21.901  0.00  0.00    +0.000 A 
ATOM     21  C   UNL     1      -3.907  12.996  21.359  0.00  0.00    +0.000 A 
ATOM     22  C   UNL     1      -5.004  13.228  22.192  0.00  0.00    +0.000 A 
ATOM     23  C   UNL     1      -4.914  12.957  23.554  0.00  0.00    +0.000 A 
ATOM     24  C   UNL     1      -3.775  12.342  24.064  0.00  0.00    +0.000 A 
ATOM     25  C   UNL     1      -2.692  12.087  23.226  0.00  0.00    +0.000 A 
ENDBRANCH  12  20
ENDBRANCH   2  10
BRANCH   7  26
ATOM     26  S   UNL     1       3.943   6.320  18.237  0.00  0.00    +0.000 S 
ATOM     27  O   UNL     1       4.169   7.551  17.525  0.00  0.00    +0.000 OA
ATOM     28  O   UNL     1       5.012   5.724  19.024  0.00  0.00    +0.000 OA
BRANCH  26  29
ATOM     29  C   UNL     1       3.224   5.103  17.155  0.00  0.00    +0.000 C 
BRANCH  29  30
ATOM     30  C   UNL     1       2.795   3.799  17.828  0.00  0.00    +0.000 A 
ATOM     31  C   UNL     1       3.646   2.758  18.213  0.00  0.00    +0.000 A 
ATOM     32  C   UNL     1       3.148   1.597  18.822  0.00  0.00    +0.000 A 
ATOM     33  C   UNL     1       1.785   1.443  19.064  0.00  0.00    +0.000 A 
ATOM     34  C   UNL     1       0.911   2.459  18.687  0.00  0.00    +0.000 A 
ATOM     35  C   UNL     1       1.413   3.620  18.077  0.00  0.00    +0.000 A 
ENDBRANCH  29  30
ENDBRANCH  26  29
ENDBRANCH   7  26
TORSDOF 5
ENDMDL
MODEL 5
REMARK VINA RESULT:      -7.9      2.407     10.568
REMARK  Name = 
REMARK  5 active torsions:
REMARK  status: ('A' for Active; 'I' for Inactive)
REMARK    1  A    between atoms: C_2  and  C_19
REMARK    2  A    between atoms: C_7  and  S_8
REMARK    3  A    between atoms: S_8  and  C_11
REMARK    4  A    between atoms: C_11  and  C_12
REMARK    5  A    between atoms: C_21  and  C_22
REMARK                            x       y       z     vdW  Elec       q    Type
REMARK                         _______ _______ _______ _____ _____    ______ ____
ROOT
ATOM      1  O   UNL     1       4.464   7.719  17.084  0.00  0.00    +0.000 OA
ATOM      2  C   UNL     1       3.665   7.337  17.956  0.00  0.00    +0.000 C 
ATOM      3  N   UNL     1       2.432   7.957  17.906  0.00  0.00    +0.000 N 
ATOM      4  C   UNL     1       1.573   8.496  18.833  0.00  0.00    +0.000 A 
ATOM      5  N   UNL     1       0.540   9.230  18.457  0.00  0.00    +0.000 NA
ATOM      6  N   UNL     1      -0.127   9.819  19.520  0.00  0.00    +0.000 NA
ATOM      7  C   UNL     1       0.445   9.491  20.658  0.00  0.00    +0.000 A 
ATOM      8  S   UNL     1       1.793   8.448  20.505  0.00  0.00    +0.000 S 
ATOM      9  H   UNL     1       2.332   8.475  17.037  0.00  0.00    +0.000 HD
ENDROOT
BRANCH   2  10
ATOM     10  C   UNL     1       3.899   5.935  18.453  0.00  0.00    +0.000 A 
ATOM     11  C   UNL     1       5.238   5.836  18.892  0.00  0.00    +0.000 A 
ATOM     12  C   UNL     1       5.811   4.622  18.634  0.00  0.00    +0.000 A 
ATOM     13  N   UNL     1       5.159   3.650  19.266  0.00  0.00    +0.000 NA
ATOM     14  C   UNL     1       3.865   3.582  18.928  0.00  0.00    +0.000 A 
ATOM     15  C   UNL     1       3.355   2.296  18.840  0.00  0.00    +0.000 A 
ATOM     16  C   UNL     1       2.101   2.061  18.299  0.00  0.00    +0.000 A 
ATOM     17  C   UNL     1       1.295   3.146  17.994  0.00  0.00    +0.000 A 
ATOM     18  C   UNL     1       1.782   4.458  18.130  0.00  0.00    +0.000 A 
ATOM     19  C   UNL     1       3.134   4.716  18.477  0.00  0.00    +0.000 A 
BRANCH  12  20
ATOM     20  C   UNL     1       6.054   4.215  17.183  0.00  0.00    +0.000 A 
ATOM     21  C   UNL     1       7.273   4.493  16.535  0.00  0.00    +0.000 A 
ATOM     22  C   UNL     1       7.292   4.809  15.174  0.00  0.00    +0.000 A 
ATOM     23  C   UNL     1       6.114   4.773  14.434  0.00  0.00    +0.000 A 
ATOM     24  C   UNL     1       4.942   4.304  15.019  0.00  0.00    +0.000 A 
ATOM     25  C   UNL     1       4.932   3.964  16.370  0.00  0.00    +0.000 A 
ENDBRANCH  12  20
ENDBRANCH   2  10
BRANCH   7  26
ATOM     26  S   UNL     1      -0.018  10.065  22.261  0.00  0.00    +0.000 S 
ATOM     27  O   UNL     1      -1.232   9.356  22.571  0.00  0.00    +0.000 OA
ATOM     28  O   UNL     1       1.171   9.869  23.078  0.00  0.00    +0.000 OA
BRANCH  26  29
ATOM     29  C   UNL     1      -0.350  11.803  22.065  0.00  0.00    +0.000 C 
BRANCH  29  30
ATOM     30  C   UNL     1      -1.824  12.202  22.147  0.00  0.00    +0.000 A 
ATOM     31  C   UNL     1      -2.581  12.301  23.318  0.00  0.00    +0.000 A 
ATOM     32  C   UNL     1      -3.933  12.673  23.283  0.00  0.00    +0.000 A 
ATOM     33  C   UNL     1      -4.567  12.955  22.075  0.00  0.00    +0.000 A 
ATOM     34  C   UNL     1      -3.841  12.858  20.890  0.00  0.00    +0.000 A 
ATOM     35  C   UNL     1      -2.488  12.486  20.930  0.00  0.00    +0.000 A 
ENDBRANCH  29  30
ENDBRANCH  26  29
ENDBRANCH   7  26
TORSDOF 5
ENDMDL
MODEL 6
REMARK VINA RESULT:      -7.8      2.449     10.743
REMARK  Name = 
REMARK  5 active torsions:
REMARK  status: ('A' for Active; 'I' for Inactive)
REMARK    1  A    between atoms: C_2  and  C_19
REMARK    2  A    between atoms: C_7  and  S_8
REMARK    3  A    between atoms: S_8  and  C_11
REMARK    4  A    between atoms: C_11  and  C_12
REMARK    5  A    between atoms: C_21  and  C_22
REMARK                            x       y       z     vdW  Elec       q    Type
REMARK                         _______ _______ _______ _____ _____    ______ ____
ROOT
ATOM      1  O   UNL     1       4.750   7.741  16.973  0.00  0.00    +0.000 OA
ATOM      2  C   UNL     1       3.859   7.398  17.769  0.00  0.00    +0.000 C 
ATOM      3  N   UNL     1       2.649   8.036  17.578  0.00  0.00    +0.000 N 
ATOM      4  C   UNL     1       1.712   8.615  18.397  0.00  0.00    +0.000 A 
ATOM      5  N   UNL     1       0.736   9.356  17.900  0.00  0.00    +0.000 NA
ATOM      6  N   UNL     1      -0.023   9.985  18.873  0.00  0.00    +0.000 NA
ATOM      7  C   UNL     1       0.424   9.679  20.071  0.00  0.00    +0.000 A 
ATOM      8  S   UNL     1       1.760   8.611  20.084  0.00  0.00    +0.000 S 
ATOM      9  H   UNL     1       2.648   8.531  16.689  0.00  0.00    +0.000 HD
ENDROOT
BRANCH   2  10
ATOM     10  C   UNL     1       4.014   6.006  18.324  0.00  0.00    +0.000 A 
ATOM     11  C   UNL     1       5.330   5.867  18.816  0.00  0.00    +0.000 A 
ATOM     12  C   UNL     1       5.860   4.622  18.624  0.00  0.00    +0.000 A 
ATOM     13  N   UNL     1       5.144   3.702  19.265  0.00  0.00    +0.000 NA
ATOM     14  C   UNL     1       3.861   3.676  18.880  0.00  0.00    +0.000 A 
ATOM     15  C   UNL     1       3.299   2.410  18.819  0.00  0.00    +0.000 A 
ATOM     16  C   UNL     1       2.057   2.208  18.240  0.00  0.00    +0.000 A 
ATOM     17  C   UNL     1       1.310   3.313  17.866  0.00  0.00    +0.000 A 
ATOM     18  C   UNL     1       1.848   4.608  17.973  0.00  0.00    +0.000 A 
ATOM     19  C   UNL     1       3.197   4.822  18.362  0.00  0.00    +0.000 A 
BRANCH  12  20
ATOM     20  C   UNL     1       6.137   4.151  17.198  0.00  0.00    +0.000 A 
ATOM     21  C   UNL     1       7.320   4.510  16.522  0.00  0.00    +0.000 A 
ATOM     22  C   UNL     1       7.302   4.741  15.145  0.00  0.00    +0.000 A 
ATOM     23  C   UNL     1       6.131   4.540  14.419  0.00  0.00    +0.000 A 
ATOM     24  C   UNL     1       5.014   3.994  15.044  0.00  0.00    +0.000 A 
ATOM     25  C   UNL     1       5.043   3.739  16.413  0.00  0.00    +0.000 A 
ENDBRANCH  12  20
ENDBRANCH   2  10
BRANCH   7  26
ATOM     26  S   UNL     1      -0.188  10.307  21.603  0.00  0.00    +0.000 S 
ATOM     27  O   UNL     1      -0.837   9.183  22.229  0.00  0.00    +0.000 OA
ATOM     28  O   UNL     1       0.969  10.924  22.234  0.00  0.00    +0.000 OA
BRANCH  26  29
ATOM     29  C   UNL     1      -1.386  11.548  21.165  0.00  0.00    +0.000 C 
BRANCH  29  30
ATOM     30  C   UNL     1      -1.792  12.495  22.294  0.00  0.00    +0.000 A 
ATOM     31  C   UNL     1      -1.031  13.562  22.781  0.00  0.00    +0.000 A 
ATOM     32  C   UNL     1      -1.495  14.372  23.828  0.00  0.00    +0.000 A 
ATOM     33  C   UNL     1      -2.734  14.136  24.419  0.00  0.00    +0.000 A 
ATOM     34  C   UNL     1      -3.514  13.077  23.960  0.00  0.00    +0.000 A 
ATOM     35  C   UNL     1      -3.045  12.269  22.912  0.00  0.00    +0.000 A 
ENDBRANCH  29  30
ENDBRANCH  26  29
ENDBRANCH   7  26
TORSDOF 5
ENDMDL
MODEL 7
REMARK VINA RESULT:      -7.8      2.518     10.731
REMARK  Name = 
REMARK  5 active torsions:
REMARK  status: ('A' for Active; 'I' for Inactive)
REMARK    1  A    between atoms: C_2  and  C_19
REMARK    2  A    between atoms: C_7  and  S_8
REMARK    3  A    between atoms: S_8  and  C_11
REMARK    4  A    between atoms: C_11  and  C_12
REMARK    5  A    between atoms: C_21  and  C_22
REMARK                            x       y       z     vdW  Elec       q    Type
REMARK                         _______ _______ _______ _____ _____    ______ ____
ROOT
ATOM      1  O   UNL     1       3.956   7.702  16.622  0.00  0.00    +0.000 OA
ATOM      2  C   UNL     1       3.225   7.523  17.610  0.00  0.00    +0.000 C 
ATOM      3  N   UNL     1       1.997   8.150  17.530  0.00  0.00    +0.000 N 
ATOM      4  C   UNL     1       1.219   8.884  18.392  0.00  0.00    +0.000 A 
ATOM      5  N   UNL     1       0.166   9.555  17.955  0.00  0.00    +0.000 NA
ATOM      6  N   UNL     1      -0.408  10.360  18.925  0.00  0.00    +0.000 NA
ATOM      7  C   UNL     1       0.248  10.252  20.059  0.00  0.00    +0.000 A 
ATOM      8  S   UNL     1       1.570   9.167  20.018  0.00  0.00    +0.000 S 
ATOM      9  H   UNL     1       1.834   8.486  16.585  0.00  0.00    +0.000 HD
ENDROOT
BRANCH   2  10
ATOM     10  C   UNL     1       3.484   6.243  18.360  0.00  0.00    +0.000 A 
ATOM     11  C   UNL     1       4.775   6.313  18.929  0.00  0.00    +0.000 A 
ATOM     12  C   UNL     1       5.438   5.118  18.936  0.00  0.00    +0.000 A 
ATOM     13  N   UNL     1       4.779   4.220  19.665  0.00  0.00    +0.000 NA
ATOM     14  C   UNL     1       3.532   4.004  19.228  0.00  0.00    +0.000 A 
ATOM     15  C   UNL     1       3.105   2.689  19.317  0.00  0.00    +0.000 A 
ATOM     16  C   UNL     1       1.927   2.278  18.714  0.00  0.00    +0.000 A 
ATOM     17  C   UNL     1       1.097   3.237  18.156  0.00  0.00    +0.000 A 
ATOM     18  C   UNL     1       1.495   4.585  18.107  0.00  0.00    +0.000 A 
ATOM     19  C   UNL     1       2.789   4.993  18.524  0.00  0.00    +0.000 A 
BRANCH  12  20
ATOM     20  C   UNL     1       5.848   4.493  17.605  0.00  0.00    +0.000 A 
ATOM     21  C   UNL     1       7.176   4.558  17.140  0.00  0.00    +0.000 A 
ATOM     22  C   UNL     1       7.440   4.681  15.774  0.00  0.00    +0.000 A 
ATOM     23  C   UNL     1       6.392   4.661  14.858  0.00  0.00    +0.000 A 
ATOM     24  C   UNL     1       5.098   4.396  15.291  0.00  0.00    +0.000 A 
ATOM     25  C   UNL     1       4.840   4.247  16.652  0.00  0.00    +0.000 A 
ENDBRANCH  12  20
ENDBRANCH   2  10
BRANCH   7  26
ATOM     26  S   UNL     1      -0.081  11.147  21.544  0.00  0.00    +0.000 S 
ATOM     27  O   UNL     1      -0.298  10.134  22.545  0.00  0.00    +0.000 OA
ATOM     28  O   UNL     1       1.036  12.071  21.671  0.00  0.00    +0.000 OA
BRANCH  26  29
ATOM     29  C   UNL     1      -1.589  12.042  21.235  0.00  0.00    +0.000 C 
BRANCH  29  30
ATOM     30  C   UNL     1      -2.211  12.718  22.457  0.00  0.00    +0.000 A 
ATOM     31  C   UNL     1      -3.420  12.363  23.062  0.00  0.00    +0.000 A 
ATOM     32  C   UNL     1      -3.906  13.053  24.182  0.00  0.00    +0.000 A 
ATOM     33  C   UNL     1      -3.197  14.120  24.728  0.00  0.00    +0.000 A 
ATOM     34  C   UNL     1      -1.992  14.503  24.145  0.00  0.00    +0.000 A 
ATOM     35  C   UNL     1      -1.509  13.809  23.024  0.00  0.00    +0.000 A 
ENDBRANCH  29  30
ENDBRANCH  26  29
ENDBRANCH   7  26
TORSDOF 5
ENDMDL
MODEL 8
REMARK VINA RESULT:      -7.8      2.252      3.428
REMARK  Name = 
REMARK  5 active torsions:
REMARK  status: ('A' for Active; 'I' for Inactive)
REMARK    1  A    between atoms: C_2  and  C_19
REMARK    2  A    between atoms: C_7  and  S_8
REMARK    3  A    between atoms: S_8  and  C_11
REMARK    4  A    between atoms: C_11  and  C_12
REMARK    5  A    between atoms: C_21  and  C_22
REMARK                            x       y       z     vdW  Elec       q    Type
REMARK                         _______ _______ _______ _____ _____    ______ ____
ROOT
ATOM      1  O   UNL     1      -0.743  10.307  17.650  0.00  0.00    +0.000 OA
ATOM      2  C   UNL     1       0.255  10.073  18.353  0.00  0.00    +0.000 C 
ATOM      3  N   UNL     1       1.314   9.512  17.667  0.00  0.00    +0.000 N 
ATOM      4  C   UNL     1       2.198   8.488  17.905  0.00  0.00    +0.000 A 
ATOM      5  N   UNL     1       2.984   8.029  16.946  0.00  0.00    +0.000 NA
ATOM      6  N   UNL     1       3.696   6.900  17.317  0.00  0.00    +0.000 NA
ATOM      7  C   UNL     1       3.408   6.562  18.554  0.00  0.00    +0.000 A 
ATOM      8  S   UNL     1       2.286   7.594  19.333  0.00  0.00    +0.000 S 
ATOM      9  H   UNL     1       1.157   9.573  16.664  0.00  0.00    +0.000 HD
ENDROOT
BRANCH   2  10
ATOM     10  C   UNL     1       0.394  10.958  19.563  0.00  0.00    +0.000 A 
ATOM     11  C   UNL     1      -0.436  10.447  20.586  0.00  0.00    +0.000 A 
ATOM     12  C   UNL     1      -1.018  11.414  21.356  0.00  0.00    +0.000 A 
ATOM     13  N   UNL     1      -0.094  12.139  21.980  0.00  0.00    +0.000 NA
ATOM     14  C   UNL     1       0.762  12.733  21.138  0.00  0.00    +0.000 A 
ATOM     15  C   UNL     1       1.161  14.005  21.517  0.00  0.00    +0.000 A 
ATOM     16  C   UNL     1       1.870  14.819  20.650  0.00  0.00    +0.000 A 
ATOM     17  C   UNL     1       2.318  14.284  19.453  0.00  0.00    +0.000 A 
ATOM     18  C   UNL     1       1.965  12.975  19.080  0.00  0.00    +0.000 A 
ATOM     19  C   UNL     1       1.062  12.199  19.854  0.00  0.00    +0.000 A 
BRANCH  12  20
ATOM     20  C   UNL     1      -2.050  12.342  20.718  0.00  0.00    +0.000 A 
ATOM     21  C   UNL     1      -2.661  13.377  21.452  0.00  0.00    +0.000 A 
ATOM     22  C   UNL     1      -3.992  13.723  21.208  0.00  0.00    +0.000 A 
ATOM     23  C   UNL     1      -4.697  13.100  20.183  0.00  0.00    +0.000 A 
ATOM     24  C   UNL     1      -4.042  12.224  19.325  0.00  0.00    +0.000 A 
ATOM     25  C   UNL     1      -2.706  11.900  19.554  0.00  0.00    +0.000 A 
ENDBRANCH  12  20
ENDBRANCH   2  10
BRANCH   7  26
ATOM     26  S   UNL     1       4.020   5.151  19.420  0.00  0.00    +0.000 S 
ATOM     27  O   UNL     1       5.340   5.529  19.856  0.00  0.00    +0.000 OA
ATOM     28  O   UNL     1       2.988   4.845  20.399  0.00  0.00    +0.000 OA
BRANCH  26  29
ATOM     29  C   UNL     1       4.119   3.854  18.204  0.00  0.00    +0.000 C 
BRANCH  29  30
ATOM     30  C   UNL     1       5.064   4.125  17.033  0.00  0.00    +0.000 A 
ATOM     31  C   UNL     1       4.722   4.078  15.678  0.00  0.00    +0.000 A 
ATOM     32  C   UNL     1       5.669   4.341  14.677  0.00  0.00    +0.000 A 
ATOM     33  C   UNL     1       6.986   4.656  15.004  0.00  0.00    +0.000 A 
ATOM     34  C   UNL     1       7.360   4.705  16.345  0.00  0.00    +0.000 A 
ATOM     35  C   UNL     1       6.408   4.442  17.343  0.00  0.00    +0.000 A 
ENDBRANCH  29  30
ENDBRANCH  26  29
ENDBRANCH   7  26
TORSDOF 5
ENDMDL
MODEL 9
REMARK VINA RESULT:      -7.7      2.744      4.107
REMARK  Name = 
REMARK  5 active torsions:
REMARK  status: ('A' for Active; 'I' for Inactive)
REMARK    1  A    between atoms: C_2  and  C_19
REMARK    2  A    between atoms: C_7  and  S_8
REMARK    3  A    between atoms: S_8  and  C_11
REMARK    4  A    between atoms: C_11  and  C_12
REMARK    5  A    between atoms: C_21  and  C_22
REMARK                            x       y       z     vdW  Elec       q    Type
REMARK                         _______ _______ _______ _____ _____    ______ ____
ROOT
ATOM      1  O   UNL     1       1.917   9.737  22.479  0.00  0.00    +0.000 OA
ATOM      2  C   UNL     1       1.442   9.125  21.507  0.00  0.00    +0.000 C 
ATOM      3  N   UNL     1       1.456   7.750  21.640  0.00  0.00    +0.000 N 
ATOM      4  C   UNL     1       1.776   6.695  20.822  0.00  0.00    +0.000 A 
ATOM      5  N   UNL     1       1.902   5.471  21.307  0.00  0.00    +0.000 NA
ATOM      6  N   UNL     1       2.378   4.561  20.377  0.00  0.00    +0.000 NA
ATOM      7  C   UNL     1       2.587   5.153  19.222  0.00  0.00    +0.000 A 
ATOM      8  S   UNL     1       2.204   6.821  19.195  0.00  0.00    +0.000 S 
ATOM      9  H   UNL     1       1.673   7.491  22.599  0.00  0.00    +0.000 HD
ENDROOT
BRANCH   2  10
ATOM     10  C   UNL     1       0.420   9.898  20.715  0.00  0.00    +0.000 A 
ATOM     11  C   UNL     1       0.749   9.796  19.345  0.00  0.00    +0.000 A 
ATOM     12  C   UNL     1       0.490  10.932  18.632  0.00  0.00    +0.000 A 
ATOM     13  N   UNL     1      -0.808  11.222  18.663  0.00  0.00    +0.000 NA
ATOM     14  C   UNL     1      -1.277  11.392  19.907  0.00  0.00    +0.000 A 
ATOM     15  C   UNL     1      -2.227  12.392  20.037  0.00  0.00    +0.000 A 
ATOM     16  C   UNL     1      -2.644  12.822  21.286  0.00  0.00    +0.000 A 
ATOM     17  C   UNL     1      -2.216  12.125  22.406  0.00  0.00    +0.000 A 
ATOM     18  C   UNL     1      -1.293  11.072  22.281  0.00  0.00    +0.000 A 
ATOM     19  C   UNL     1      -0.689  10.756  21.036  0.00  0.00    +0.000 A 
BRANCH  12  20
ATOM     20  C   UNL     1       1.301  12.191  18.931  0.00  0.00    +0.000 A 
ATOM     21  C   UNL     1       2.124  12.282  20.071  0.00  0.00    +0.000 A 
ATOM     22  C   UNL     1       2.269  13.500  20.740  0.00  0.00    +0.000 A 
ATOM     23  C   UNL     1       1.664  14.648  20.236  0.00  0.00    +0.000 A 
ATOM     24  C   UNL     1       1.018  14.608  19.005  0.00  0.00    +0.000 A 
ATOM     25  C   UNL     1       0.897  13.397  18.326  0.00  0.00    +0.000 A 
ENDBRANCH  12  20
ENDBRANCH   2  10
BRANCH   7  26
ATOM     26  S   UNL     1       3.258   4.404  17.772  0.00  0.00    +0.000 S 
ATOM     27  O   UNL     1       4.120   3.359  18.262  0.00  0.00    +0.000 OA
ATOM     28  O   UNL     1       2.098   4.072  16.959  0.00  0.00    +0.000 OA
BRANCH  26  29
ATOM     29  C   UNL     1       4.219   5.677  16.981  0.00  0.00    +0.000 C 
BRANCH  29  30
ATOM     30  C   UNL     1       5.566   5.984  17.636  0.00  0.00    +0.000 A 
ATOM     31  C   UNL     1       6.108   5.323  18.743  0.00  0.00    +0.000 A 
ATOM     32  C   UNL     1       7.355   5.685  19.270  0.00  0.00    +0.000 A 
ATOM     33  C   UNL     1       8.097   6.721  18.707  0.00  0.00    +0.000 A 
ATOM     34  C   UNL     1       7.582   7.404  17.607  0.00  0.00    +0.000 A 
ATOM     35  C   UNL     1       6.333   7.037  17.082  0.00  0.00    +0.000 A 
ENDBRANCH  29  30
ENDBRANCH  26  29
ENDBRANCH   7  26
TORSDOF 5
ENDMDL
