MODEL 1
REMARK VINA RESULT:      -7.7      0.000      0.000
REMARK  Name = 
REMARK  10 active torsions:
REMARK  status: ('A' for Active; 'I' for Inactive)
REMARK    1  A    between atoms: C_1  and  O_2
REMARK    2  A    between atoms: O_2  and  C_3
REMARK    3  A    between atoms: C_6  and  C_7
REMARK    4  A    between atoms: N_9  and  C_10
REMARK    5  A    between atoms: C_10  and  C_11
REMARK    6  A    between atoms: C_14  and  S_15
REMARK    7  A    between atoms: S_15  and  C_16
REMARK    8  A    between atoms: C_16  and  C_17
REMARK    9  A    between atoms: N_19  and  C_20
REMARK   10  A    between atoms: C_20  and  C_21
REMARK                            x       y       z     vdW  Elec       q    Type
REMARK                         _______ _______ _______ _____ _____    ______ ____
ROOT
ATOM      1  C   UNL     1       2.289   8.639  18.312  0.00  0.00    +0.000 A 
ATOM      2  N   UNL     1       3.042   7.968  17.466  0.00  0.00    +0.000 NA
ATOM      3  N   UNL     1       3.154   6.692  17.974  0.00  0.00    +0.000 NA
ATOM      4  C   UNL     1       2.454   6.663  19.089  0.00  0.00    +0.000 A 
ATOM      5  O   UNL     1       1.859   7.868  19.359  0.00  0.00    +0.000 OA
ENDROOT
BRANCH   1   6
ATOM      6  C   UNL     1       1.841  10.053  18.271  0.00  0.00    +0.000 C 
BRANCH   6   9
ATOM      7  C   UNL     1      -0.329  11.109  18.700  0.00  0.00    +0.000 C 
ATOM      8  O   UNL     1       0.201  11.959  19.409  0.00  0.00    +0.000 OA
ATOM      9  N   UNL     1       0.405  10.114  18.088  0.00  0.00    +0.000 N 
ATOM     10  H   UNL     1      -0.048   9.341  17.626  0.00  0.00    +0.000 HD
BRANCH   7  14
ATOM     11  C   UNL     1      -4.589  11.015  18.020  0.00  0.00    +0.000 A 
ATOM     12  C   UNL     1      -3.732  10.138  17.357  0.00  0.00    +0.000 A 
ATOM     13  C   UNL     1      -2.352  10.182  17.589  0.00  0.00    +0.000 A 
ATOM     14  C   UNL     1      -1.811  11.120  18.478  0.00  0.00    +0.000 A 
ATOM     15  C   UNL     1      -2.675  12.005  19.131  0.00  0.00    +0.000 A 
ATOM     16  C   UNL     1      -4.058  11.956  18.897  0.00  0.00    +0.000 A 
BRANCH  11  18
ATOM     17  C   UNL     1      -6.826  11.464  18.643  0.00  0.00    +0.000 C 
ATOM     18  O   UNL     1      -5.916  10.886  17.713  0.00  0.00    +0.000 OA
ENDBRANCH  11  18
ENDBRANCH   7  14
ENDBRANCH   6   9
ENDBRANCH   1   6
BRANCH   4  19
ATOM     19  S   UNL     1       2.290   5.278  20.119  0.00  0.00    +0.000 S 
BRANCH  19  20
ATOM     20  C   UNL     1       2.334   3.938  18.895  0.00  0.00    +0.000 C 
BRANCH  20  21
ATOM     21  C   UNL     1       3.770   3.602  18.532  0.00  0.00    +0.000 C 
ATOM     22  O   UNL     1       4.506   2.975  19.291  0.00  0.00    +0.000 OA
ATOM     23  N   UNL     1       4.189   4.067  17.303  0.00  0.00    +0.000 N 
ATOM     24  H   UNL     1       3.604   4.715  16.785  0.00  0.00    +0.000 HD
BRANCH  23  25
ATOM     25  C   UNL     1       5.571   3.917  16.912  0.00  0.00    +0.000 C 
BRANCH  25  26
ATOM     26  C   UNL     1       6.438   5.049  17.397  0.00  0.00    +0.000 A 
ATOM     27  C   UNL     1       6.427   6.296  16.747  0.00  0.00    +0.000 A 
ATOM     28  C   UNL     1       7.215   7.347  17.217  0.00  0.00    +0.000 A 
ATOM     29  C   UNL     1       8.009   7.161  18.339  0.00  0.00    +0.000 A 
ATOM     30  F   UNL     1       8.763   8.172  18.791  0.00  0.00    +0.000 F 
ATOM     31  C   UNL     1       8.029   5.942  19.002  0.00  0.00    +0.000 A 
ATOM     32  C   UNL     1       7.247   4.886  18.532  0.00  0.00    +0.000 A 
ENDBRANCH  25  26
ENDBRANCH  23  25
ENDBRANCH  20  21
ENDBRANCH  19  20
ENDBRANCH   4  19
TORSDOF 9
ENDMDL
MODEL 2
REMARK VINA RESULT:      -7.5      1.236      1.754
REMARK  Name = 
REMARK  10 active torsions:
REMARK  status: ('A' for Active; 'I' for Inactive)
REMARK    1  A    between atoms: C_1  and  O_2
REMARK    2  A    between atoms: O_2  and  C_3
REMARK    3  A    between atoms: C_6  and  C_7
REMARK    4  A    between atoms: N_9  and  C_10
REMARK    5  A    between atoms: C_10  and  C_11
REMARK    6  A    between atoms: C_14  and  S_15
REMARK    7  A    between atoms: S_15  and  C_16
REMARK    8  A    between atoms: C_16  and  C_17
REMARK    9  A    between atoms: N_19  and  C_20
REMARK   10  A    between atoms: C_20  and  C_21
REMARK                            x       y       z     vdW  Elec       q    Type
REMARK                         _______ _______ _______ _____ _____    ______ ____
ROOT
ATOM      1  C   UNL     1       2.209   7.975  18.631  0.00  0.00    +0.000 A 
ATOM      2  N   UNL     1       2.303   7.521  19.863  0.00  0.00    +0.000 NA
ATOM      3  N   UNL     1       2.344   6.147  19.768  0.00  0.00    +0.000 NA
ATOM      4  C   UNL     1       2.284   5.853  18.485  0.00  0.00    +0.000 A 
ATOM      5  O   UNL     1       2.214   6.972  17.698  0.00  0.00    +0.000 OA
ENDROOT
BRANCH   1   6
ATOM      6  C   UNL     1       2.129   9.373  18.136  0.00  0.00    +0.000 C 
BRANCH   6   9
ATOM      7  C   UNL     1      -0.125  10.238  18.558  0.00  0.00    +0.000 C 
ATOM      8  O   UNL     1       0.173  10.510  19.716  0.00  0.00    +0.000 OA
ATOM      9  N   UNL     1       0.782   9.666  17.690  0.00  0.00    +0.000 N 
ATOM     10  H   UNL     1       0.494   9.316  16.790  0.00  0.00    +0.000 HD
BRANCH   7  14
ATOM     11  C   UNL     1      -4.099  11.146  17.143  0.00  0.00    +0.000 A 
ATOM     12  C   UNL     1      -3.625  11.663  18.348  0.00  0.00    +0.000 A 
ATOM     13  C   UNL     1      -2.333  11.359  18.793  0.00  0.00    +0.000 A 
ATOM     14  C   UNL     1      -1.505  10.515  18.041  0.00  0.00    +0.000 A 
ATOM     15  C   UNL     1      -1.991   9.989  16.839  0.00  0.00    +0.000 A 
ATOM     16  C   UNL     1      -3.286  10.299  16.396  0.00  0.00    +0.000 A 
BRANCH  11  18
ATOM     17  C   UNL     1      -5.915  12.613  17.525  0.00  0.00    +0.000 C 
ATOM     18  O   UNL     1      -5.377  11.506  16.810  0.00  0.00    +0.000 OA
ENDBRANCH  11  18
ENDBRANCH   7  14
ENDBRANCH   6   9
ENDBRANCH   1   6
BRANCH   4  19
ATOM     19  S   UNL     1       2.287   4.244  17.838  0.00  0.00    +0.000 S 
BRANCH  19  20
ATOM     20  C   UNL     1       3.007   3.322  19.227  0.00  0.00    +0.000 C 
BRANCH  20  21
ATOM     21  C   UNL     1       4.517   3.248  19.085  0.00  0.00    +0.000 C 
ATOM     22  O   UNL     1       5.223   2.668  19.908  0.00  0.00    +0.000 OA
ATOM     23  N   UNL     1       5.036   3.894  17.983  0.00  0.00    +0.000 N 
ATOM     24  H   UNL     1       4.437   4.495  17.424  0.00  0.00    +0.000 HD
BRANCH  23  25
ATOM     25  C   UNL     1       6.467   3.998  17.819  0.00  0.00    +0.000 C 
BRANCH  25  26
ATOM     26  C   UNL     1       6.956   5.422  17.873  0.00  0.00    +0.000 A 
ATOM     27  C   UNL     1       7.859   5.838  18.867  0.00  0.00    +0.000 A 
ATOM     28  C   UNL     1       8.326   7.152  18.896  0.00  0.00    +0.000 A 
ATOM     29  C   UNL     1       7.900   8.052  17.930  0.00  0.00    +0.000 A 
ATOM     30  F   UNL     1       8.352   9.314  17.957  0.00  0.00    +0.000 F 
ATOM     31  C   UNL     1       7.016   7.663  16.934  0.00  0.00    +0.000 A 
ATOM     32  C   UNL     1       6.542   6.351  16.906  0.00  0.00    +0.000 A 
ENDBRANCH  25  26
ENDBRANCH  23  25
ENDBRANCH  20  21
ENDBRANCH  19  20
ENDBRANCH   4  19
TORSDOF 9
ENDMDL
MODEL 3
REMARK VINA RESULT:      -7.5      6.197      8.877
REMARK  Name = 
REMARK  10 active torsions:
REMARK  status: ('A' for Active; 'I' for Inactive)
REMARK    1  A    between atoms: C_1  and  O_2
REMARK    2  A    between atoms: O_2  and  C_3
REMARK    3  A    between atoms: C_6  and  C_7
REMARK    4  A    between atoms: N_9  and  C_10
REMARK    5  A    between atoms: C_10  and  C_11
REMARK    6  A    between atoms: C_14  and  S_15
REMARK    7  A    between atoms: S_15  and  C_16
REMARK    8  A    between atoms: C_16  and  C_17
REMARK    9  A    between atoms: N_19  and  C_20
REMARK   10  A    between atoms: C_20  and  C_21
REMARK                            x       y       z     vdW  Elec       q    Type
REMARK                         _______ _______ _______ _____ _____    ______ ____
ROOT
ATOM      1  C   UNL     1       8.605   9.096  18.303  0.00  0.00    +0.000 A 
ATOM      2  N   UNL     1       7.693   9.106  17.353  0.00  0.00    +0.000 NA
ATOM      3  N   UNL     1       7.170   7.832  17.305  0.00  0.00    +0.000 NA
ATOM      4  C   UNL     1       7.788   7.132  18.235  0.00  0.00    +0.000 A 
ATOM      5  O   UNL     1       8.706   7.880  18.924  0.00  0.00    +0.000 OA
ENDROOT
BRANCH   1   6
ATOM      6  C   UNL     1       9.483  10.190  18.788  0.00  0.00    +0.000 C 
BRANCH   6   9
ATOM      7  C   UNL     1       9.590  11.805  20.629  0.00  0.00    +0.000 C 
ATOM      8  O   UNL     1      10.630  12.279  20.181  0.00  0.00    +0.000 OA
ATOM      9  N   UNL     1       8.942  10.759  20.006  0.00  0.00    +0.000 N 
ATOM     10  H   UNL     1       8.172  10.284  20.450  0.00  0.00    +0.000 HD
BRANCH   7  14
ATOM     11  C   UNL     1       7.842  13.252  24.298  0.00  0.00    +0.000 A 
ATOM     12  C   UNL     1       7.639  11.942  23.869  0.00  0.00    +0.000 A 
ATOM     13  C   UNL     1       8.213  11.488  22.675  0.00  0.00    +0.000 A 
ATOM     14  C   UNL     1       8.986  12.351  21.887  0.00  0.00    +0.000 A 
ATOM     15  C   UNL     1       9.176  13.668  22.317  0.00  0.00    +0.000 A 
ATOM     16  C   UNL     1       8.600  14.118  23.515  0.00  0.00    +0.000 A 
BRANCH  11  18
ATOM     17  C   UNL     1       5.864  13.205  25.594  0.00  0.00    +0.000 C 
ATOM     18  O   UNL     1       7.230  13.588  25.475  0.00  0.00    +0.000 OA
ENDBRANCH  11  18
ENDBRANCH   7  14
ENDBRANCH   6   9
ENDBRANCH   1   6
BRANCH   4  19
ATOM     19  S   UNL     1       7.497   5.455  18.567  0.00  0.00    +0.000 S 
BRANCH  19  20
ATOM     20  C   UNL     1       7.027   4.859  16.918  0.00  0.00    +0.000 C 
BRANCH  20  21
ATOM     21  C   UNL     1       5.517   4.719  16.817  0.00  0.00    +0.000 C 
ATOM     22  O   UNL     1       4.981   4.024  15.956  0.00  0.00    +0.000 OA
ATOM     23  N   UNL     1       4.798   5.443  17.744  0.00  0.00    +0.000 N 
ATOM     24  H   UNL     1       5.273   6.128  18.326  0.00  0.00    +0.000 HD
BRANCH  23  25
ATOM     25  C   UNL     1       3.357   5.487  17.660  0.00  0.00    +0.000 C 
BRANCH  25  26
ATOM     26  C   UNL     1       2.686   4.718  18.768  0.00  0.00    +0.000 A 
ATOM     27  C   UNL     1       2.192   3.420  18.549  0.00  0.00    +0.000 A 
ATOM     28  C   UNL     1       1.594   2.705  19.587  0.00  0.00    +0.000 A 
ATOM     29  C   UNL     1       1.494   3.279  20.846  0.00  0.00    +0.000 A 
ATOM     30  F   UNL     1       0.921   2.589  21.843  0.00  0.00    +0.000 F 
ATOM     31  C   UNL     1       1.982   4.555  21.088  0.00  0.00    +0.000 A 
ATOM     32  C   UNL     1       2.576   5.275  20.051  0.00  0.00    +0.000 A 
ENDBRANCH  25  26
ENDBRANCH  23  25
ENDBRANCH  20  21
ENDBRANCH  19  20
ENDBRANCH   4  19
TORSDOF 9
ENDMDL
MODEL 4
REMARK VINA RESULT:      -7.5      1.454      1.844
REMARK  Name = 
REMARK  10 active torsions:
REMARK  status: ('A' for Active; 'I' for Inactive)
REMARK    1  A    between atoms: C_1  and  O_2
REMARK    2  A    between atoms: O_2  and  C_3
REMARK    3  A    between atoms: C_6  and  C_7
REMARK    4  A    between atoms: N_9  and  C_10
REMARK    5  A    between atoms: C_10  and  C_11
REMARK    6  A    between atoms: C_14  and  S_15
REMARK    7  A    between atoms: S_15  and  C_16
REMARK    8  A    between atoms: C_16  and  C_17
REMARK    9  A    between atoms: N_19  and  C_20
REMARK   10  A    between atoms: C_20  and  C_21
REMARK                            x       y       z     vdW  Elec       q    Type
REMARK                         _______ _______ _______ _____ _____    ______ ____
ROOT
ATOM      1  C   UNL     1       2.228   7.343  18.916  0.00  0.00    +0.000 A 
ATOM      2  N   UNL     1       2.190   7.186  20.223  0.00  0.00    +0.000 NA
ATOM      3  N   UNL     1       2.080   5.831  20.448  0.00  0.00    +0.000 NA
ATOM      4  C   UNL     1       2.070   5.249  19.266  0.00  0.00    +0.000 A 
ATOM      5  O   UNL     1       2.179   6.152  18.241  0.00  0.00    +0.000 OA
ENDROOT
BRANCH   1   6
ATOM      6  C   UNL     1       2.340   8.584  18.111  0.00  0.00    +0.000 C 
BRANCH   6   9
ATOM      7  C   UNL     1       0.347   9.939  18.560  0.00  0.00    +0.000 C 
ATOM      8  O   UNL     1       0.833  10.343  19.612  0.00  0.00    +0.000 OA
ATOM      9  N   UNL     1       1.021   9.058  17.741  0.00  0.00    +0.000 N 
ATOM     10  H   UNL     1       0.564   8.622  16.955  0.00  0.00    +0.000 HD
BRANCH   7  14
ATOM     11  C   UNL     1      -3.588  11.127  17.251  0.00  0.00    +0.000 A 
ATOM     12  C   UNL     1      -2.848  10.180  16.545  0.00  0.00    +0.000 A 
ATOM     13  C   UNL     1      -1.572   9.806  16.984  0.00  0.00    +0.000 A 
ATOM     14  C   UNL     1      -1.014  10.392  18.128  0.00  0.00    +0.000 A 
ATOM     15  C   UNL     1      -1.758  11.351  18.824  0.00  0.00    +0.000 A 
ATOM     16  C   UNL     1      -3.037  11.721  18.382  0.00  0.00    +0.000 A 
BRANCH  11  18
ATOM     17  C   UNL     1      -5.651  12.250  17.533  0.00  0.00    +0.000 C 
ATOM     18  O   UNL     1      -4.819  11.420  16.729  0.00  0.00    +0.000 OA
ENDBRANCH  11  18
ENDBRANCH   7  14
ENDBRANCH   6   9
ENDBRANCH   1   6
BRANCH   4  19
ATOM     19  S   UNL     1       1.931   3.540  19.006  0.00  0.00    +0.000 S 
BRANCH  19  20
ATOM     20  C   UNL     1       3.628   3.003  19.371  0.00  0.00    +0.000 C 
BRANCH  20  21
ATOM     21  C   UNL     1       4.579   3.491  18.292  0.00  0.00    +0.000 C 
ATOM     22  O   UNL     1       4.282   3.466  17.098  0.00  0.00    +0.000 OA
ATOM     23  N   UNL     1       5.799   3.943  18.746  0.00  0.00    +0.000 N 
ATOM     24  H   UNL     1       6.062   3.794  19.716  0.00  0.00    +0.000 HD
BRANCH  23  25
ATOM     25  C   UNL     1       6.827   4.309  17.800  0.00  0.00    +0.000 C 
BRANCH  25  26
ATOM     26  C   UNL     1       7.199   5.766  17.880  0.00  0.00    +0.000 A 
ATOM     27  C   UNL     1       8.101   6.228  18.855  0.00  0.00    +0.000 A 
ATOM     28  C   UNL     1       8.460   7.576  18.908  0.00  0.00    +0.000 A 
ATOM     29  C   UNL     1       7.926   8.464  17.985  0.00  0.00    +0.000 A 
ATOM     30  F   UNL     1       8.273   9.757  18.035  0.00  0.00    +0.000 F 
ATOM     31  C   UNL     1       7.040   8.030  17.009  0.00  0.00    +0.000 A 
ATOM     32  C   UNL     1       6.675   6.684  16.957  0.00  0.00    +0.000 A 
ENDBRANCH  25  26
ENDBRANCH  23  25
ENDBRANCH  20  21
ENDBRANCH  19  20
ENDBRANCH   4  19
TORSDOF 9
ENDMDL
MODEL 5
REMARK VINA RESULT:      -7.5      3.988      5.359
REMARK  Name = 
REMARK  10 active torsions:
REMARK  status: ('A' for Active; 'I' for Inactive)
REMARK    1  A    between atoms: C_1  and  O_2
REMARK    2  A    between atoms: O_2  and  C_3
REMARK    3  A    between atoms: C_6  and  C_7
REMARK    4  A    between atoms: N_9  and  C_10
REMARK    5  A    between atoms: C_10  and  C_11
REMARK    6  A    between atoms: C_14  and  S_15
REMARK    7  A    between atoms: S_15  and  C_16
REMARK    8  A    between atoms: C_16  and  C_17
REMARK    9  A    between atoms: N_19  and  C_20
REMARK   10  A    between atoms: C_20  and  C_21
REMARK                            x       y       z     vdW  Elec       q    Type
REMARK                         _______ _______ _______ _____ _____    ______ ____
ROOT
ATOM      1  C   UNL     1       3.687   6.614  18.458  0.00  0.00    +0.000 A 
ATOM      2  N   UNL     1       3.473   7.231  17.315  0.00  0.00    +0.000 NA
ATOM      3  N   UNL     1       4.666   7.196  16.626  0.00  0.00    +0.000 NA
ATOM      4  C   UNL     1       5.526   6.549  17.387  0.00  0.00    +0.000 A 
ATOM      5  O   UNL     1       4.965   6.133  18.566  0.00  0.00    +0.000 OA
ENDROOT
BRANCH   1   6
ATOM      6  C   UNL     1       2.759   6.357  19.588  0.00  0.00    +0.000 C 
BRANCH   6   9
ATOM      7  C   UNL     1       1.132   7.602  20.933  0.00  0.00    +0.000 C 
ATOM      8  O   UNL     1       0.601   6.558  21.296  0.00  0.00    +0.000 OA
ATOM      9  N   UNL     1       2.216   7.607  20.080  0.00  0.00    +0.000 N 
ATOM     10  H   UNL     1       2.557   8.465  19.675  0.00  0.00    +0.000 HD
BRANCH   7  14
ATOM     11  C   UNL     1      -0.352  11.460  22.173  0.00  0.00    +0.000 A 
ATOM     12  C   UNL     1       0.478  11.328  21.060  0.00  0.00    +0.000 A 
ATOM     13  C   UNL     1       0.951  10.069  20.672  0.00  0.00    +0.000 A 
ATOM     14  C   UNL     1       0.611   8.926  21.406  0.00  0.00    +0.000 A 
ATOM     15  C   UNL     1      -0.212   9.066  22.529  0.00  0.00    +0.000 A 
ATOM     16  C   UNL     1      -0.686  10.330  22.913  0.00  0.00    +0.000 A 
BRANCH  11  18
ATOM     17  C   UNL     1      -0.139  13.766  21.693  0.00  0.00    +0.000 C 
ATOM     18  O   UNL     1      -0.750  12.736  22.463  0.00  0.00    +0.000 OA
ENDBRANCH  11  18
ENDBRANCH   7  14
ENDBRANCH   6   9
ENDBRANCH   1   6
BRANCH   4  19
ATOM     19  S   UNL     1       7.183   6.250  16.973  0.00  0.00    +0.000 S 
BRANCH  19  20
ATOM     20  C   UNL     1       7.137   4.462  16.661  0.00  0.00    +0.000 C 
BRANCH  20  21
ATOM     21  C   UNL     1       5.724   4.023  16.316  0.00  0.00    +0.000 C 
ATOM     22  O   UNL     1       5.228   4.226  15.209  0.00  0.00    +0.000 OA
ATOM     23  N   UNL     1       5.036   3.402  17.337  0.00  0.00    +0.000 N 
ATOM     24  H   UNL     1       5.422   3.403  18.277  0.00  0.00    +0.000 HD
BRANCH  23  25
ATOM     25  C   UNL     1       3.644   3.060  17.161  0.00  0.00    +0.000 C 
BRANCH  25  26
ATOM     26  C   UNL     1       2.907   2.933  18.469  0.00  0.00    +0.000 A 
ATOM     27  C   UNL     1       3.606   2.780  19.679  0.00  0.00    +0.000 A 
ATOM     28  C   UNL     1       2.917   2.687  20.889  0.00  0.00    +0.000 A 
ATOM     29  C   UNL     1       1.532   2.755  20.896  0.00  0.00    +0.000 A 
ATOM     30  F   UNL     1       0.871   2.669  22.059  0.00  0.00    +0.000 F 
ATOM     31  C   UNL     1       0.821   2.915  19.715  0.00  0.00    +0.000 A 
ATOM     32  C   UNL     1       1.506   3.002  18.502  0.00  0.00    +0.000 A 
ENDBRANCH  25  26
ENDBRANCH  23  25
ENDBRANCH  20  21
ENDBRANCH  19  20
ENDBRANCH   4  19
TORSDOF 9
ENDMDL
MODEL 6
REMARK VINA RESULT:      -7.4      2.673      3.480
REMARK  Name = 
REMARK  10 active torsions:
REMARK  status: ('A' for Active; 'I' for Inactive)
REMARK    1  A    between atoms: C_1  and  O_2
REMARK    2  A    between atoms: O_2  and  C_3
REMARK    3  A    between atoms: C_6  and  C_7
REMARK    4  A    between atoms: N_9  and  C_10
REMARK    5  A    between atoms: C_10  and  C_11
REMARK    6  A    between atoms: C_14  and  S_15
REMARK    7  A    between atoms: S_15  and  C_16
REMARK    8  A    between atoms: C_16  and  C_17
REMARK    9  A    between atoms: N_19  and  C_20
REMARK   10  A    between atoms: C_20  and  C_21
REMARK                            x       y       z     vdW  Elec       q    Type
REMARK                         _______ _______ _______ _____ _____    ______ ____
ROOT
ATOM      1  C   UNL     1       2.162   6.127  19.517  0.00  0.00    +0.000 A 
ATOM      2  N   UNL     1       1.723   5.654  20.665  0.00  0.00    +0.000 NA
ATOM      3  N   UNL     1       1.471   4.315  20.462  0.00  0.00    +0.000 NA
ATOM      4  C   UNL     1       1.784   4.055  19.208  0.00  0.00    +0.000 A 
ATOM      5  O   UNL     1       2.249   5.162  18.549  0.00  0.00    +0.000 OA
ENDROOT
BRANCH   1   6
ATOM      6  C   UNL     1       2.583   7.504  19.155  0.00  0.00    +0.000 C 
BRANCH   6   9
ATOM      7  C   UNL     1       1.106   9.399  18.673  0.00  0.00    +0.000 C 
ATOM      8  O   UNL     1       1.525   9.460  17.521  0.00  0.00    +0.000 OA
ATOM      9  N   UNL     1       1.572   8.457  19.566  0.00  0.00    +0.000 N 
ATOM     10  H   UNL     1       1.330   8.501  20.544  0.00  0.00    +0.000 HD
BRANCH   7  14
ATOM     11  C   UNL     1      -1.974  12.133  19.961  0.00  0.00    +0.000 A 
ATOM     12  C   UNL     1      -1.904  11.694  18.639  0.00  0.00    +0.000 A 
ATOM     13  C   UNL     1      -0.898  10.807  18.238  0.00  0.00    +0.000 A 
ATOM     14  C   UNL     1       0.063  10.362  19.154  0.00  0.00    +0.000 A 
ATOM     15  C   UNL     1      -0.006  10.815  20.476  0.00  0.00    +0.000 A 
ATOM     16  C   UNL     1      -1.017  11.703  20.875  0.00  0.00    +0.000 A 
BRANCH  11  18
ATOM     17  C   UNL     1      -4.304  12.540  19.922  0.00  0.00    +0.000 C 
ATOM     18  O   UNL     1      -2.995  13.001  20.239  0.00  0.00    +0.000 OA
ENDBRANCH  11  18
ENDBRANCH   7  14
ENDBRANCH   6   9
ENDBRANCH   1   6
BRANCH   4  19
ATOM     19  S   UNL     1       1.631   2.502  18.453  0.00  0.00    +0.000 S 
BRANCH  19  20
ATOM     20  C   UNL     1       3.234   1.761  18.872  0.00  0.00    +0.000 C 
BRANCH  20  21
ATOM     21  C   UNL     1       4.346   2.783  18.712  0.00  0.00    +0.000 C 
ATOM     22  O   UNL     1       5.015   3.177  19.666  0.00  0.00    +0.000 OA
ATOM     23  N   UNL     1       4.535   3.249  17.428  0.00  0.00    +0.000 N 
ATOM     24  H   UNL     1       3.858   3.021  16.706  0.00  0.00    +0.000 HD
BRANCH  23  25
ATOM     25  C   UNL     1       5.476   4.316  17.182  0.00  0.00    +0.000 C 
BRANCH  25  26
ATOM     26  C   UNL     1       5.970   4.339  15.760  0.00  0.00    +0.000 A 
ATOM     27  C   UNL     1       5.234   3.727  14.730  0.00  0.00    +0.000 A 
ATOM     28  C   UNL     1       5.686   3.773  13.411  0.00  0.00    +0.000 A 
ATOM     29  C   UNL     1       6.868   4.437  13.114  0.00  0.00    +0.000 A 
ATOM     30  F   UNL     1       7.300   4.483  11.846  0.00  0.00    +0.000 F 
ATOM     31  C   UNL     1       7.607   5.056  14.112  0.00  0.00    +0.000 A 
ATOM     32  C   UNL     1       7.161   5.006  15.433  0.00  0.00    +0.000 A 
ENDBRANCH  25  26
ENDBRANCH  23  25
ENDBRANCH  20  21
ENDBRANCH  19  20
ENDBRANCH   4  19
TORSDOF 9
ENDMDL
MODEL 7
REMARK VINA RESULT:      -7.4      2.391      3.301
REMARK  Name = 
REMARK  10 active torsions:
REMARK  status: ('A' for Active; 'I' for Inactive)
REMARK    1  A    between atoms: C_1  and  O_2
REMARK    2  A    between atoms: O_2  and  C_3
REMARK    3  A    between atoms: C_6  and  C_7
REMARK    4  A    between atoms: N_9  and  C_10
REMARK    5  A    between atoms: C_10  and  C_11
REMARK    6  A    between atoms: C_14  and  S_15
REMARK    7  A    between atoms: S_15  and  C_16
REMARK    8  A    between atoms: C_16  and  C_17
REMARK    9  A    between atoms: N_19  and  C_20
REMARK   10  A    between atoms: C_20  and  C_21
REMARK                            x       y       z     vdW  Elec       q    Type
REMARK                         _______ _______ _______ _____ _____    ______ ____
ROOT
ATOM      1  C   UNL     1       2.144   5.859  19.898  0.00  0.00    +0.000 A 
ATOM      2  N   UNL     1       1.975   5.490  21.150  0.00  0.00    +0.000 NA
ATOM      3  N   UNL     1       1.618   4.159  21.117  0.00  0.00    +0.000 NA
ATOM      4  C   UNL     1       1.603   3.801  19.850  0.00  0.00    +0.000 A 
ATOM      5  O   UNL     1       1.946   4.831  19.015  0.00  0.00    +0.000 OA
ENDROOT
BRANCH   1   6
ATOM      6  C   UNL     1       2.530   7.179  19.340  0.00  0.00    +0.000 C 
BRANCH   6   9
ATOM      7  C   UNL     1       1.266   9.259  19.048  0.00  0.00    +0.000 C 
ATOM      8  O   UNL     1       1.643   9.349  17.884  0.00  0.00    +0.000 OA
ATOM      9  N   UNL     1       1.655   8.213  19.858  0.00  0.00    +0.000 N 
ATOM     10  H   UNL     1       1.460   8.218  20.847  0.00  0.00    +0.000 HD
BRANCH   7  14
ATOM     11  C   UNL     1      -1.227  12.309  20.809  0.00  0.00    +0.000 A 
ATOM     12  C   UNL     1      -0.015  11.941  21.392  0.00  0.00    +0.000 A 
ATOM     13  C   UNL     1       0.782  10.949  20.807  0.00  0.00    +0.000 A 
ATOM     14  C   UNL     1       0.364  10.300  19.638  0.00  0.00    +0.000 A 
ATOM     15  C   UNL     1      -0.859  10.666  19.065  0.00  0.00    +0.000 A 
ATOM     16  C   UNL     1      -1.654  11.662  19.653  0.00  0.00    +0.000 A 
BRANCH  11  18
ATOM     17  C   UNL     1      -1.939  14.564  20.844  0.00  0.00    +0.000 C 
ATOM     18  O   UNL     1      -1.925  13.284  21.467  0.00  0.00    +0.000 OA
ENDBRANCH  11  18
ENDBRANCH   7  14
ENDBRANCH   6   9
ENDBRANCH   1   6
BRANCH   4  19
ATOM     19  S   UNL     1       1.196   2.216  19.275  0.00  0.00    +0.000 S 
BRANCH  19  20
ATOM     20  C   UNL     1       2.783   1.695  18.564  0.00  0.00    +0.000 C 
BRANCH  20  21
ATOM     21  C   UNL     1       3.239   2.686  17.506  0.00  0.00    +0.000 C 
ATOM     22  O   UNL     1       2.532   2.987  16.546  0.00  0.00    +0.000 OA
ATOM     23  N   UNL     1       4.504   3.202  17.692  0.00  0.00    +0.000 N 
ATOM     24  H   UNL     1       5.111   2.803  18.402  0.00  0.00    +0.000 HD
BRANCH  23  25
ATOM     25  C   UNL     1       5.088   4.052  16.681  0.00  0.00    +0.000 C 
BRANCH  25  26
ATOM     26  C   UNL     1       6.031   5.075  17.256  0.00  0.00    +0.000 A 
ATOM     27  C   UNL     1       6.904   4.743  18.306  0.00  0.00    +0.000 A 
ATOM     28  C   UNL     1       7.792   5.690  18.817  0.00  0.00    +0.000 A 
ATOM     29  C   UNL     1       7.817   6.968  18.278  0.00  0.00    +0.000 A 
ATOM     30  F   UNL     1       8.672   7.876  18.768  0.00  0.00    +0.000 F 
ATOM     31  C   UNL     1       6.970   7.317  17.235  0.00  0.00    +0.000 A 
ATOM     32  C   UNL     1       6.077   6.374  16.725  0.00  0.00    +0.000 A 
ENDBRANCH  25  26
ENDBRANCH  23  25
ENDBRANCH  20  21
ENDBRANCH  19  20
ENDBRANCH   4  19
TORSDOF 9
ENDMDL
MODEL 8
REMARK VINA RESULT:      -7.4      2.867      3.375
REMARK  Name = 
REMARK  10 active torsions:
REMARK  status: ('A' for Active; 'I' for Inactive)
REMARK    1  A    between atoms: C_1  and  O_2
REMARK    2  A    between atoms: O_2  and  C_3
REMARK    3  A    between atoms: C_6  and  C_7
REMARK    4  A    between atoms: N_9  and  C_10
REMARK    5  A    between atoms: C_10  and  C_11
REMARK    6  A    between atoms: C_14  and  S_15
REMARK    7  A    between atoms: S_15  and  C_16
REMARK    8  A    between atoms: C_16  and  C_17
REMARK    9  A    between atoms: N_19  and  C_20
REMARK   10  A    between atoms: C_20  and  C_21
REMARK                            x       y       z     vdW  Elec       q    Type
REMARK                         _______ _______ _______ _____ _____    ______ ____
ROOT
ATOM      1  C   UNL     1       2.628   6.453  18.963  0.00  0.00    +0.000 A 
ATOM      2  N   UNL     1       3.705   6.128  19.647  0.00  0.00    +0.000 NA
ATOM      3  N   UNL     1       3.501   4.845  20.105  0.00  0.00    +0.000 NA
ATOM      4  C   UNL     1       2.320   4.466  19.661  0.00  0.00    +0.000 A 
ATOM      5  O   UNL     1       1.712   5.437  18.910  0.00  0.00    +0.000 OA
ENDROOT
BRANCH   1   6
ATOM      6  C   UNL     1       2.300   7.713  18.249  0.00  0.00    +0.000 C 
BRANCH   6   9
ATOM      7  C   UNL     1       0.932   9.653  18.857  0.00  0.00    +0.000 C 
ATOM      8  O   UNL     1       0.386   9.640  17.758  0.00  0.00    +0.000 OA
ATOM      9  N   UNL     1       1.901   8.733  19.198  0.00  0.00    +0.000 N 
ATOM     10  H   UNL     1       2.443   8.834  20.042  0.00  0.00    +0.000 HD
BRANCH   7  14
ATOM     11  C   UNL     1      -0.088  12.723  21.713  0.00  0.00    +0.000 A 
ATOM     12  C   UNL     1       0.887  12.937  20.740  0.00  0.00    +0.000 A 
ATOM     13  C   UNL     1       1.206  11.930  19.821  0.00  0.00    +0.000 A 
ATOM     14  C   UNL     1       0.562  10.687  19.878  0.00  0.00    +0.000 A 
ATOM     15  C   UNL     1      -0.407  10.475  20.864  0.00  0.00    +0.000 A 
ATOM     16  C   UNL     1      -0.725  11.488  21.782  0.00  0.00    +0.000 A 
BRANCH  11  18
ATOM     17  C   UNL     1      -1.428  13.633  23.437  0.00  0.00    +0.000 C 
ATOM     18  O   UNL     1      -0.315  13.773  22.560  0.00  0.00    +0.000 OA
ENDBRANCH  11  18
ENDBRANCH   7  14
ENDBRANCH   6   9
ENDBRANCH   1   6
BRANCH   4  19
ATOM     19  S   UNL     1       1.591   2.925  19.980  0.00  0.00    +0.000 S 
BRANCH  19  20
ATOM     20  C   UNL     1       2.473   1.879  18.786  0.00  0.00    +0.000 C 
BRANCH  20  21
ATOM     21  C   UNL     1       3.010   2.722  17.642  0.00  0.00    +0.000 C 
ATOM     22  O   UNL     1       2.294   3.099  16.716  0.00  0.00    +0.000 OA
ATOM     23  N   UNL     1       4.356   3.013  17.709  0.00  0.00    +0.000 N 
ATOM     24  H   UNL     1       4.938   2.547  18.399  0.00  0.00    +0.000 HD
BRANCH  23  25
ATOM     25  C   UNL     1       4.998   3.696  16.610  0.00  0.00    +0.000 C 
BRANCH  25  26
ATOM     26  C   UNL     1       5.887   4.823  17.067  0.00  0.00    +0.000 A 
ATOM     27  C   UNL     1       5.672   6.139  16.620  0.00  0.00    +0.000 A 
ATOM     28  C   UNL     1       6.484   7.182  17.066  0.00  0.00    +0.000 A 
ATOM     29  C   UNL     1       7.507   6.917  17.965  0.00  0.00    +0.000 A 
ATOM     30  F   UNL     1       8.285   7.920  18.395  0.00  0.00    +0.000 F 
ATOM     31  C   UNL     1       7.733   5.628  18.427  0.00  0.00    +0.000 A 
ATOM     32  C   UNL     1       6.926   4.582  17.978  0.00  0.00    +0.000 A 
ENDBRANCH  25  26
ENDBRANCH  23  25
ENDBRANCH  20  21
ENDBRANCH  19  20
ENDBRANCH   4  19
TORSDOF 9
ENDMDL
MODEL 9
REMARK VINA RESULT:      -7.3      2.803      3.232
REMARK  Name = 
REMARK  10 active torsions:
REMARK  status: ('A' for Active; 'I' for Inactive)
REMARK    1  A    between atoms: C_1  and  O_2
REMARK    2  A    between atoms: O_2  and  C_3
REMARK    3  A    between atoms: C_6  and  C_7
REMARK    4  A    between atoms: N_9  and  C_10
REMARK    5  A    between atoms: C_10  and  C_11
REMARK    6  A    between atoms: C_14  and  S_15
REMARK    7  A    between atoms: S_15  and  C_16
REMARK    8  A    between atoms: C_16  and  C_17
REMARK    9  A    between atoms: N_19  and  C_20
REMARK   10  A    between atoms: C_20  and  C_21
REMARK                            x       y       z     vdW  Elec       q    Type
REMARK                         _______ _______ _______ _____ _____    ______ ____
ROOT
ATOM      1  C   UNL     1       2.252   5.815  18.564  0.00  0.00    +0.000 A 
ATOM      2  N   UNL     1       1.539   5.017  17.797  0.00  0.00    +0.000 NA
ATOM      3  N   UNL     1       1.300   3.879  18.537  0.00  0.00    +0.000 NA
ATOM      4  C   UNL     1       1.872   4.062  19.710  0.00  0.00    +0.000 A 
ATOM      5  O   UNL     1       2.484   5.283  19.805  0.00  0.00    +0.000 OA
ENDROOT
BRANCH   1   6
ATOM      6  C   UNL     1       2.793   7.168  18.284  0.00  0.00    +0.000 C 
BRANCH   6   9
ATOM      7  C   UNL     1       1.684   9.346  18.483  0.00  0.00    +0.000 C 
ATOM      8  O   UNL     1       1.919   9.597  17.306  0.00  0.00    +0.000 OA
ATOM      9  N   UNL     1       2.080   8.160  19.066  0.00  0.00    +0.000 N 
ATOM     10  H   UNL     1       2.011   8.018  20.061  0.00  0.00    +0.000 HD
BRANCH   7  14
ATOM     11  C   UNL     1      -0.453  12.093  21.033  0.00  0.00    +0.000 A 
ATOM     12  C   UNL     1      -0.774  10.737  21.003  0.00  0.00    +0.000 A 
ATOM     13  C   UNL     1      -0.071   9.859  20.169  0.00  0.00    +0.000 A 
ATOM     14  C   UNL     1       0.954  10.334  19.341  0.00  0.00    +0.000 A 
ATOM     15  C   UNL     1       1.264  11.698  19.368  0.00  0.00    +0.000 A 
ATOM     16  C   UNL     1       0.558  12.574  20.206  0.00  0.00    +0.000 A 
BRANCH  11  18
ATOM     17  C   UNL     1      -1.642  12.216  23.074  0.00  0.00    +0.000 C 
ATOM     18  O   UNL     1      -1.208  12.858  21.880  0.00  0.00    +0.000 OA
ENDBRANCH  11  18
ENDBRANCH   7  14
ENDBRANCH   6   9
ENDBRANCH   1   6
BRANCH   4  19
ATOM     19  S   UNL     1       1.870   2.905  21.002  0.00  0.00    +0.000 S 
BRANCH  19  20
ATOM     20  C   UNL     1       3.590   2.326  20.941  0.00  0.00    +0.000 C 
BRANCH  20  21
ATOM     21  C   UNL     1       4.146   2.469  19.534  0.00  0.00    +0.000 C 
ATOM     22  O   UNL     1       3.882   1.665  18.642  0.00  0.00    +0.000 OA
ATOM     23  N   UNL     1       4.979   3.550  19.340  0.00  0.00    +0.000 N 
ATOM     24  H   UNL     1       5.298   4.089  20.140  0.00  0.00    +0.000 HD
BRANCH  23  25
ATOM     25  C   UNL     1       5.665   3.710  18.079  0.00  0.00    +0.000 C 
BRANCH  25  26
ATOM     26  C   UNL     1       6.373   5.034  17.967  0.00  0.00    +0.000 A 
ATOM     27  C   UNL     1       5.971   5.989  17.017  0.00  0.00    +0.000 A 
ATOM     28  C   UNL     1       6.616   7.224  16.935  0.00  0.00    +0.000 A 
ATOM     29  C   UNL     1       7.658   7.512  17.805  0.00  0.00    +0.000 A 
ATOM     30  F   UNL     1       8.275   8.699  17.727  0.00  0.00    +0.000 F 
ATOM     31  C   UNL     1       8.066   6.589  18.757  0.00  0.00    +0.000 A 
ATOM     32  C   UNL     1       7.427   5.351  18.837  0.00  0.00    +0.000 A 
ENDBRANCH  25  26
ENDBRANCH  23  25
ENDBRANCH  20  21
ENDBRANCH  19  20
ENDBRANCH   4  19
TORSDOF 9
ENDMDL
