MODEL 1
REMARK VINA RESULT:      -7.1      0.000      0.000
REMARK  Name = 
REMARK  11 active torsions:
REMARK  status: ('A' for Active; 'I' for Inactive)
REMARK    1  A    between atoms: C_1  and  O_2
REMARK    2  A    between atoms: O_2  and  C_3
REMARK    3  A    between atoms: C_6  and  N_7
REMARK    4  A    between atoms: N_7  and  C_8
REMARK    5  A    between atoms: N_11  and  C_12
REMARK    6  A    between atoms: C_16  and  C_17
REMARK    7  A    between atoms: C_26  and  O_27
REMARK    8  A    between atoms: O_27  and  C_28
REMARK    9  A    between atoms: C_28  and  C_29
REMARK   10  A    between atoms: C_29  and  C_30
REMARK   11  A    between atoms: C_30  and  N_31
REMARK                            x       y       z     vdW  Elec       q    Type
REMARK                         _______ _______ _______ _____ _____    ______ ____
ROOT
ATOM      1  C   UNL     1      -2.640  10.354  16.988  0.00  0.00    +0.000 A 
ATOM      2  C   UNL     1      -1.430  10.411  17.687  0.00  0.00    +0.000 A 
ATOM      3  C   UNL     1      -1.226  11.283  18.762  0.00  0.00    +0.000 A 
ATOM      4  C   UNL     1       0.040  11.401  19.397  0.00  0.00    +0.000 A 
ATOM      5  C   UNL     1       0.108  12.236  20.497  0.00  0.00    +0.000 A 
ATOM      6  C   UNL     1      -1.003  12.984  20.881  0.00  0.00    +0.000 A 
ATOM      7  N   UNL     1      -2.199  12.905  20.254  0.00  0.00    +0.000 NA
ATOM      8  C   UNL     1      -2.317  12.060  19.221  0.00  0.00    +0.000 A 
ATOM      9  C   UNL     1      -3.551  11.930  18.572  0.00  0.00    +0.000 A 
ATOM     10  C   UNL     1      -3.738  11.084  17.464  0.00  0.00    +0.000 A 
ENDROOT
BRANCH   6  11
ATOM     11  C   UNL     1      -0.875  13.928  22.001  0.00  0.00    +0.000 C 
ATOM     12  C   UNL     1       0.057  14.893  22.012  0.00  0.00    +0.000 C 
ATOM     13  C   UNL     1       0.157  15.906  23.110  0.00  0.00    +0.000 C 
ATOM     14  O   UNL     1      -0.999  15.916  23.956  0.00  0.00    +0.000 OA
ATOM     15  C   UNL     1      -1.368  14.600  24.363  0.00  0.00    +0.000 C 
ATOM     16  C   UNL     1      -1.836  13.798  23.157  0.00  0.00    +0.000 C 
ENDBRANCH   6  11
BRANCH   1  18
ATOM     17  C   UNL     1      -2.966  10.081  14.600  0.00  0.00    +0.000 C 
ATOM     18  O   UNL     1      -2.764   9.535  15.897  0.00  0.00    +0.000 OA
ENDBRANCH   1  18
BRANCH   4  19
ATOM     19  N   UNL     1       1.154  10.620  19.020  0.00  0.00    +0.000 N 
ATOM     20  H   UNL     1       2.012  10.932  19.463  0.00  0.00    +0.000 HD
BRANCH  19  21
ATOM     21  C   UNL     1       1.106   9.136  19.001  0.00  0.00    +0.000 C 
ATOM     22  C   UNL     1       1.340   8.580  20.412  0.00  0.00    +0.000 C 
ATOM     23  C   UNL     1       1.797   7.124  20.444  0.00  0.00    +0.000 C 
ATOM     24  N   UNL     1       2.915   6.883  19.529  0.00  0.00    +0.000 NA
ATOM     25  C   UNL     1       3.372   5.494  19.644  0.00  0.00    +0.000 C 
ATOM     26  C   UNL     1       2.517   7.171  18.148  0.00  0.00    +0.000 C 
ATOM     27  C   UNL     1       2.136   8.638  17.974  0.00  0.00    +0.000 C 
ENDBRANCH  19  21
ENDBRANCH   4  19
BRANCH  10  28
ATOM     28  O   UNL     1      -5.033  11.072  16.975  0.00  0.00    +0.000 OA
BRANCH  28  29
ATOM     29  C   UNL     1      -5.996  11.737  17.791  0.00  0.00    +0.000 C 
BRANCH  29  30
ATOM     30  C   UNL     1      -6.824  10.802  18.663  0.00  0.00    +0.000 C 
BRANCH  30  31
ATOM     31  C   UNL     1      -7.488  11.652  19.763  0.00  0.00    +0.000 C 
BRANCH  31  32
ATOM     32  N   UNL     1      -6.925  11.471  21.109  0.00  0.00    +0.000 NA
ATOM     33  C   UNL     1      -7.906  11.711  22.179  0.00  0.00    +0.000 C 
ATOM     34  C   UNL     1      -7.915  13.215  22.356  0.00  0.00    +0.000 C 
ATOM     35  C   UNL     1      -6.440  13.549  22.262  0.00  0.00    +0.000 C 
ATOM     36  C   UNL     1      -5.853  12.461  21.361  0.00  0.00    +0.000 C 
ENDBRANCH  31  32
ENDBRANCH  30  31
ENDBRANCH  29  30
ENDBRANCH  28  29
ENDBRANCH  10  28
TORSDOF 9
ENDMDL
MODEL 2
REMARK VINA RESULT:      -6.9      3.558      7.475
REMARK  Name = 
REMARK  11 active torsions:
REMARK  status: ('A' for Active; 'I' for Inactive)
REMARK    1  A    between atoms: C_1  and  O_2
REMARK    2  A    between atoms: O_2  and  C_3
REMARK    3  A    between atoms: C_6  and  N_7
REMARK    4  A    between atoms: N_7  and  C_8
REMARK    5  A    between atoms: N_11  and  C_12
REMARK    6  A    between atoms: C_16  and  C_17
REMARK    7  A    between atoms: C_26  and  O_27
REMARK    8  A    between atoms: O_27  and  C_28
REMARK    9  A    between atoms: C_28  and  C_29
REMARK   10  A    between atoms: C_29  and  C_30
REMARK   11  A    between atoms: C_30  and  N_31
REMARK                            x       y       z     vdW  Elec       q    Type
REMARK                         _______ _______ _______ _____ _____    ______ ____
ROOT
ATOM      1  C   UNL     1       1.599  10.686  18.753  0.00  0.00    +0.000 A 
ATOM      2  C   UNL     1       2.214   9.642  18.053  0.00  0.00    +0.000 A 
ATOM      3  C   UNL     1       2.300   8.345  18.568  0.00  0.00    +0.000 A 
ATOM      4  C   UNL     1       3.014   7.319  17.891  0.00  0.00    +0.000 A 
ATOM      5  C   UNL     1       2.970   6.056  18.452  0.00  0.00    +0.000 A 
ATOM      6  C   UNL     1       2.326   5.851  19.670  0.00  0.00    +0.000 A 
ATOM      7  N   UNL     1       1.680   6.833  20.338  0.00  0.00    +0.000 NA
ATOM      8  C   UNL     1       1.652   8.057  19.794  0.00  0.00    +0.000 A 
ATOM      9  C   UNL     1       0.962   9.087  20.444  0.00  0.00    +0.000 A 
ATOM     10  C   UNL     1       0.916  10.401  19.943  0.00  0.00    +0.000 A 
ENDROOT
BRANCH   6  11
ATOM     11  C   UNL     1       2.370   4.515  20.285  0.00  0.00    +0.000 C 
ATOM     12  C   UNL     1       1.464   4.123  21.194  0.00  0.00    +0.000 C 
ATOM     13  C   UNL     1       1.452   2.745  21.777  0.00  0.00    +0.000 C 
ATOM     14  O   UNL     1       2.293   1.835  21.058  0.00  0.00    +0.000 OA
ATOM     15  C   UNL     1       3.584   2.390  20.814  0.00  0.00    +0.000 C 
ATOM     16  C   UNL     1       3.467   3.570  19.861  0.00  0.00    +0.000 C 
ENDBRANCH   6  11
BRANCH   1  18
ATOM     17  C   UNL     1       2.402  12.974  18.827  0.00  0.00    +0.000 C 
ATOM     18  O   UNL     1       1.606  11.956  18.237  0.00  0.00    +0.000 OA
ENDBRANCH   1  18
BRANCH   4  19
ATOM     19  N   UNL     1       3.640   7.528  16.642  0.00  0.00    +0.000 N 
ATOM     20  H   UNL     1       3.628   8.503  16.363  0.00  0.00    +0.000 HD
BRANCH  19  21
ATOM     21  C   UNL     1       4.953   6.922  16.308  0.00  0.00    +0.000 C 
ATOM     22  C   UNL     1       4.832   5.393  16.246  0.00  0.00    +0.000 C 
ATOM     23  C   UNL     1       6.157   4.653  16.401  0.00  0.00    +0.000 C 
ATOM     24  N   UNL     1       6.917   5.131  17.558  0.00  0.00    +0.000 NA
ATOM     25  C   UNL     1       8.146   4.346  17.716  0.00  0.00    +0.000 C 
ATOM     26  C   UNL     1       7.242   6.552  17.404  0.00  0.00    +0.000 C 
ATOM     27  C   UNL     1       5.981   7.408  17.343  0.00  0.00    +0.000 C 
ENDBRANCH  19  21
ENDBRANCH   4  19
BRANCH  10  28
ATOM     28  O   UNL     1       0.164  11.272  20.713  0.00  0.00    +0.000 OA
BRANCH  28  29
ATOM     29  C   UNL     1      -1.247  11.070  20.656  0.00  0.00    +0.000 C 
BRANCH  29  30
ATOM     30  C   UNL     1      -1.982  12.069  19.772  0.00  0.00    +0.000 C 
BRANCH  30  31
ATOM     31  C   UNL     1      -2.043  11.481  18.349  0.00  0.00    +0.000 C 
BRANCH  31  32
ATOM     32  N   UNL     1      -3.313  10.823  18.006  0.00  0.00    +0.000 NA
ATOM     33  C   UNL     1      -3.126   9.512  17.366  0.00  0.00    +0.000 C 
ATOM     34  C   UNL     1      -2.867   9.834  15.909  0.00  0.00    +0.000 C 
ATOM     35  C   UNL     1      -3.875  10.936  15.649  0.00  0.00    +0.000 C 
ATOM     36  C   UNL     1      -4.056  11.622  17.004  0.00  0.00    +0.000 C 
ENDBRANCH  31  32
ENDBRANCH  30  31
ENDBRANCH  29  30
ENDBRANCH  28  29
ENDBRANCH  10  28
TORSDOF 9
ENDMDL
MODEL 3
REMARK VINA RESULT:      -6.9      3.233      8.211
REMARK  Name = 
REMARK  11 active torsions:
REMARK  status: ('A' for Active; 'I' for Inactive)
REMARK    1  A    between atoms: C_1  and  O_2
REMARK    2  A    between atoms: O_2  and  C_3
REMARK    3  A    between atoms: C_6  and  N_7
REMARK    4  A    between atoms: N_7  and  C_8
REMARK    5  A    between atoms: N_11  and  C_12
REMARK    6  A    between atoms: C_16  and  C_17
REMARK    7  A    between atoms: C_26  and  O_27
REMARK    8  A    between atoms: O_27  and  C_28
REMARK    9  A    between atoms: C_28  and  C_29
REMARK   10  A    between atoms: C_29  and  C_30
REMARK   11  A    between atoms: C_30  and  N_31
REMARK                            x       y       z     vdW  Elec       q    Type
REMARK                         _______ _______ _______ _____ _____    ______ ____
ROOT
ATOM      1  C   UNL     1       0.380   9.715  20.423  0.00  0.00    +0.000 A 
ATOM      2  C   UNL     1      -0.045  10.920  20.991  0.00  0.00    +0.000 A 
ATOM      3  C   UNL     1       0.291  12.164  20.446  0.00  0.00    +0.000 A 
ATOM      4  C   UNL     1      -0.064  13.381  21.089  0.00  0.00    +0.000 A 
ATOM      5  C   UNL     1       0.253  14.551  20.423  0.00  0.00    +0.000 A 
ATOM      6  C   UNL     1       0.967  14.508  19.229  0.00  0.00    +0.000 A 
ATOM      7  N   UNL     1       1.342  13.353  18.634  0.00  0.00    +0.000 NA
ATOM      8  C   UNL     1       1.001  12.199  19.221  0.00  0.00    +0.000 A 
ATOM      9  C   UNL     1       1.344  10.985  18.613  0.00  0.00    +0.000 A 
ATOM     10  C   UNL     1       1.041   9.738  19.187  0.00  0.00    +0.000 A 
ENDROOT
BRANCH   6  11
ATOM     11  C   UNL     1       1.365  15.772  18.589  0.00  0.00    +0.000 C 
ATOM     12  C   UNL     1       2.594  15.953  18.081  0.00  0.00    +0.000 C 
ATOM     13  C   UNL     1       2.993  17.206  17.366  0.00  0.00    +0.000 C 
ATOM     14  O   UNL     1       1.871  18.029  17.028  0.00  0.00    +0.000 OA
ATOM     15  C   UNL     1       0.993  18.207  18.138  0.00  0.00    +0.000 C 
ATOM     16  C   UNL     1       0.344  16.879  18.501  0.00  0.00    +0.000 C 
ENDBRANCH   6  11
BRANCH   1  18
ATOM     17  C   UNL     1      -0.433   8.502  22.360  0.00  0.00    +0.000 C 
ATOM     18  O   UNL     1       0.084   8.526  21.037  0.00  0.00    +0.000 OA
ENDBRANCH   1  18
BRANCH   4  19
ATOM     19  N   UNL     1      -0.812  13.417  22.285  0.00  0.00    +0.000 N 
ATOM     20  H   UNL     1      -0.304  13.854  23.047  0.00  0.00    +0.000 HD
BRANCH  19  21
ATOM     21  C   UNL     1      -2.233  13.847  22.314  0.00  0.00    +0.000 C 
ATOM     22  C   UNL     1      -2.720  13.971  23.764  0.00  0.00    +0.000 C 
ATOM     23  C   UNL     1      -4.237  13.919  23.922  0.00  0.00    +0.000 C 
ATOM     24  N   UNL     1      -4.822  12.783  23.205  0.00  0.00    +0.000 NA
ATOM     25  C   UNL     1      -6.268  12.726  23.443  0.00  0.00    +0.000 C 
ATOM     26  C   UNL     1      -4.550  12.891  21.769  0.00  0.00    +0.000 C 
ATOM     27  C   UNL     1      -3.052  12.847  21.482  0.00  0.00    +0.000 C 
ENDBRANCH  19  21
ENDBRANCH   4  19
BRANCH  10  28
ATOM     28  O   UNL     1       1.440   8.653  18.425  0.00  0.00    +0.000 OA
BRANCH  28  29
ATOM     29  C   UNL     1       2.301   7.729  19.088  0.00  0.00    +0.000 C 
BRANCH  29  30
ATOM     30  C   UNL     1       2.583   6.462  18.291  0.00  0.00    +0.000 C 
BRANCH  30  31
ATOM     31  C   UNL     1       3.261   5.454  19.239  0.00  0.00    +0.000 C 
BRANCH  31  32
ATOM     32  N   UNL     1       2.892   4.048  19.013  0.00  0.00    +0.000 NA
ATOM     33  C   UNL     1       1.448   3.859  18.808  0.00  0.00    +0.000 C 
ATOM     34  C   UNL     1       0.868   3.815  20.207  0.00  0.00    +0.000 C 
ATOM     35  C   UNL     1       1.890   2.971  20.942  0.00  0.00    +0.000 C 
ATOM     36  C   UNL     1       3.207   3.231  20.208  0.00  0.00    +0.000 C 
ENDBRANCH  31  32
ENDBRANCH  30  31
ENDBRANCH  29  30
ENDBRANCH  28  29
ENDBRANCH  10  28
TORSDOF 9
ENDMDL
MODEL 4
REMARK VINA RESULT:      -6.8      3.554      9.053
REMARK  Name = 
REMARK  11 active torsions:
REMARK  status: ('A' for Active; 'I' for Inactive)
REMARK    1  A    between atoms: C_1  and  O_2
REMARK    2  A    between atoms: O_2  and  C_3
REMARK    3  A    between atoms: C_6  and  N_7
REMARK    4  A    between atoms: N_7  and  C_8
REMARK    5  A    between atoms: N_11  and  C_12
REMARK    6  A    between atoms: C_16  and  C_17
REMARK    7  A    between atoms: C_26  and  O_27
REMARK    8  A    between atoms: O_27  and  C_28
REMARK    9  A    between atoms: C_28  and  C_29
REMARK   10  A    between atoms: C_29  and  C_30
REMARK   11  A    between atoms: C_30  and  N_31
REMARK                            x       y       z     vdW  Elec       q    Type
REMARK                         _______ _______ _______ _____ _____    ______ ____
ROOT
ATOM      1  C   UNL     1       0.797   9.417  20.257  0.00  0.00    +0.000 A 
ATOM      2  C   UNL     1       0.446  10.623  20.873  0.00  0.00    +0.000 A 
ATOM      3  C   UNL     1       0.758  11.868  20.315  0.00  0.00    +0.000 A 
ATOM      4  C   UNL     1       0.484  13.082  21.000  0.00  0.00    +0.000 A 
ATOM      5  C   UNL     1       0.764  14.254  20.322  0.00  0.00    +0.000 A 
ATOM      6  C   UNL     1       1.371  14.214  19.070  0.00  0.00    +0.000 A 
ATOM      7  N   UNL     1       1.671  13.060  18.432  0.00  0.00    +0.000 NA
ATOM      8  C   UNL     1       1.359  11.904  19.033  0.00  0.00    +0.000 A 
ATOM      9  C   UNL     1       1.626  10.693  18.384  0.00  0.00    +0.000 A 
ATOM     10  C   UNL     1       1.349   9.444  18.969  0.00  0.00    +0.000 A 
ENDROOT
BRANCH   6  11
ATOM     11  C   UNL     1       1.736  15.478  18.412  0.00  0.00    +0.000 C 
ATOM     12  C   UNL     1       2.911  15.636  17.783  0.00  0.00    +0.000 C 
ATOM     13  C   UNL     1       3.270  16.891  17.050  0.00  0.00    +0.000 C 
ATOM     14  O   UNL     1       2.143  17.750  16.842  0.00  0.00    +0.000 OA
ATOM     15  C   UNL     1       1.389  17.930  18.040  0.00  0.00    +0.000 C 
ATOM     16  C   UNL     1       0.744  16.613  18.448  0.00  0.00    +0.000 C 
ENDBRANCH   6  11
BRANCH   1  18
ATOM     17  C   UNL     1      -0.420   8.155  21.933  0.00  0.00    +0.000 C 
ATOM     18  O   UNL     1       0.533   8.226  20.881  0.00  0.00    +0.000 OA
ENDBRANCH   1  18
BRANCH   4  19
ATOM     19  N   UNL     1      -0.158  13.116  22.257  0.00  0.00    +0.000 N 
ATOM     20  H   UNL     1       0.436  13.503  22.983  0.00  0.00    +0.000 HD
BRANCH  19  21
ATOM     21  C   UNL     1      -1.546  13.615  22.420  0.00  0.00    +0.000 C 
ATOM     22  C   UNL     1      -1.824  13.938  23.895  0.00  0.00    +0.000 C 
ATOM     23  C   UNL     1      -3.305  13.979  24.259  0.00  0.00    +0.000 C 
ATOM     24  N   UNL     1      -4.020  12.795  23.776  0.00  0.00    +0.000 NA
ATOM     25  C   UNL     1      -5.420  12.838  24.210  0.00  0.00    +0.000 C 
ATOM     26  C   UNL     1      -3.946  12.716  22.315  0.00  0.00    +0.000 C 
ATOM     27  C   UNL     1      -2.504  12.564  21.838  0.00  0.00    +0.000 C 
ENDBRANCH  19  21
ENDBRANCH   4  19
BRANCH  10  28
ATOM     28  O   UNL     1       1.659   8.362  18.163  0.00  0.00    +0.000 OA
BRANCH  28  29
ATOM     29  C   UNL     1       3.032   8.257  17.790  0.00  0.00    +0.000 C 
BRANCH  29  30
ATOM     30  C   UNL     1       3.619   6.862  17.967  0.00  0.00    +0.000 C 
BRANCH  30  31
ATOM     31  C   UNL     1       4.713   6.676  16.898  0.00  0.00    +0.000 C 
BRANCH  31  32
ATOM     32  N   UNL     1       4.862   5.300  16.399  0.00  0.00    +0.000 NA
ATOM     33  C   UNL     1       5.655   4.446  17.297  0.00  0.00    +0.000 C 
ATOM     34  C   UNL     1       7.095   4.759  16.945  0.00  0.00    +0.000 C 
ATOM     35  C   UNL     1       7.037   4.833  15.432  0.00  0.00    +0.000 C 
ATOM     36  C   UNL     1       5.610   5.290  15.121  0.00  0.00    +0.000 C 
ENDBRANCH  31  32
ENDBRANCH  30  31
ENDBRANCH  29  30
ENDBRANCH  28  29
ENDBRANCH  10  28
TORSDOF 9
ENDMDL
MODEL 5
REMARK VINA RESULT:      -6.8      3.347      8.304
REMARK  Name = 
REMARK  11 active torsions:
REMARK  status: ('A' for Active; 'I' for Inactive)
REMARK    1  A    between atoms: C_1  and  O_2
REMARK    2  A    between atoms: O_2  and  C_3
REMARK    3  A    between atoms: C_6  and  N_7
REMARK    4  A    between atoms: N_7  and  C_8
REMARK    5  A    between atoms: N_11  and  C_12
REMARK    6  A    between atoms: C_16  and  C_17
REMARK    7  A    between atoms: C_26  and  O_27
REMARK    8  A    between atoms: O_27  and  C_28
REMARK    9  A    between atoms: C_28  and  C_29
REMARK   10  A    between atoms: C_29  and  C_30
REMARK   11  A    between atoms: C_30  and  N_31
REMARK                            x       y       z     vdW  Elec       q    Type
REMARK                         _______ _______ _______ _____ _____    ______ ____
ROOT
ATOM      1  C   UNL     1       0.796   9.190  20.046  0.00  0.00    +0.000 A 
ATOM      2  C   UNL     1       0.375  10.356  20.692  0.00  0.00    +0.000 A 
ATOM      3  C   UNL     1       0.694  11.633  20.216  0.00  0.00    +0.000 A 
ATOM      4  C   UNL     1       0.344  12.807  20.937  0.00  0.00    +0.000 A 
ATOM      5  C   UNL     1       0.641  14.016  20.337  0.00  0.00    +0.000 A 
ATOM      6  C   UNL     1       1.332  14.050  19.128  0.00  0.00    +0.000 A 
ATOM      7  N   UNL     1       1.702  12.935  18.458  0.00  0.00    +0.000 NA
ATOM      8  C   UNL     1       1.379  11.745  18.982  0.00  0.00    +0.000 A 
ATOM      9  C   UNL     1       1.718  10.572  18.296  0.00  0.00    +0.000 A 
ATOM     10  C   UNL     1       1.433   9.291  18.801  0.00  0.00    +0.000 A 
ENDROOT
BRANCH   6  11
ATOM     11  C   UNL     1       1.709  15.352  18.558  0.00  0.00    +0.000 C 
ATOM     12  C   UNL     1       2.883  15.539  17.934  0.00  0.00    +0.000 C 
ATOM     13  C   UNL     1       3.254  16.837  17.287  0.00  0.00    +0.000 C 
ATOM     14  O   UNL     1       2.136  17.722  17.147  0.00  0.00    +0.000 OA
ATOM     15  C   UNL     1       1.392  17.828  18.359  0.00  0.00    +0.000 C 
ATOM     16  C   UNL     1       0.732  16.494  18.679  0.00  0.00    +0.000 C 
ENDBRANCH   6  11
BRANCH   1  18
ATOM     17  C   UNL     1       1.561   7.155  21.121  0.00  0.00    +0.000 C 
ATOM     18  O   UNL     1       0.520   7.964  20.592  0.00  0.00    +0.000 OA
ENDBRANCH   1  18
BRANCH   4  19
ATOM     19  N   UNL     1      -0.382  12.765  22.148  0.00  0.00    +0.000 N 
ATOM     20  H   UNL     1       0.192  13.002  22.950  0.00  0.00    +0.000 HD
BRANCH  19  21
ATOM     21  C   UNL     1      -1.723  13.388  22.284  0.00  0.00    +0.000 C 
ATOM     22  C   UNL     1      -2.052  13.617  23.766  0.00  0.00    +0.000 C 
ATOM     23  C   UNL     1      -3.541  13.779  24.059  0.00  0.00    +0.000 C 
ATOM     24  N   UNL     1      -4.338  12.716  23.442  0.00  0.00    +0.000 NA
ATOM     25  C   UNL     1      -5.750  12.865  23.808  0.00  0.00    +0.000 C 
ATOM     26  C   UNL     1      -4.188  12.746  21.984  0.00  0.00    +0.000 C 
ATOM     27  C   UNL     1      -2.743  12.488  21.568  0.00  0.00    +0.000 C 
ENDBRANCH  19  21
ENDBRANCH   4  19
BRANCH  10  28
ATOM     28  O   UNL     1       1.824   8.256  17.968  0.00  0.00    +0.000 OA
BRANCH  28  29
ATOM     29  C   UNL     1       3.233   8.080  17.839  0.00  0.00    +0.000 C 
BRANCH  29  30
ATOM     30  C   UNL     1       3.652   6.657  17.492  0.00  0.00    +0.000 C 
BRANCH  30  31
ATOM     31  C   UNL     1       3.783   5.873  18.813  0.00  0.00    +0.000 C 
BRANCH  31  32
ATOM     32  N   UNL     1       3.698   4.411  18.674  0.00  0.00    +0.000 NA
ATOM     33  C   UNL     1       2.873   3.989  17.532  0.00  0.00    +0.000 C 
ATOM     34  C   UNL     1       1.450   4.052  18.047  0.00  0.00    +0.000 C 
ATOM     35  C   UNL     1       1.597   3.471  19.440  0.00  0.00    +0.000 C 
ATOM     36  C   UNL     1       3.028   3.817  19.855  0.00  0.00    +0.000 C 
ENDBRANCH  31  32
ENDBRANCH  30  31
ENDBRANCH  29  30
ENDBRANCH  28  29
ENDBRANCH  10  28
TORSDOF 9
ENDMDL
MODEL 6
REMARK VINA RESULT:      -6.7      3.603      7.300
REMARK  Name = 
REMARK  11 active torsions:
REMARK  status: ('A' for Active; 'I' for Inactive)
REMARK    1  A    between atoms: C_1  and  O_2
REMARK    2  A    between atoms: O_2  and  C_3
REMARK    3  A    between atoms: C_6  and  N_7
REMARK    4  A    between atoms: N_7  and  C_8
REMARK    5  A    between atoms: N_11  and  C_12
REMARK    6  A    between atoms: C_16  and  C_17
REMARK    7  A    between atoms: C_26  and  O_27
REMARK    8  A    between atoms: O_27  and  C_28
REMARK    9  A    between atoms: C_28  and  C_29
REMARK   10  A    between atoms: C_29  and  C_30
REMARK   11  A    between atoms: C_30  and  N_31
REMARK                            x       y       z     vdW  Elec       q    Type
REMARK                         _______ _______ _______ _____ _____    ______ ____
ROOT
ATOM      1  C   UNL     1       1.340  10.565  18.721  0.00  0.00    +0.000 A 
ATOM      2  C   UNL     1       2.056   9.568  18.049  0.00  0.00    +0.000 A 
ATOM      3  C   UNL     1       2.232   8.286  18.579  0.00  0.00    +0.000 A 
ATOM      4  C   UNL     1       3.044   7.316  17.932  0.00  0.00    +0.000 A 
ATOM      5  C   UNL     1       3.086   6.058  18.505  0.00  0.00    +0.000 A 
ATOM      6  C   UNL     1       2.428   5.812  19.708  0.00  0.00    +0.000 A 
ATOM      7  N   UNL     1       1.687   6.744  20.348  0.00  0.00    +0.000 NA
ATOM      8  C   UNL     1       1.576   7.957  19.791  0.00  0.00    +0.000 A 
ATOM      9  C   UNL     1       0.788   8.934  20.411  0.00  0.00    +0.000 A 
ATOM     10  C   UNL     1       0.650  10.235  19.895  0.00  0.00    +0.000 A 
ENDROOT
BRANCH   6  11
ATOM     11  C   UNL     1       2.562   4.489  20.337  0.00  0.00    +0.000 C 
ATOM     12  C   UNL     1       3.593   3.674  20.062  0.00  0.00    +0.000 C 
ATOM     13  C   UNL     1       3.781   2.355  20.745  0.00  0.00    +0.000 C 
ATOM     14  O   UNL     1       2.944   2.206  21.897  0.00  0.00    +0.000 OA
ATOM     15  C   UNL     1       1.593   2.568  21.618  0.00  0.00    +0.000 C 
ATOM     16  C   UNL     1       1.506   4.059  21.325  0.00  0.00    +0.000 C 
ENDBRANCH   6  11
BRANCH   1  18
ATOM     17  C   UNL     1       2.292  12.776  18.420  0.00  0.00    +0.000 C 
ATOM     18  O   UNL     1       1.259  11.826  18.192  0.00  0.00    +0.000 OA
ENDBRANCH   1  18
BRANCH   4  19
ATOM     19  N   UNL     1       3.684   7.563  16.698  0.00  0.00    +0.000 N 
ATOM     20  H   UNL     1       3.689   8.549  16.457  0.00  0.00    +0.000 HD
BRANCH  19  21
ATOM     21  C   UNL     1       4.992   6.952  16.352  0.00  0.00    +0.000 C 
ATOM     22  C   UNL     1       4.858   5.426  16.265  0.00  0.00    +0.000 C 
ATOM     23  C   UNL     1       6.176   4.672  16.407  0.00  0.00    +0.000 C 
ATOM     24  N   UNL     1       6.942   5.124  17.571  0.00  0.00    +0.000 NA
ATOM     25  C   UNL     1       8.164   4.326  17.714  0.00  0.00    +0.000 C 
ATOM     26  C   UNL     1       7.279   6.545  17.439  0.00  0.00    +0.000 C 
ATOM     27  C   UNL     1       6.025   7.412  17.394  0.00  0.00    +0.000 C 
ENDBRANCH  19  21
ENDBRANCH   4  19
BRANCH  10  28
ATOM     28  O   UNL     1      -0.189  11.050  20.636  0.00  0.00    +0.000 OA
BRANCH  28  29
ATOM     29  C   UNL     1      -0.645  10.492  21.867  0.00  0.00    +0.000 C 
BRANCH  29  30
ATOM     30  C   UNL     1      -0.897  11.523  22.960  0.00  0.00    +0.000 C 
BRANCH  30  31
ATOM     31  C   UNL     1      -2.379  11.939  22.879  0.00  0.00    +0.000 C 
BRANCH  31  32
ATOM     32  N   UNL     1      -2.610  13.314  22.412  0.00  0.00    +0.000 NA
ATOM     33  C   UNL     1      -1.637  14.276  22.953  0.00  0.00    +0.000 C 
ATOM     34  C   UNL     1      -2.170  14.624  24.327  0.00  0.00    +0.000 C 
ATOM     35  C   UNL     1      -3.657  14.752  24.062  0.00  0.00    +0.000 C 
ATOM     36  C   UNL     1      -3.923  13.809  22.887  0.00  0.00    +0.000 C 
ENDBRANCH  31  32
ENDBRANCH  30  31
ENDBRANCH  29  30
ENDBRANCH  28  29
ENDBRANCH  10  28
TORSDOF 9
ENDMDL
MODEL 7
REMARK VINA RESULT:      -6.7      3.080      8.369
REMARK  Name = 
REMARK  11 active torsions:
REMARK  status: ('A' for Active; 'I' for Inactive)
REMARK    1  A    between atoms: C_1  and  O_2
REMARK    2  A    between atoms: O_2  and  C_3
REMARK    3  A    between atoms: C_6  and  N_7
REMARK    4  A    between atoms: N_7  and  C_8
REMARK    5  A    between atoms: N_11  and  C_12
REMARK    6  A    between atoms: C_16  and  C_17
REMARK    7  A    between atoms: C_26  and  O_27
REMARK    8  A    between atoms: O_27  and  C_28
REMARK    9  A    between atoms: C_28  and  C_29
REMARK   10  A    between atoms: C_29  and  C_30
REMARK   11  A    between atoms: C_30  and  N_31
REMARK                            x       y       z     vdW  Elec       q    Type
REMARK                         _______ _______ _______ _____ _____    ______ ____
ROOT
ATOM      1  C   UNL     1      -0.244  10.527  21.333  0.00  0.00    +0.000 A 
ATOM      2  C   UNL     1      -0.955  11.691  21.645  0.00  0.00    +0.000 A 
ATOM      3  C   UNL     1      -0.766  12.892  20.954  0.00  0.00    +0.000 A 
ATOM      4  C   UNL     1      -1.423  14.090  21.346  0.00  0.00    +0.000 A 
ATOM      5  C   UNL     1      -1.222  15.199  20.546  0.00  0.00    +0.000 A 
ATOM      6  C   UNL     1      -0.342  15.139  19.469  0.00  0.00    +0.000 A 
ATOM      7  N   UNL     1       0.316  14.011  19.116  0.00  0.00    +0.000 NA
ATOM      8  C   UNL     1       0.100  12.901  19.834  0.00  0.00    +0.000 A 
ATOM      9  C   UNL     1       0.739  11.708  19.473  0.00  0.00    +0.000 A 
ATOM     10  C   UNL     1       0.579  10.514  20.199  0.00  0.00    +0.000 A 
ENDROOT
BRANCH   6  11
ATOM     11  C   UNL     1      -0.083  16.358  18.688  0.00  0.00    +0.000 C 
ATOM     12  C   UNL     1       1.144  16.664  18.238  0.00  0.00    +0.000 C 
ATOM     13  C   UNL     1       1.412  17.865  17.384  0.00  0.00    +0.000 C 
ATOM     14  O   UNL     1       0.213  18.453  16.868  0.00  0.00    +0.000 OA
ATOM     15  C   UNL     1      -0.769  18.629  17.888  0.00  0.00    +0.000 C 
ATOM     16  C   UNL     1      -1.244  17.273  18.388  0.00  0.00    +0.000 C 
ENDBRANCH   6  11
BRANCH   1  18
ATOM     17  C   UNL     1      -0.014   9.369  23.452  0.00  0.00    +0.000 C 
ATOM     18  O   UNL     1      -0.413   9.396  22.088  0.00  0.00    +0.000 OA
ENDBRANCH   1  18
BRANCH   4  19
ATOM     19  N   UNL     1      -2.336  14.137  22.422  0.00  0.00    +0.000 N 
ATOM     20  H   UNL     1      -2.055  14.799  23.138  0.00  0.00    +0.000 HD
BRANCH  19  21
ATOM     21  C   UNL     1      -3.803  14.217  22.209  0.00  0.00    +0.000 C 
ATOM     22  C   UNL     1      -4.534  14.252  23.558  0.00  0.00    +0.000 C 
ATOM     23  C   UNL     1      -6.002  13.843  23.485  0.00  0.00    +0.000 C 
ATOM     24  N   UNL     1      -6.184  12.585  22.756  0.00  0.00    +0.000 NA
ATOM     25  C   UNL     1      -7.596  12.190  22.773  0.00  0.00    +0.000 C 
ATOM     26  C   UNL     1      -5.714  12.725  21.374  0.00  0.00    +0.000 C 
ATOM     27  C   UNL     1      -4.221  13.033  21.322  0.00  0.00    +0.000 C 
ENDBRANCH  19  21
ENDBRANCH   4  19
BRANCH  10  28
ATOM     28  O   UNL     1       1.272   9.437  19.673  0.00  0.00    +0.000 OA
BRANCH  28  29
ATOM     29  C   UNL     1       1.305   9.373  18.248  0.00  0.00    +0.000 C 
BRANCH  29  30
ATOM     30  C   UNL     1       2.352   8.417  17.694  0.00  0.00    +0.000 C 
BRANCH  30  31
ATOM     31  C   UNL     1       2.501   7.254  18.693  0.00  0.00    +0.000 C 
BRANCH  31  32
ATOM     32  N   UNL     1       2.438   5.912  18.094  0.00  0.00    +0.000 NA
ATOM     33  C   UNL     1       2.117   4.861  19.072  0.00  0.00    +0.000 C 
ATOM     34  C   UNL     1       3.442   4.535  19.729  0.00  0.00    +0.000 C 
ATOM     35  C   UNL     1       4.388   4.540  18.544  0.00  0.00    +0.000 C 
ATOM     36  C   UNL     1       3.761   5.523  17.554  0.00  0.00    +0.000 C 
ENDBRANCH  31  32
ENDBRANCH  30  31
ENDBRANCH  29  30
ENDBRANCH  28  29
ENDBRANCH  10  28
TORSDOF 9
ENDMDL
MODEL 8
REMARK VINA RESULT:      -6.7      3.882      7.926
REMARK  Name = 
REMARK  11 active torsions:
REMARK  status: ('A' for Active; 'I' for Inactive)
REMARK    1  A    between atoms: C_1  and  O_2
REMARK    2  A    between atoms: O_2  and  C_3
REMARK    3  A    between atoms: C_6  and  N_7
REMARK    4  A    between atoms: N_7  and  C_8
REMARK    5  A    between atoms: N_11  and  C_12
REMARK    6  A    between atoms: C_16  and  C_17
REMARK    7  A    between atoms: C_26  and  O_27
REMARK    8  A    between atoms: O_27  and  C_28
REMARK    9  A    between atoms: C_28  and  C_29
REMARK   10  A    between atoms: C_29  and  C_30
REMARK   11  A    between atoms: C_30  and  N_31
REMARK                            x       y       z     vdW  Elec       q    Type
REMARK                         _______ _______ _______ _____ _____    ______ ____
ROOT
ATOM      1  C   UNL     1       1.538   8.674  19.870  0.00  0.00    +0.000 A 
ATOM      2  C   UNL     1       1.368  10.050  19.686  0.00  0.00    +0.000 A 
ATOM      3  C   UNL     1       0.547  10.821  20.517  0.00  0.00    +0.000 A 
ATOM      4  C   UNL     1       0.306  12.198  20.258  0.00  0.00    +0.000 A 
ATOM      5  C   UNL     1      -0.460  12.879  21.186  0.00  0.00    +0.000 A 
ATOM      6  C   UNL     1      -1.029  12.201  22.262  0.00  0.00    +0.000 A 
ATOM      7  N   UNL     1      -0.835  10.882  22.489  0.00  0.00    +0.000 NA
ATOM      8  C   UNL     1      -0.050  10.203  21.642  0.00  0.00    +0.000 A 
ATOM      9  C   UNL     1       0.199   8.844  21.870  0.00  0.00    +0.000 A 
ATOM     10  C   UNL     1       0.990   8.065  21.007  0.00  0.00    +0.000 A 
ENDROOT
BRANCH   6  11
ATOM     11  C   UNL     1      -1.909  12.936  23.183  0.00  0.00    +0.000 C 
ATOM     12  C   UNL     1      -1.527  14.084  23.764  0.00  0.00    +0.000 C 
ATOM     13  C   UNL     1      -2.435  14.879  24.650  0.00  0.00    +0.000 C 
ATOM     14  O   UNL     1      -3.800  14.455  24.564  0.00  0.00    +0.000 OA
ATOM     15  C   UNL     1      -3.920  13.038  24.672  0.00  0.00    +0.000 C 
ATOM     16  C   UNL     1      -3.279  12.371  23.463  0.00  0.00    +0.000 C 
ENDBRANCH   6  11
BRANCH   1  18
ATOM     17  C   UNL     1       2.494   8.415  17.656  0.00  0.00    +0.000 C 
ATOM     18  O   UNL     1       2.296   7.953  18.985  0.00  0.00    +0.000 OA
ENDBRANCH   1  18
BRANCH   4  19
ATOM     19  N   UNL     1       0.909  12.884  19.182  0.00  0.00    +0.000 N 
ATOM     20  H   UNL     1       0.261  13.054  18.420  0.00  0.00    +0.000 HD
BRANCH  19  21
ATOM     21  C   UNL     1       1.767  14.078  19.391  0.00  0.00    +0.000 C 
ATOM     22  C   UNL     1       2.366  14.540  18.055  0.00  0.00    +0.000 C 
ATOM     23  C   UNL     1       3.611  15.411  18.196  0.00  0.00    +0.000 C 
ATOM     24  N   UNL     1       4.595  14.815  19.102  0.00  0.00    +0.000 NA
ATOM     25  C   UNL     1       5.804  15.645  19.152  0.00  0.00    +0.000 C 
ATOM     26  C   UNL     1       4.028  14.668  20.446  0.00  0.00    +0.000 C 
ATOM     27  C   UNL     1       2.829  13.725  20.444  0.00  0.00    +0.000 C 
ENDBRANCH  19  21
ENDBRANCH   4  19
BRANCH  10  28
ATOM     28  O   UNL     1       1.140   6.749  21.412  0.00  0.00    +0.000 OA
BRANCH  28  29
ATOM     29  C   UNL     1       1.727   5.880  20.446  0.00  0.00    +0.000 C 
BRANCH  29  30
ATOM     30  C   UNL     1       1.239   4.439  20.529  0.00  0.00    +0.000 C 
BRANCH  30  31
ATOM     31  C   UNL     1       2.480   3.525  20.550  0.00  0.00    +0.000 C 
BRANCH  31  32
ATOM     32  N   UNL     1       2.435   2.401  19.602  0.00  0.00    +0.000 NA
ATOM     33  C   UNL     1       3.750   2.087  19.021  0.00  0.00    +0.000 C 
ATOM     34  C   UNL     1       3.907   3.075  17.883  0.00  0.00    +0.000 C 
ATOM     35  C   UNL     1       2.520   3.072  17.273  0.00  0.00    +0.000 C 
ATOM     36  C   UNL     1       1.585   2.738  18.437  0.00  0.00    +0.000 C 
ENDBRANCH  31  32
ENDBRANCH  30  31
ENDBRANCH  29  30
ENDBRANCH  28  29
ENDBRANCH  10  28
TORSDOF 9
ENDMDL
MODEL 9
REMARK VINA RESULT:      -6.6      3.471      9.072
REMARK  Name = 
REMARK  11 active torsions:
REMARK  status: ('A' for Active; 'I' for Inactive)
REMARK    1  A    between atoms: C_1  and  O_2
REMARK    2  A    between atoms: O_2  and  C_3
REMARK    3  A    between atoms: C_6  and  N_7
REMARK    4  A    between atoms: N_7  and  C_8
REMARK    5  A    between atoms: N_11  and  C_12
REMARK    6  A    between atoms: C_16  and  C_17
REMARK    7  A    between atoms: C_26  and  O_27
REMARK    8  A    between atoms: O_27  and  C_28
REMARK    9  A    between atoms: C_28  and  C_29
REMARK   10  A    between atoms: C_29  and  C_30
REMARK   11  A    between atoms: C_30  and  N_31
REMARK                            x       y       z     vdW  Elec       q    Type
REMARK                         _______ _______ _______ _____ _____    ______ ____
ROOT
ATOM      1  C   UNL     1       0.897   9.096  20.141  0.00  0.00    +0.000 A 
ATOM      2  C   UNL     1       0.481  10.277  20.765  0.00  0.00    +0.000 A 
ATOM      3  C   UNL     1       0.798  11.543  20.259  0.00  0.00    +0.000 A 
ATOM      4  C   UNL     1       0.454  12.732  20.956  0.00  0.00    +0.000 A 
ATOM      5  C   UNL     1       0.748  13.928  20.327  0.00  0.00    +0.000 A 
ATOM      6  C   UNL     1       1.432  13.935  19.114  0.00  0.00    +0.000 A 
ATOM      7  N   UNL     1       1.797  12.805  18.466  0.00  0.00    +0.000 NA
ATOM      8  C   UNL     1       1.475  11.627  19.018  0.00  0.00    +0.000 A 
ATOM      9  C   UNL     1       1.809  10.439  18.356  0.00  0.00    +0.000 A 
ATOM     10  C   UNL     1       1.526   9.170  18.891  0.00  0.00    +0.000 A 
ENDROOT
BRANCH   6  11
ATOM     11  C   UNL     1       1.807  15.223  18.512  0.00  0.00    +0.000 C 
ATOM     12  C   UNL     1       2.974  15.394  17.873  0.00  0.00    +0.000 C 
ATOM     13  C   UNL     1       3.342  16.677  17.195  0.00  0.00    +0.000 C 
ATOM     14  O   UNL     1       2.225  17.562  17.049  0.00  0.00    +0.000 OA
ATOM     15  C   UNL     1       1.494  17.695  18.266  0.00  0.00    +0.000 C 
ATOM     16  C   UNL     1       0.833  16.371  18.620  0.00  0.00    +0.000 C 
ENDBRANCH   6  11
BRANCH   1  18
ATOM     17  C   UNL     1       1.637   6.895  20.842  0.00  0.00    +0.000 C 
ATOM     18  O   UNL     1       0.623   7.883  20.717  0.00  0.00    +0.000 OA
ENDBRANCH   1  18
BRANCH   4  19
ATOM     19  N   UNL     1      -0.264  12.719  22.172  0.00  0.00    +0.000 N 
ATOM     20  H   UNL     1       0.318  12.963  22.967  0.00  0.00    +0.000 HD
BRANCH  19  21
ATOM     21  C   UNL     1      -1.598  13.356  22.307  0.00  0.00    +0.000 C 
ATOM     22  C   UNL     1      -1.950  13.540  23.790  0.00  0.00    +0.000 C 
ATOM     23  C   UNL     1      -3.441  13.715  24.063  0.00  0.00    +0.000 C 
ATOM     24  N   UNL     1      -4.242  12.686  23.396  0.00  0.00    +0.000 NA
ATOM     25  C   UNL     1      -5.658  12.844  23.743  0.00  0.00    +0.000 C 
ATOM     26  C   UNL     1      -4.066  12.763  21.943  0.00  0.00    +0.000 C 
ATOM     27  C   UNL     1      -2.618  12.497  21.543  0.00  0.00    +0.000 C 
ENDBRANCH  19  21
ENDBRANCH   4  19
BRANCH  10  28
ATOM     28  O   UNL     1       1.910   8.116  18.078  0.00  0.00    +0.000 OA
BRANCH  28  29
ATOM     29  C   UNL     1       3.232   8.209  17.549  0.00  0.00    +0.000 C 
BRANCH  29  30
ATOM     30  C   UNL     1       4.082   6.967  17.784  0.00  0.00    +0.000 C 
BRANCH  30  31
ATOM     31  C   UNL     1       4.718   6.573  16.436  0.00  0.00    +0.000 C 
BRANCH  31  32
ATOM     32  N   UNL     1       6.185   6.670  16.393  0.00  0.00    +0.000 NA
ATOM     33  C   UNL     1       6.819   5.508  15.750  0.00  0.00    +0.000 C 
ATOM     34  C   UNL     1       6.893   4.462  16.843  0.00  0.00    +0.000 C 
ATOM     35  C   UNL     1       7.312   5.292  18.041  0.00  0.00    +0.000 C 
ATOM     36  C   UNL     1       6.744   6.685  17.764  0.00  0.00    +0.000 C 
ENDBRANCH  31  32
ENDBRANCH  30  31
ENDBRANCH  29  30
ENDBRANCH  28  29
ENDBRANCH  10  28
TORSDOF 9
ENDMDL
