MODEL 1
REMARK VINA RESULT:      -8.2      0.000      0.000
REMARK  Name = 
REMARK  5 active torsions:
REMARK  status: ('A' for Active; 'I' for Inactive)
REMARK    1  A    between atoms: C_1  and  C_2
REMARK    2  A    between atoms: C_2  and  C_3
REMARK    3  A    between atoms: C_3  and  C_4
REMARK    4  A    between atoms: C_3  and  C_13
REMARK    5  A    between atoms: C_11  and  C_12
REMARK                            x       y       z     vdW  Elec       q    Type
REMARK                         _______ _______ _______ _____ _____    ______ ____
ROOT
ATOM      1  C   UNL     1       2.966   5.618  19.767  0.00  0.00    +0.000 C 
ENDROOT
BRANCH   1   2
ATOM      2  C   UNL     1       3.966   5.075  18.743  0.00  0.00    +0.000 C 
ATOM      3  O   UNL     1       3.575   4.410  17.787  0.00  0.00    +0.000 OA
ATOM      4  N   UNL     1       5.282   5.432  18.950  0.00  0.00    +0.000 N 
ATOM      5  C   UNL     1       6.266   5.051  18.060  0.00  0.00    +0.000 A 
ATOM      6  N   UNL     1       7.432   4.574  18.488  0.00  0.00    +0.000 NA
ATOM      7  O   UNL     1       8.136   4.235  17.337  0.00  0.00    +0.000 OA
ATOM      8  N   UNL     1       7.452   4.630  16.195  0.00  0.00    +0.000 NA
ATOM      9  C   UNL     1       6.307   5.153  16.643  0.00  0.00    +0.000 A 
ATOM     10  C   UNL     1       5.387   5.840  15.708  0.00  0.00    +0.000 C 
ATOM     11  H   UNL     1       5.597   5.480  19.911  0.00  0.00    +0.000 HD
ENDBRANCH   1   2
BRANCH   1  12
ATOM     12  C   UNL     1       2.431   7.014  19.433  0.00  0.00    +0.000 A 
ATOM     13  C   UNL     1       2.534   7.576  18.146  0.00  0.00    +0.000 A 
ATOM     14  C   UNL     1       1.948   8.808  17.846  0.00  0.00    +0.000 A 
ATOM     15  C   UNL     1       1.260   9.499  18.831  0.00  0.00    +0.000 A 
ATOM     16  F   UNL     1       0.681  10.670  18.537  0.00  0.00    +0.000 F 
ATOM     17  C   UNL     1       1.154   8.981  20.116  0.00  0.00    +0.000 A 
ATOM     18  C   UNL     1       1.731   7.743  20.417  0.00  0.00    +0.000 A 
ENDBRANCH   1  12
BRANCH   1  20
ATOM     19  C   UNL     1       2.155   3.669  21.236  0.00  0.00    +0.000 C 
ATOM     20  C   UNL     1       1.877   4.556  20.029  0.00  0.00    +0.000 C 
ENDBRANCH   1  20
TORSDOF 3
ENDMDL
MODEL 2
REMARK VINA RESULT:      -8.1      0.160      1.118
REMARK  Name = 
REMARK  5 active torsions:
REMARK  status: ('A' for Active; 'I' for Inactive)
REMARK    1  A    between atoms: C_1  and  C_2
REMARK    2  A    between atoms: C_2  and  C_3
REMARK    3  A    between atoms: C_3  and  C_4
REMARK    4  A    between atoms: C_3  and  C_13
REMARK    5  A    between atoms: C_11  and  C_12
REMARK                            x       y       z     vdW  Elec       q    Type
REMARK                         _______ _______ _______ _____ _____    ______ ____
ROOT
ATOM      1  C   UNL     1       3.009   5.508  19.844  0.00  0.00    +0.000 C 
ENDROOT
BRANCH   1   2
ATOM      2  C   UNL     1       4.004   4.988  18.803  0.00  0.00    +0.000 C 
ATOM      3  O   UNL     1       3.612   4.315  17.853  0.00  0.00    +0.000 OA
ATOM      4  N   UNL     1       5.315   5.375  18.989  0.00  0.00    +0.000 N 
ATOM      5  C   UNL     1       6.292   5.015  18.082  0.00  0.00    +0.000 A 
ATOM      6  N   UNL     1       7.475   4.565  18.492  0.00  0.00    +0.000 NA
ATOM      7  O   UNL     1       8.168   4.243  17.330  0.00  0.00    +0.000 OA
ATOM      8  N   UNL     1       7.458   4.622  16.199  0.00  0.00    +0.000 NA
ATOM      9  C   UNL     1       6.308   5.120  16.665  0.00  0.00    +0.000 A 
ATOM     10  C   UNL     1       5.358   5.786  15.746  0.00  0.00    +0.000 C 
ATOM     11  H   UNL     1       5.644   5.429  19.945  0.00  0.00    +0.000 HD
ENDBRANCH   1   2
BRANCH   1  12
ATOM     12  C   UNL     1       2.380   6.858  19.482  0.00  0.00    +0.000 A 
ATOM     13  C   UNL     1       1.728   7.667  20.431  0.00  0.00    +0.000 A 
ATOM     14  C   UNL     1       1.253   8.938  20.093  0.00  0.00    +0.000 A 
ATOM     15  C   UNL     1       1.416   9.410  18.800  0.00  0.00    +0.000 A 
ATOM     16  F   UNL     1       0.980  10.635  18.484  0.00  0.00    +0.000 F 
ATOM     17  C   UNL     1       2.040   8.630  17.835  0.00  0.00    +0.000 A 
ATOM     18  C   UNL     1       2.525   7.362  18.173  0.00  0.00    +0.000 A 
ENDBRANCH   1  12
BRANCH   1  20
ATOM     19  C   UNL     1       2.228   3.730  21.530  0.00  0.00    +0.000 C 
ATOM     20  C   UNL     1       1.993   4.394  20.179  0.00  0.00    +0.000 C 
ENDBRANCH   1  20
TORSDOF 3
ENDMDL
MODEL 3
REMARK VINA RESULT:      -8.0      2.521      3.986
REMARK  Name = 
REMARK  5 active torsions:
REMARK  status: ('A' for Active; 'I' for Inactive)
REMARK    1  A    between atoms: C_1  and  C_2
REMARK    2  A    between atoms: C_2  and  C_3
REMARK    3  A    between atoms: C_3  and  C_4
REMARK    4  A    between atoms: C_3  and  C_13
REMARK    5  A    between atoms: C_11  and  C_12
REMARK                            x       y       z     vdW  Elec       q    Type
REMARK                         _______ _______ _______ _____ _____    ______ ____
ROOT
ATOM      1  C   UNL     1       2.559   5.466  18.338  0.00  0.00    +0.000 C 
ENDROOT
BRANCH   1   2
ATOM      2  C   UNL     1       3.786   4.910  17.610  0.00  0.00    +0.000 C 
ATOM      3  O   UNL     1       3.649   4.158  16.648  0.00  0.00    +0.000 OA
ATOM      4  N   UNL     1       5.006   5.357  18.075  0.00  0.00    +0.000 N 
ATOM      5  C   UNL     1       6.180   4.970  17.461  0.00  0.00    +0.000 A 
ATOM      6  N   UNL     1       7.237   4.593  18.177  0.00  0.00    +0.000 NA
ATOM      7  O   UNL     1       8.196   4.215  17.244  0.00  0.00    +0.000 OA
ATOM      8  N   UNL     1       7.775   4.488  15.949  0.00  0.00    +0.000 NA
ATOM      9  C   UNL     1       6.537   4.975  16.086  0.00  0.00    +0.000 A 
ATOM     10  C   UNL     1       5.827   5.539  14.916  0.00  0.00    +0.000 C 
ATOM     11  H   UNL     1       5.092   5.490  19.075  0.00  0.00    +0.000 HD
ENDBRANCH   1   2
BRANCH   1  12
ATOM     12  C   UNL     1       2.045   4.566  19.466  0.00  0.00    +0.000 A 
ATOM     13  C   UNL     1       1.093   3.552  19.250  0.00  0.00    +0.000 A 
ATOM     14  C   UNL     1       0.718   2.681  20.278  0.00  0.00    +0.000 A 
ATOM     15  C   UNL     1       1.283   2.821  21.535  0.00  0.00    +0.000 A 
ATOM     16  F   UNL     1       0.939   1.974  22.513  0.00  0.00    +0.000 F 
ATOM     17  C   UNL     1       2.212   3.823  21.787  0.00  0.00    +0.000 A 
ATOM     18  C   UNL     1       2.597   4.689  20.758  0.00  0.00    +0.000 A 
ENDBRANCH   1  12
BRANCH   1  20
ATOM     19  C   UNL     1       2.529   7.948  17.663  0.00  0.00    +0.000 C 
ATOM     20  C   UNL     1       2.831   6.928  18.753  0.00  0.00    +0.000 C 
ENDBRANCH   1  20
TORSDOF 3
ENDMDL
MODEL 4
REMARK VINA RESULT:      -8.0      2.594      4.141
REMARK  Name = 
REMARK  5 active torsions:
REMARK  status: ('A' for Active; 'I' for Inactive)
REMARK    1  A    between atoms: C_1  and  C_2
REMARK    2  A    between atoms: C_2  and  C_3
REMARK    3  A    between atoms: C_3  and  C_4
REMARK    4  A    between atoms: C_3  and  C_13
REMARK    5  A    between atoms: C_11  and  C_12
REMARK                            x       y       z     vdW  Elec       q    Type
REMARK                         _______ _______ _______ _____ _____    ______ ____
ROOT
ATOM      1  C   UNL     1       2.581   6.350  18.135  0.00  0.00    +0.000 C 
ENDROOT
BRANCH   1   2
ATOM      2  C   UNL     1       3.971   6.220  17.507  0.00  0.00    +0.000 C 
ATOM      3  O   UNL     1       4.751   7.170  17.523  0.00  0.00    +0.000 OA
ATOM      4  N   UNL     1       4.278   4.977  16.994  0.00  0.00    +0.000 N 
ATOM      5  C   UNL     1       5.523   4.723  16.455  0.00  0.00    +0.000 A 
ATOM      6  N   UNL     1       5.652   4.058  15.310  0.00  0.00    +0.000 NA
ATOM      7  O   UNL     1       7.017   4.049  15.042  0.00  0.00    +0.000 OA
ATOM      8  N   UNL     1       7.740   4.593  16.095  0.00  0.00    +0.000 NA
ATOM      9  C   UNL     1       6.817   4.989  16.978  0.00  0.00    +0.000 A 
ATOM     10  C   UNL     1       7.227   5.470  18.317  0.00  0.00    +0.000 C 
ATOM     11  H   UNL     1       3.526   4.471  16.543  0.00  0.00    +0.000 HD
ENDBRANCH   1   2
BRANCH   1  12
ATOM     12  C   UNL     1       2.239   5.231  19.125  0.00  0.00    +0.000 A 
ATOM     13  C   UNL     1       2.660   5.255  20.468  0.00  0.00    +0.000 A 
ATOM     14  C   UNL     1       2.249   4.271  21.371  0.00  0.00    +0.000 A 
ATOM     15  C   UNL     1       1.421   3.246  20.940  0.00  0.00    +0.000 A 
ATOM     16  F   UNL     1       1.011   2.316  21.812  0.00  0.00    +0.000 F 
ATOM     17  C   UNL     1       1.002   3.184  19.618  0.00  0.00    +0.000 A 
ATOM     18  C   UNL     1       1.404   4.172  18.713  0.00  0.00    +0.000 A 
ENDBRANCH   1  12
BRANCH   1  20
ATOM     19  C   UNL     1       1.670   8.725  17.751  0.00  0.00    +0.000 C 
ATOM     20  C   UNL     1       2.405   7.779  18.693  0.00  0.00    +0.000 C 
ENDBRANCH   1  20
TORSDOF 3
ENDMDL
MODEL 5
REMARK VINA RESULT:      -7.9      2.670      4.131
REMARK  Name = 
REMARK  5 active torsions:
REMARK  status: ('A' for Active; 'I' for Inactive)
REMARK    1  A    between atoms: C_1  and  C_2
REMARK    2  A    between atoms: C_2  and  C_3
REMARK    3  A    between atoms: C_3  and  C_4
REMARK    4  A    between atoms: C_3  and  C_13
REMARK    5  A    between atoms: C_11  and  C_12
REMARK                            x       y       z     vdW  Elec       q    Type
REMARK                         _______ _______ _______ _____ _____    ______ ____
ROOT
ATOM      1  C   UNL     1       2.688   5.647  18.113  0.00  0.00    +0.000 C 
ENDROOT
BRANCH   1   2
ATOM      2  C   UNL     1       3.994   5.243  17.422  0.00  0.00    +0.000 C 
ATOM      3  O   UNL     1       4.277   4.056  17.276  0.00  0.00    +0.000 OA
ATOM      4  N   UNL     1       4.762   6.286  16.948  0.00  0.00    +0.000 N 
ATOM      5  C   UNL     1       5.932   6.043  16.256  0.00  0.00    +0.000 A 
ATOM      6  N   UNL     1       7.038   6.738  16.512  0.00  0.00    +0.000 NA
ATOM      7  O   UNL     1       8.016   6.188  15.691  0.00  0.00    +0.000 OA
ATOM      8  N   UNL     1       7.477   5.240  14.832  0.00  0.00    +0.000 NA
ATOM      9  C   UNL     1       6.185   5.166  15.167  0.00  0.00    +0.000 A 
ATOM     10  C   UNL     1       5.247   4.372  14.342  0.00  0.00    +0.000 C 
ATOM     11  H   UNL     1       4.787   7.128  17.510  0.00  0.00    +0.000 HD
ENDBRANCH   1   2
BRANCH   1  12
ATOM     12  C   UNL     1       2.251   4.687  19.224  0.00  0.00    +0.000 A 
ATOM     13  C   UNL     1       2.743   4.779  20.540  0.00  0.00    +0.000 A 
ATOM     14  C   UNL     1       2.251   3.954  21.555  0.00  0.00    +0.000 A 
ATOM     15  C   UNL     1       1.269   3.020  21.265  0.00  0.00    +0.000 A 
ATOM     16  F   UNL     1       0.783   2.245  22.243  0.00  0.00    +0.000 F 
ATOM     17  C   UNL     1       0.774   2.892  19.973  0.00  0.00    +0.000 A 
ATOM     18  C   UNL     1       1.258   3.722  18.957  0.00  0.00    +0.000 A 
ENDBRANCH   1  12
BRANCH   1  20
ATOM     19  C   UNL     1       1.810   8.042  17.790  0.00  0.00    +0.000 C 
ATOM     20  C   UNL     1       2.773   7.128  18.537  0.00  0.00    +0.000 C 
ENDBRANCH   1  20
TORSDOF 3
ENDMDL
MODEL 6
REMARK VINA RESULT:      -7.9      2.605      4.089
REMARK  Name = 
REMARK  5 active torsions:
REMARK  status: ('A' for Active; 'I' for Inactive)
REMARK    1  A    between atoms: C_1  and  C_2
REMARK    2  A    between atoms: C_2  and  C_3
REMARK    3  A    between atoms: C_3  and  C_4
REMARK    4  A    between atoms: C_3  and  C_13
REMARK    5  A    between atoms: C_11  and  C_12
REMARK                            x       y       z     vdW  Elec       q    Type
REMARK                         _______ _______ _______ _____ _____    ______ ____
ROOT
ATOM      1  C   UNL     1       2.537   6.380  18.104  0.00  0.00    +0.000 C 
ENDROOT
BRANCH   1   2
ATOM      2  C   UNL     1       3.950   6.228  17.533  0.00  0.00    +0.000 C 
ATOM      3  O   UNL     1       4.749   7.159  17.600  0.00  0.00    +0.000 OA
ATOM      4  N   UNL     1       4.250   4.986  17.013  0.00  0.00    +0.000 N 
ATOM      5  C   UNL     1       5.512   4.712  16.523  0.00  0.00    +0.000 A 
ATOM      6  N   UNL     1       5.676   4.064  15.372  0.00  0.00    +0.000 NA
ATOM      7  O   UNL     1       7.050   4.027  15.164  0.00  0.00    +0.000 OA
ATOM      8  N   UNL     1       7.739   4.536  16.256  0.00  0.00    +0.000 NA
ATOM      9  C   UNL     1       6.788   4.940  17.105  0.00  0.00    +0.000 A 
ATOM     10  C   UNL     1       7.150   5.388  18.469  0.00  0.00    +0.000 C 
ATOM     11  H   UNL     1       3.508   4.505  16.520  0.00  0.00    +0.000 HD
ENDBRANCH   1   2
BRANCH   1  12
ATOM     12  C   UNL     1       2.129   5.254  19.060  0.00  0.00    +0.000 A 
ATOM     13  C   UNL     1       1.435   4.109  18.628  0.00  0.00    +0.000 A 
ATOM     14  C   UNL     1       1.165   3.054  19.504  0.00  0.00    +0.000 A 
ATOM     15  C   UNL     1       1.576   3.137  20.825  0.00  0.00    +0.000 A 
ATOM     16  F   UNL     1       1.336   2.116  21.658  0.00  0.00    +0.000 F 
ATOM     17  C   UNL     1       2.248   4.261  21.289  0.00  0.00    +0.000 A 
ATOM     18  C   UNL     1       2.529   5.314  20.412  0.00  0.00    +0.000 A 
ENDBRANCH   1  12
BRANCH   1  20
ATOM     19  C   UNL     1       1.672   8.772  17.728  0.00  0.00    +0.000 C 
ATOM     20  C   UNL     1       2.369   7.804  18.675  0.00  0.00    +0.000 C 
ENDBRANCH   1  20
TORSDOF 3
ENDMDL
MODEL 7
REMARK VINA RESULT:      -7.7      2.513      4.063
REMARK  Name = 
REMARK  5 active torsions:
REMARK  status: ('A' for Active; 'I' for Inactive)
REMARK    1  A    between atoms: C_1  and  C_2
REMARK    2  A    between atoms: C_2  and  C_3
REMARK    3  A    between atoms: C_3  and  C_4
REMARK    4  A    between atoms: C_3  and  C_13
REMARK    5  A    between atoms: C_11  and  C_12
REMARK                            x       y       z     vdW  Elec       q    Type
REMARK                         _______ _______ _______ _____ _____    ______ ____
ROOT
ATOM      1  C   UNL     1       2.596   5.361  18.375  0.00  0.00    +0.000 C 
ENDROOT
BRANCH   1   2
ATOM      2  C   UNL     1       3.804   4.855  17.583  0.00  0.00    +0.000 C 
ATOM      3  O   UNL     1       3.644   4.139  16.597  0.00  0.00    +0.000 OA
ATOM      4  N   UNL     1       5.033   5.304  18.021  0.00  0.00    +0.000 N 
ATOM      5  C   UNL     1       6.190   4.962  17.350  0.00  0.00    +0.000 A 
ATOM      6  N   UNL     1       7.278   4.575  18.011  0.00  0.00    +0.000 NA
ATOM      7  O   UNL     1       8.208   4.250  17.030  0.00  0.00    +0.000 OA
ATOM      8  N   UNL     1       7.735   4.566  15.764  0.00  0.00    +0.000 NA
ATOM      9  C   UNL     1       6.496   5.026  15.964  0.00  0.00    +0.000 A 
ATOM     10  C   UNL     1       5.735   5.623  14.844  0.00  0.00    +0.000 C 
ATOM     11  H   UNL     1       5.154   5.400  19.021  0.00  0.00    +0.000 HD
ENDBRANCH   1   2
BRANCH   1  12
ATOM     12  C   UNL     1       2.162   4.427  19.510  0.00  0.00    +0.000 A 
ATOM     13  C   UNL     1       2.682   4.528  20.813  0.00  0.00    +0.000 A 
ATOM     14  C   UNL     1       2.194   3.729  21.851  0.00  0.00    +0.000 A 
ATOM     15  C   UNL     1       1.187   2.812  21.594  0.00  0.00    +0.000 A 
ATOM     16  F   UNL     1       0.705   2.061  22.593  0.00  0.00    +0.000 F 
ATOM     17  C   UNL     1       0.663   2.675  20.315  0.00  0.00    +0.000 A 
ATOM     18  C   UNL     1       1.143   3.480  19.277  0.00  0.00    +0.000 A 
ENDBRANCH   1  12
BRANCH   1  20
ATOM     19  C   UNL     1       2.405   7.854  17.770  0.00  0.00    +0.000 C 
ATOM     20  C   UNL     1       2.844   6.824  18.804  0.00  0.00    +0.000 C 
ENDBRANCH   1  20
TORSDOF 3
ENDMDL
MODEL 8
REMARK VINA RESULT:      -7.6      3.853      5.679
REMARK  Name = 
REMARK  5 active torsions:
REMARK  status: ('A' for Active; 'I' for Inactive)
REMARK    1  A    between atoms: C_1  and  C_2
REMARK    2  A    between atoms: C_2  and  C_3
REMARK    3  A    between atoms: C_3  and  C_4
REMARK    4  A    between atoms: C_3  and  C_13
REMARK    5  A    between atoms: C_11  and  C_12
REMARK                            x       y       z     vdW  Elec       q    Type
REMARK                         _______ _______ _______ _____ _____    ______ ____
ROOT
ATOM      1  C   UNL     1       4.669   4.897  17.161  0.00  0.00    +0.000 C 
ENDROOT
BRANCH   1   2
ATOM      2  C   UNL     1       3.721   4.597  18.325  0.00  0.00    +0.000 C 
ATOM      3  O   UNL     1       2.757   5.327  18.543  0.00  0.00    +0.000 OA
ATOM      4  N   UNL     1       4.002   3.452  19.041  0.00  0.00    +0.000 N 
ATOM      5  C   UNL     1       3.183   3.048  20.076  0.00  0.00    +0.000 A 
ATOM      6  N   UNL     1       3.694   2.625  21.230  0.00  0.00    +0.000 NA
ATOM      7  O   UNL     1       2.597   2.371  22.046  0.00  0.00    +0.000 OA
ATOM      8  N   UNL     1       1.406   2.510  21.346  0.00  0.00    +0.000 NA
ATOM      9  C   UNL     1       1.770   2.907  20.123  0.00  0.00    +0.000 A 
ATOM     10  C   UNL     1       0.765   2.996  19.040  0.00  0.00    +0.000 C 
ATOM     11  H   UNL     1       4.980   3.230  19.182  0.00  0.00    +0.000 HD
ENDBRANCH   1   2
BRANCH   1  12
ATOM     12  C   UNL     1       5.882   5.749  17.550  0.00  0.00    +0.000 A 
ATOM     13  C   UNL     1       6.121   7.021  16.997  0.00  0.00    +0.000 A 
ATOM     14  C   UNL     1       7.179   7.817  17.445  0.00  0.00    +0.000 A 
ATOM     15  C   UNL     1       8.016   7.346  18.444  0.00  0.00    +0.000 A 
ATOM     16  F   UNL     1       9.017   8.118  18.887  0.00  0.00    +0.000 F 
ATOM     17  C   UNL     1       7.819   6.088  18.999  0.00  0.00    +0.000 A 
ATOM     18  C   UNL     1       6.755   5.293  18.559  0.00  0.00    +0.000 A 
ENDBRANCH   1  12
BRANCH   1  20
ATOM     19  C   UNL     1       5.919   3.762  15.220  0.00  0.00    +0.000 C 
ATOM     20  C   UNL     1       5.015   3.580  16.433  0.00  0.00    +0.000 C 
ENDBRANCH   1  20
TORSDOF 3
ENDMDL
MODEL 9
REMARK VINA RESULT:      -7.6      2.691      4.043
REMARK  Name = 
REMARK  5 active torsions:
REMARK  status: ('A' for Active; 'I' for Inactive)
REMARK    1  A    between atoms: C_1  and  C_2
REMARK    2  A    between atoms: C_2  and  C_3
REMARK    3  A    between atoms: C_3  and  C_4
REMARK    4  A    between atoms: C_3  and  C_13
REMARK    5  A    between atoms: C_11  and  C_12
REMARK                            x       y       z     vdW  Elec       q    Type
REMARK                         _______ _______ _______ _____ _____    ______ ____
ROOT
ATOM      1  C   UNL     1       2.389   5.387  17.917  0.00  0.00    +0.000 C 
ENDROOT
BRANCH   1   2
ATOM      2  C   UNL     1       3.821   5.139  17.435  0.00  0.00    +0.000 C 
ATOM      3  O   UNL     1       4.277   3.998  17.406  0.00  0.00    +0.000 OA
ATOM      4  N   UNL     1       4.504   6.256  17.001  0.00  0.00    +0.000 N 
ATOM      5  C   UNL     1       5.782   6.148  16.489  0.00  0.00    +0.000 A 
ATOM      6  N   UNL     1       6.738   7.001  16.845  0.00  0.00    +0.000 NA
ATOM      7  O   UNL     1       7.887   6.556  16.201  0.00  0.00    +0.000 OA
ATOM      8  N   UNL     1       7.605   5.504  15.340  0.00  0.00    +0.000 NA
ATOM      9  C   UNL     1       6.300   5.266  15.503  0.00  0.00    +0.000 A 
ATOM     10  C   UNL     1       5.601   4.310  14.614  0.00  0.00    +0.000 C 
ATOM     11  H   UNL     1       4.338   7.118  17.505  0.00  0.00    +0.000 HD
ENDBRANCH   1   2
BRANCH   1  12
ATOM     12  C   UNL     1       1.988   4.546  19.133  0.00  0.00    +0.000 A 
ATOM     13  C   UNL     1       1.049   3.501  19.054  0.00  0.00    +0.000 A 
ATOM     14  C   UNL     1       0.779   2.686  20.157  0.00  0.00    +0.000 A 
ATOM     15  C   UNL     1       1.436   2.915  21.356  0.00  0.00    +0.000 A 
ATOM     16  F   UNL     1       1.191   2.121  22.406  0.00  0.00    +0.000 F 
ATOM     17  C   UNL     1       2.356   3.949  21.473  0.00  0.00    +0.000 A 
ATOM     18  C   UNL     1       2.636   4.759  20.368  0.00  0.00    +0.000 A 
ENDBRANCH   1  12
BRANCH   1  20
ATOM     19  C   UNL     1       2.365   7.411  19.504  0.00  0.00    +0.000 C 
ATOM     20  C   UNL     1       2.162   6.906  18.081  0.00  0.00    +0.000 C 
ENDBRANCH   1  20
TORSDOF 3
ENDMDL
