MODEL 1
REMARK VINA RESULT:      -7.4      0.000      0.000
REMARK  Name = 
REMARK  1 active torsions:
REMARK  status: ('A' for Active; 'I' for Inactive)
REMARK    1  A    between atoms: C_1  and  C_2
REMARK                            x       y       z     vdW  Elec       q    Type
REMARK                         _______ _______ _______ _____ _____    ______ ____
ROOT
ATOM      1  C   UNL     1       6.612   7.263  17.198  0.00  0.00    +0.000 C 
ATOM      2  C   UNL     1       5.886   5.963  16.992  0.00  0.00    +0.000 A 
ATOM      3  C   UNL     1       4.792   5.517  17.666  0.00  0.00    +0.000 A 
ATOM      4  N   UNL     1       4.178   4.268  17.399  0.00  0.00    +0.000 N 
ATOM      5  C   UNL     1       4.747   3.490  16.390  0.00  0.00    +0.000 A 
ATOM      6  C   UNL     1       5.815   3.816  15.657  0.00  0.00    +0.000 A 
ATOM      7  C   UNL     1       6.469   5.102  15.922  0.00  0.00    +0.000 A 
ATOM      8  O   UNL     1       7.456   5.439  15.273  0.00  0.00    +0.000 OA
ATOM      9  C   UNL     1       3.022   3.825  18.144  0.00  0.00    +0.000 A 
ATOM     10  C   UNL     1       2.386   2.584  17.913  0.00  0.00    +0.000 A 
ATOM     11  C   UNL     1       1.265   2.163  18.642  0.00  0.00    +0.000 A 
ATOM     12  C   UNL     1       0.740   2.970  19.637  0.00  0.00    +0.000 A 
ATOM     13  C   UNL     1       1.337   4.194  19.892  0.00  0.00    +0.000 A 
ATOM     14  C   UNL     1       2.463   4.624  19.157  0.00  0.00    +0.000 A 
ATOM     15  C   UNL     1       3.007   5.969  19.510  0.00  0.00    +0.000 C 
ATOM     16  C   UNL     1       4.229   6.419  18.737  0.00  0.00    +0.000 C 
ENDROOT
TORSDOF 0
ENDMDL
MODEL 2
REMARK VINA RESULT:      -7.3      0.925      2.615
REMARK  Name = 
REMARK  1 active torsions:
REMARK  status: ('A' for Active; 'I' for Inactive)
REMARK    1  A    between atoms: C_1  and  C_2
REMARK                            x       y       z     vdW  Elec       q    Type
REMARK                         _______ _______ _______ _____ _____    ______ ____
ROOT
ATOM      1  C   UNL     1       6.033   3.938  14.640  0.00  0.00    +0.000 C 
ATOM      2  C   UNL     1       5.715   4.586  15.959  0.00  0.00    +0.000 A 
ATOM      3  C   UNL     1       4.673   4.302  16.784  0.00  0.00    +0.000 A 
ATOM      4  N   UNL     1       4.456   4.974  18.013  0.00  0.00    +0.000 N 
ATOM      5  C   UNL     1       5.378   5.963  18.359  0.00  0.00    +0.000 A 
ATOM      6  C   UNL     1       6.440   6.332  17.639  0.00  0.00    +0.000 A 
ATOM      7  C   UNL     1       6.679   5.652  16.361  0.00  0.00    +0.000 A 
ATOM      8  O   UNL     1       7.643   5.963  15.666  0.00  0.00    +0.000 OA
ATOM      9  C   UNL     1       3.330   4.651  18.858  0.00  0.00    +0.000 A 
ATOM     10  C   UNL     1       3.076   5.303  20.086  0.00  0.00    +0.000 A 
ATOM     11  C   UNL     1       1.980   4.981  20.899  0.00  0.00    +0.000 A 
ATOM     12  C   UNL     1       1.091   3.995  20.508  0.00  0.00    +0.000 A 
ATOM     13  C   UNL     1       1.308   3.333  19.309  0.00  0.00    +0.000 A 
ATOM     14  C   UNL     1       2.413   3.650  18.490  0.00  0.00    +0.000 A 
ATOM     15  C   UNL     1       2.552   2.857  17.233  0.00  0.00    +0.000 C 
ATOM     16  C   UNL     1       3.724   3.213  16.344  0.00  0.00    +0.000 C 
ENDROOT
TORSDOF 0
ENDMDL
MODEL 3
REMARK VINA RESULT:      -7.2      2.500      4.995
REMARK  Name = 
REMARK  1 active torsions:
REMARK  status: ('A' for Active; 'I' for Inactive)
REMARK    1  A    between atoms: C_1  and  C_2
REMARK                            x       y       z     vdW  Elec       q    Type
REMARK                         _______ _______ _______ _____ _____    ______ ____
ROOT
ATOM      1  C   UNL     1       1.464   5.285  20.800  0.00  0.00    +0.000 C 
ATOM      2  C   UNL     1       2.230   4.404  19.853  0.00  0.00    +0.000 A 
ATOM      3  C   UNL     1       3.036   4.801  18.832  0.00  0.00    +0.000 A 
ATOM      4  N   UNL     1       3.717   3.888  17.988  0.00  0.00    +0.000 N 
ATOM      5  C   UNL     1       3.531   2.530  18.249  0.00  0.00    +0.000 A 
ATOM      6  C   UNL     1       2.769   2.016  19.219  0.00  0.00    +0.000 A 
ATOM      7  C   UNL     1       2.051   2.943  20.100  0.00  0.00    +0.000 A 
ATOM      8  O   UNL     1       1.339   2.512  21.002  0.00  0.00    +0.000 OA
ATOM      9  C   UNL     1       4.557   4.349  16.907  0.00  0.00    +0.000 A 
ATOM     10  C   UNL     1       5.247   3.471  16.039  0.00  0.00    +0.000 A 
ATOM     11  C   UNL     1       6.060   3.928  14.993  0.00  0.00    +0.000 A 
ATOM     12  C   UNL     1       6.210   5.287  14.772  0.00  0.00    +0.000 A 
ATOM     13  C   UNL     1       5.549   6.178  15.603  0.00  0.00    +0.000 A 
ATOM     14  C   UNL     1       4.733   5.722  16.661  0.00  0.00    +0.000 A 
ATOM     15  C   UNL     1       4.089   6.776  17.499  0.00  0.00    +0.000 C 
ATOM     16  C   UNL     1       3.195   6.286  18.618  0.00  0.00    +0.000 C 
ENDROOT
TORSDOF 0
ENDMDL
MODEL 4
REMARK VINA RESULT:      -7.1      1.299      2.734
REMARK  Name = 
REMARK  1 active torsions:
REMARK  status: ('A' for Active; 'I' for Inactive)
REMARK    1  A    between atoms: C_1  and  C_2
REMARK                            x       y       z     vdW  Elec       q    Type
REMARK                         _______ _______ _______ _____ _____    ______ ____
ROOT
ATOM      1  C   UNL     1       5.929   3.847  15.060  0.00  0.00    +0.000 C 
ATOM      2  C   UNL     1       5.112   4.585  16.083  0.00  0.00    +0.000 A 
ATOM      3  C   UNL     1       4.313   4.044  17.042  0.00  0.00    +0.000 A 
ATOM      4  N   UNL     1       3.577   4.828  17.965  0.00  0.00    +0.000 N 
ATOM      5  C   UNL     1       3.706   6.214  17.856  0.00  0.00    +0.000 A 
ATOM      6  C   UNL     1       4.456   6.864  16.963  0.00  0.00    +0.000 A 
ATOM      7  C   UNL     1       5.222   6.071  15.995  0.00  0.00    +0.000 A 
ATOM      8  O   UNL     1       5.923   6.629  15.156  0.00  0.00    +0.000 OA
ATOM      9  C   UNL     1       2.730   4.217  18.963  0.00  0.00    +0.000 A 
ATOM     10  C   UNL     1       1.975   4.964  19.896  0.00  0.00    +0.000 A 
ATOM     11  C   UNL     1       1.156   4.360  20.861  0.00  0.00    +0.000 A 
ATOM     12  C   UNL     1       1.059   2.980  20.925  0.00  0.00    +0.000 A 
ATOM     13  C   UNL     1       1.785   2.214  20.026  0.00  0.00    +0.000 A 
ATOM     14  C   UNL     1       2.615   2.818  19.056  0.00  0.00    +0.000 A 
ATOM     15  C   UNL     1       3.362   1.890  18.156  0.00  0.00    +0.000 C 
ATOM     16  C   UNL     1       4.233   2.538  17.102  0.00  0.00    +0.000 C 
ENDROOT
TORSDOF 0
ENDMDL
MODEL 5
REMARK VINA RESULT:      -6.9      2.423      5.050
REMARK  Name = 
REMARK  1 active torsions:
REMARK  status: ('A' for Active; 'I' for Inactive)
REMARK    1  A    between atoms: C_1  and  C_2
REMARK                            x       y       z     vdW  Elec       q    Type
REMARK                         _______ _______ _______ _____ _____    ______ ____
ROOT
ATOM      1  C   UNL     1       2.294   4.796  21.104  0.00  0.00    +0.000 C 
ATOM      2  C   UNL     1       2.563   4.212  19.745  0.00  0.00    +0.000 A 
ATOM      3  C   UNL     1       3.607   4.495  18.922  0.00  0.00    +0.000 A 
ATOM      4  N   UNL     1       3.773   3.890  17.651  0.00  0.00    +0.000 N 
ATOM      5  C   UNL     1       2.803   2.964  17.264  0.00  0.00    +0.000 A 
ATOM      6  C   UNL     1       1.737   2.600  17.980  0.00  0.00    +0.000 A 
ATOM      7  C   UNL     1       1.544   3.219  19.296  0.00  0.00    +0.000 A 
ATOM      8  O   UNL     1       0.575   2.914  19.986  0.00  0.00    +0.000 OA
ATOM      9  C   UNL     1       4.891   4.226  16.800  0.00  0.00    +0.000 A 
ATOM     10  C   UNL     1       5.088   3.650  15.523  0.00  0.00    +0.000 A 
ATOM     11  C   UNL     1       6.177   3.982  14.705  0.00  0.00    +0.000 A 
ATOM     12  C   UNL     1       7.110   4.911  15.133  0.00  0.00    +0.000 A 
ATOM     13  C   UNL     1       6.950   5.497  16.379  0.00  0.00    +0.000 A 
ATOM     14  C   UNL     1       5.858   5.161  17.209  0.00  0.00    +0.000 A 
ATOM     15  C   UNL     1       5.804   5.843  18.536  0.00  0.00    +0.000 C 
ATOM     16  C   UNL     1       4.620   5.500  19.415  0.00  0.00    +0.000 C 
ENDROOT
TORSDOF 0
ENDMDL
MODEL 6
REMARK VINA RESULT:      -6.7      1.628      1.947
REMARK  Name = 
REMARK  1 active torsions:
REMARK  status: ('A' for Active; 'I' for Inactive)
REMARK    1  A    between atoms: C_1  and  C_2
REMARK                            x       y       z     vdW  Elec       q    Type
REMARK                         _______ _______ _______ _____ _____    ______ ____
ROOT
ATOM      1  C   UNL     1       4.880   7.054  15.879  0.00  0.00    +0.000 C 
ATOM      2  C   UNL     1       5.094   6.044  16.971  0.00  0.00    +0.000 A 
ATOM      3  C   UNL     1       4.146   5.490  17.774  0.00  0.00    +0.000 A 
ATOM      4  N   UNL     1       4.449   4.542  18.783  0.00  0.00    +0.000 N 
ATOM      5  C   UNL     1       5.790   4.182  18.926  0.00  0.00    +0.000 A 
ATOM      6  C   UNL     1       6.809   4.651  18.201  0.00  0.00    +0.000 A 
ATOM      7  C   UNL     1       6.518   5.637  17.156  0.00  0.00    +0.000 A 
ATOM      8  O   UNL     1       7.426   6.096  16.468  0.00  0.00    +0.000 OA
ATOM      9  C   UNL     1       3.415   3.983  19.623  0.00  0.00    +0.000 A 
ATOM     10  C   UNL     1       3.677   3.041  20.644  0.00  0.00    +0.000 A 
ATOM     11  C   UNL     1       2.666   2.505  21.455  0.00  0.00    +0.000 A 
ATOM     12  C   UNL     1       1.351   2.898  21.276  0.00  0.00    +0.000 A 
ATOM     13  C   UNL     1       1.055   3.820  20.284  0.00  0.00    +0.000 A 
ATOM     14  C   UNL     1       2.069   4.358  19.462  0.00  0.00    +0.000 A 
ATOM     15  C   UNL     1       1.626   5.328  18.417  0.00  0.00    +0.000 C 
ATOM     16  C   UNL     1       2.717   5.922  17.552  0.00  0.00    +0.000 C 
ENDROOT
TORSDOF 0
ENDMDL
MODEL 7
REMARK VINA RESULT:      -6.6      2.797      5.291
REMARK  Name = 
REMARK  1 active torsions:
REMARK  status: ('A' for Active; 'I' for Inactive)
REMARK    1  A    between atoms: C_1  and  C_2
REMARK                            x       y       z     vdW  Elec       q    Type
REMARK                         _______ _______ _______ _____ _____    ______ ____
ROOT
ATOM      1  C   UNL     1       0.706   4.710  20.534  0.00  0.00    +0.000 C 
ATOM      2  C   UNL     1       2.080   4.207  20.190  0.00  0.00    +0.000 A 
ATOM      3  C   UNL     1       2.992   4.801  19.376  0.00  0.00    +0.000 A 
ATOM      4  N   UNL     1       4.268   4.244  19.111  0.00  0.00    +0.000 N 
ATOM      5  C   UNL     1       4.567   3.032  19.736  0.00  0.00    +0.000 A 
ATOM      6  C   UNL     1       3.761   2.353  20.556  0.00  0.00    +0.000 A 
ATOM      7  C   UNL     1       2.434   2.910  20.838  0.00  0.00    +0.000 A 
ATOM      8  O   UNL     1       1.661   2.316  21.585  0.00  0.00    +0.000 OA
ATOM      9  C   UNL     1       5.206   4.900  18.231  0.00  0.00    +0.000 A 
ATOM     10  C   UNL     1       6.485   4.373  17.936  0.00  0.00    +0.000 A 
ATOM     11  C   UNL     1       7.388   5.019  17.079  0.00  0.00    +0.000 A 
ATOM     12  C   UNL     1       7.042   6.218  16.480  0.00  0.00    +0.000 A 
ATOM     13  C   UNL     1       5.796   6.766  16.746  0.00  0.00    +0.000 A 
ATOM     14  C   UNL     1       4.886   6.122  17.611  0.00  0.00    +0.000 A 
ATOM     15  C   UNL     1       3.583   6.817  17.835  0.00  0.00    +0.000 C 
ATOM     16  C   UNL     1       2.598   6.114  18.744  0.00  0.00    +0.000 C 
ENDROOT
TORSDOF 0
ENDMDL
MODEL 8
REMARK VINA RESULT:      -6.5      2.530      5.327
REMARK  Name = 
REMARK  1 active torsions:
REMARK  status: ('A' for Active; 'I' for Inactive)
REMARK    1  A    between atoms: C_1  and  C_2
REMARK                            x       y       z     vdW  Elec       q    Type
REMARK                         _______ _______ _______ _____ _____    ______ ____
ROOT
ATOM      1  C   UNL     1       1.467   4.432  20.826  0.00  0.00    +0.000 C 
ATOM      2  C   UNL     1       2.172   5.301  19.823  0.00  0.00    +0.000 A 
ATOM      3  C   UNL     1       2.994   4.894  18.818  0.00  0.00    +0.000 A 
ATOM      4  N   UNL     1       3.618   5.795  17.920  0.00  0.00    +0.000 N 
ATOM      5  C   UNL     1       3.349   7.152  18.102  0.00  0.00    +0.000 A 
ATOM      6  C   UNL     1       2.562   7.676  19.045  0.00  0.00    +0.000 A 
ATOM      7  C   UNL     1       1.911   6.760  19.989  0.00  0.00    +0.000 A 
ATOM      8  O   UNL     1       1.181   7.201  20.873  0.00  0.00    +0.000 OA
ATOM      9  C   UNL     1       4.493   5.324  16.871  0.00  0.00    +0.000 A 
ATOM     10  C   UNL     1       5.139   6.191  15.960  0.00  0.00    +0.000 A 
ATOM     11  C   UNL     1       5.987   5.724  14.946  0.00  0.00    +0.000 A 
ATOM     12  C   UNL     1       6.225   4.367  14.808  0.00  0.00    +0.000 A 
ATOM     13  C   UNL     1       5.609   3.486  15.684  0.00  0.00    +0.000 A 
ATOM     14  C   UNL     1       4.750   3.952  16.704  0.00  0.00    +0.000 A 
ATOM     15  C   UNL     1       4.130   2.908  17.572  0.00  0.00    +0.000 C 
ATOM     16  C   UNL     1       3.228   3.409  18.679  0.00  0.00    +0.000 C 
ENDROOT
TORSDOF 0
ENDMDL
MODEL 9
REMARK VINA RESULT:      -6.5      2.653      5.296
REMARK  Name = 
REMARK  1 active torsions:
REMARK  status: ('A' for Active; 'I' for Inactive)
REMARK    1  A    between atoms: C_1  and  C_2
REMARK                            x       y       z     vdW  Elec       q    Type
REMARK                         _______ _______ _______ _____ _____    ______ ____
ROOT
ATOM      1  C   UNL     1       1.113   3.909  17.827  0.00  0.00    +0.000 C 
ATOM      2  C   UNL     1       2.492   3.836  18.418  0.00  0.00    +0.000 A 
ATOM      3  C   UNL     1       3.519   4.705  18.218  0.00  0.00    +0.000 A 
ATOM      4  N   UNL     1       4.791   4.547  18.823  0.00  0.00    +0.000 N 
ATOM      5  C   UNL     1       4.959   3.441  19.658  0.00  0.00    +0.000 A 
ATOM      6  C   UNL     1       4.031   2.521  19.935  0.00  0.00    +0.000 A 
ATOM      7  C   UNL     1       2.709   2.663  19.315  0.00  0.00    +0.000 A 
ATOM      8  O   UNL     1       1.829   1.837  19.541  0.00  0.00    +0.000 OA
ATOM      9  C   UNL     1       5.861   5.486  18.578  0.00  0.00    +0.000 A 
ATOM     10  C   UNL     1       7.145   5.360  19.156  0.00  0.00    +0.000 A 
ATOM     11  C   UNL     1       8.177   6.278  18.911  0.00  0.00    +0.000 A 
ATOM     12  C   UNL     1       7.962   7.357  18.071  0.00  0.00    +0.000 A 
ATOM     13  C   UNL     1       6.715   7.514  17.486  0.00  0.00    +0.000 A 
ATOM     14  C   UNL     1       5.672   6.595  17.734  0.00  0.00    +0.000 A 
ATOM     15  C   UNL     1       4.369   6.879  17.062  0.00  0.00    +0.000 C 
ATOM     16  C   UNL     1       3.258   5.881  17.310  0.00  0.00    +0.000 C 
ENDROOT
TORSDOF 0
ENDMDL
