MODEL 1
REMARK VINA RESULT:      -8.5      0.000      0.000
REMARK  Name = 
REMARK  5 active torsions:
REMARK  status: ('A' for Active; 'I' for Inactive)
REMARK    1  A    between atoms: C_1  and  C_2
REMARK    2  A    between atoms: N_4  and  C_5
REMARK    3  A    between atoms: C_8  and  C_9
REMARK    4  A    between atoms: N_15  and  C_16
REMARK    5  A    between atoms: C_25  and  C_26
REMARK                            x       y       z     vdW  Elec       q    Type
REMARK                         _______ _______ _______ _____ _____    ______ ____
ROOT
ATOM      1  C   UNL     1       0.379  10.055  20.078  0.00  0.00    +0.000 A 
ATOM      2  S   UNL     1       0.932  10.677  21.609  0.00  0.00    +0.000 S 
ATOM      3  C   UNL     1      -0.464  11.625  21.718  0.00  0.00    +0.000 A 
ATOM      4  N   UNL     1      -0.597  12.427  22.816  0.00  0.00    +0.000 N 
ATOM      5  C   UNL     1      -1.719  13.179  23.072  0.00  0.00    +0.000 C 
ATOM      6  O   UNL     1      -1.673  14.068  23.922  0.00  0.00    +0.000 OA
ATOM      7  N   UNL     1      -2.857  12.789  22.412  0.00  0.00    +0.000 N 
ATOM      8  N   UNL     1      -1.319  11.516  20.739  0.00  0.00    +0.000 NA
ATOM      9  C   UNL     1      -0.806  10.711  19.735  0.00  0.00    +0.000 A 
ATOM     10  H   UNL     1       0.200  12.575  23.415  0.00  0.00    +0.000 HD
ATOM     11  H   UNL     1      -2.833  11.836  22.060  0.00  0.00    +0.000 HD
ENDROOT
BRANCH   7  12
ATOM     12  C   UNL     1      -4.128  13.358  22.551  0.00  0.00    +0.000 A 
ATOM     13  C   UNL     1      -4.668  14.214  21.591  0.00  0.00    +0.000 A 
ATOM     14  C   UNL     1      -5.964  14.704  21.766  0.00  0.00    +0.000 A 
ATOM     15  C   UNL     1      -6.685  14.368  22.912  0.00  0.00    +0.000 A 
ATOM     16  F   UNL     1      -7.916  14.868  23.082  0.00  0.00    +0.000 F 
ATOM     17  C   UNL     1      -6.156  13.520  23.873  0.00  0.00    +0.000 A 
ATOM     18  C   UNL     1      -4.890  12.995  23.668  0.00  0.00    +0.000 A 
ATOM     19  F   UNL     1      -4.370  12.165  24.586  0.00  0.00    +0.000 F 
ENDBRANCH   7  12
BRANCH   9  20
ATOM     20  C   UNL     1      -1.564  10.622  18.487  0.00  0.00    +0.000 A 
ATOM     21  C   UNL     1      -1.235   9.725  17.461  0.00  0.00    +0.000 A 
ATOM     22  C   UNL     1      -2.026   9.621  16.312  0.00  0.00    +0.000 A 
ATOM     23  C   UNL     1      -3.108  10.477  16.137  0.00  0.00    +0.000 A 
ATOM     24 CL   UNL     1      -4.072  10.358  14.719  0.00  0.00    +0.000 Cl
ATOM     25  C   UNL     1      -3.403  11.436  17.100  0.00  0.00    +0.000 A 
ATOM     26  C   UNL     1      -2.641  11.502  18.273  0.00  0.00    +0.000 A 
ENDBRANCH   9  20
BRANCH   1  30
ATOM     27  C   UNL     1       3.027   7.290  18.137  0.00  0.00    +0.000 A 
ATOM     28  C   UNL     1       2.638   8.471  17.510  0.00  0.00    +0.000 A 
ATOM     29  C   UNL     1       1.682   9.304  18.096  0.00  0.00    +0.000 A 
ATOM     30  C   UNL     1       1.162   9.028  19.369  0.00  0.00    +0.000 A 
ATOM     31  C   UNL     1       1.500   7.803  19.959  0.00  0.00    +0.000 A 
ATOM     32  C   UNL     1       2.406   6.931  19.337  0.00  0.00    +0.000 A 
BRANCH  27  36
ATOM     33  C   UNL     1       5.165   4.424  16.960  0.00  0.00    +0.000 C 
ATOM     34  C   UNL     1       3.880   5.067  17.410  0.00  0.00    +0.000 C 
ATOM     35  O   UNL     1       2.862   4.400  17.559  0.00  0.00    +0.000 OA
ATOM     36  N   UNL     1       4.014   6.431  17.614  0.00  0.00    +0.000 N 
ATOM     37  H   UNL     1       4.849   6.870  17.249  0.00  0.00    +0.000 HD
ENDBRANCH  27  36
ENDBRANCH   1  30
TORSDOF 4
ENDMDL
MODEL 2
REMARK VINA RESULT:      -8.5      1.123      1.488
REMARK  Name = 
REMARK  5 active torsions:
REMARK  status: ('A' for Active; 'I' for Inactive)
REMARK    1  A    between atoms: C_1  and  C_2
REMARK    2  A    between atoms: N_4  and  C_5
REMARK    3  A    between atoms: C_8  and  C_9
REMARK    4  A    between atoms: N_15  and  C_16
REMARK    5  A    between atoms: C_25  and  C_26
REMARK                            x       y       z     vdW  Elec       q    Type
REMARK                         _______ _______ _______ _____ _____    ______ ____
ROOT
ATOM      1  C   UNL     1       0.174  10.363  20.208  0.00  0.00    +0.000 A 
ATOM      2  S   UNL     1       0.707  11.060  21.712  0.00  0.00    +0.000 S 
ATOM      3  C   UNL     1      -0.666  12.047  21.731  0.00  0.00    +0.000 A 
ATOM      4  N   UNL     1      -0.803  12.916  22.776  0.00  0.00    +0.000 N 
ATOM      5  C   UNL     1      -1.911  13.710  22.960  0.00  0.00    +0.000 C 
ATOM      6  O   UNL     1      -1.862  14.647  23.756  0.00  0.00    +0.000 OA
ATOM      7  N   UNL     1      -3.043  13.309  22.295  0.00  0.00    +0.000 N 
ATOM      8  N   UNL     1      -1.500  11.902  20.739  0.00  0.00    +0.000 NA
ATOM      9  C   UNL     1      -0.986  11.025  19.797  0.00  0.00    +0.000 A 
ATOM     10  H   UNL     1      -0.017  13.081  23.384  0.00  0.00    +0.000 HD
ATOM     11  H   UNL     1      -3.036  12.337  22.001  0.00  0.00    +0.000 HD
ENDROOT
BRANCH   7  12
ATOM     12  C   UNL     1      -4.302  13.916  22.369  0.00  0.00    +0.000 A 
ATOM     13  C   UNL     1      -5.288  13.479  23.253  0.00  0.00    +0.000 A 
ATOM     14  C   UNL     1      -6.503  14.164  23.313  0.00  0.00    +0.000 A 
ATOM     15  C   UNL     1      -6.734  15.246  22.463  0.00  0.00    +0.000 A 
ATOM     16  F   UNL     1      -7.915  15.877  22.509  0.00  0.00    +0.000 F 
ATOM     17  C   UNL     1      -5.761  15.687  21.578  0.00  0.00    +0.000 A 
ATOM     18  C   UNL     1      -4.538  15.036  21.561  0.00  0.00    +0.000 A 
ATOM     19  F   UNL     1      -3.584  15.459  20.717  0.00  0.00    +0.000 F 
ENDBRANCH   7  12
BRANCH   9  20
ATOM     20  C   UNL     1      -1.716  10.881  18.538  0.00  0.00    +0.000 A 
ATOM     21  C   UNL     1      -1.753  11.887  17.562  0.00  0.00    +0.000 A 
ATOM     22  C   UNL     1      -2.402  11.684  16.340  0.00  0.00    +0.000 A 
ATOM     23  C   UNL     1      -3.100  10.502  16.116  0.00  0.00    +0.000 A 
ATOM     24 CL   UNL     1      -3.910  10.258  14.619  0.00  0.00    +0.000 Cl
ATOM     25  C   UNL     1      -3.152   9.523  17.103  0.00  0.00    +0.000 A 
ATOM     26  C   UNL     1      -2.456   9.708  18.303  0.00  0.00    +0.000 A 
ENDBRANCH   9  20
BRANCH   1  30
ATOM     27  C   UNL     1       2.783   7.465  18.411  0.00  0.00    +0.000 A 
ATOM     28  C   UNL     1       2.219   8.489  17.654  0.00  0.00    +0.000 A 
ATOM     29  C   UNL     1       1.276   9.352  18.219  0.00  0.00    +0.000 A 
ATOM     30  C   UNL     1       0.946   9.275  19.580  0.00  0.00    +0.000 A 
ATOM     31  C   UNL     1       1.459   8.200  20.315  0.00  0.00    +0.000 A 
ATOM     32  C   UNL     1       2.351   7.289  19.729  0.00  0.00    +0.000 A 
BRANCH  27  36
ATOM     33  C   UNL     1       4.864   4.571  17.202  0.00  0.00    +0.000 C 
ATOM     34  C   UNL     1       3.579   5.254  17.591  0.00  0.00    +0.000 C 
ATOM     35  O   UNL     1       2.519   4.639  17.604  0.00  0.00    +0.000 OA
ATOM     36  N   UNL     1       3.766   6.590  17.908  0.00  0.00    +0.000 N 
ATOM     37  H   UNL     1       4.651   7.004  17.648  0.00  0.00    +0.000 HD
ENDBRANCH  27  36
ENDBRANCH   1  30
TORSDOF 4
ENDMDL
MODEL 3
REMARK VINA RESULT:      -8.2      0.994      1.392
REMARK  Name = 
REMARK  5 active torsions:
REMARK  status: ('A' for Active; 'I' for Inactive)
REMARK    1  A    between atoms: C_1  and  C_2
REMARK    2  A    between atoms: N_4  and  C_5
REMARK    3  A    between atoms: C_8  and  C_9
REMARK    4  A    between atoms: N_15  and  C_16
REMARK    5  A    between atoms: C_25  and  C_26
REMARK                            x       y       z     vdW  Elec       q    Type
REMARK                         _______ _______ _______ _____ _____    ______ ____
ROOT
ATOM      1  C   UNL     1       0.377  10.558  20.188  0.00  0.00    +0.000 A 
ATOM      2  S   UNL     1       0.942  11.352  21.632  0.00  0.00    +0.000 S 
ATOM      3  C   UNL     1      -0.455  12.306  21.643  0.00  0.00    +0.000 A 
ATOM      4  N   UNL     1      -0.579  13.229  22.642  0.00  0.00    +0.000 N 
ATOM      5  C   UNL     1      -1.701  14.005  22.820  0.00  0.00    +0.000 C 
ATOM      6  O   UNL     1      -1.649  14.987  23.560  0.00  0.00    +0.000 OA
ATOM      7  N   UNL     1      -2.844  13.542  22.218  0.00  0.00    +0.000 N 
ATOM      8  N   UNL     1      -1.317  12.085  20.690  0.00  0.00    +0.000 NA
ATOM      9  C   UNL     1      -0.812  11.169  19.782  0.00  0.00    +0.000 A 
ATOM     10  H   UNL     1       0.222  13.446  23.213  0.00  0.00    +0.000 HD
ATOM     11  H   UNL     1      -2.821  12.554  21.978  0.00  0.00    +0.000 HD
ENDROOT
BRANCH   7  12
ATOM     12  C   UNL     1      -4.114  14.122  22.301  0.00  0.00    +0.000 A 
ATOM     13  C   UNL     1      -4.539  15.111  21.414  0.00  0.00    +0.000 A 
ATOM     14  C   UNL     1      -5.839  15.610  21.519  0.00  0.00    +0.000 A 
ATOM     15  C   UNL     1      -6.681  15.146  22.530  0.00  0.00    +0.000 A 
ATOM     16  F   UNL     1      -7.917  15.653  22.640  0.00  0.00    +0.000 F 
ATOM     17  C   UNL     1      -6.267  14.164  23.419  0.00  0.00    +0.000 A 
ATOM     18  C   UNL     1      -4.994  13.637  23.275  0.00  0.00    +0.000 A 
ATOM     19  F   UNL     1      -4.585  12.679  24.123  0.00  0.00    +0.000 F 
ENDBRANCH   7  12
BRANCH   9  20
ATOM     20  C   UNL     1      -1.580  10.937  18.558  0.00  0.00    +0.000 A 
ATOM     21  C   UNL     1      -1.682  11.888  17.534  0.00  0.00    +0.000 A 
ATOM     22  C   UNL     1      -2.366  11.601  16.348  0.00  0.00    +0.000 A 
ATOM     23  C   UNL     1      -3.032  10.389  16.210  0.00  0.00    +0.000 A 
ATOM     24 CL   UNL     1      -3.884  10.042  14.758  0.00  0.00    +0.000 Cl
ATOM     25  C   UNL     1      -3.020   9.462  17.247  0.00  0.00    +0.000 A 
ATOM     26  C   UNL     1      -2.290   9.732  18.411  0.00  0.00    +0.000 A 
ENDBRANCH   9  20
BRANCH   1  30
ATOM     27  C   UNL     1       2.260   7.113  18.453  0.00  0.00    +0.000 A 
ATOM     28  C   UNL     1       2.050   7.199  19.827  0.00  0.00    +0.000 A 
ATOM     29  C   UNL     1       1.550   8.374  20.395  0.00  0.00    +0.000 A 
ATOM     30  C   UNL     1       1.156   9.456  19.596  0.00  0.00    +0.000 A 
ATOM     31  C   UNL     1       1.439   9.391  18.226  0.00  0.00    +0.000 A 
ATOM     32  C   UNL     1       2.008   8.238  17.664  0.00  0.00    +0.000 A 
BRANCH  27  36
ATOM     33  C   UNL     1       3.036   3.620  17.283  0.00  0.00    +0.000 C 
ATOM     34  C   UNL     1       2.233   4.662  18.016  0.00  0.00    +0.000 C 
ATOM     35  O   UNL     1       1.262   4.346  18.694  0.00  0.00    +0.000 OA
ATOM     36  N   UNL     1       2.724   5.943  17.819  0.00  0.00    +0.000 N 
ATOM     37  H   UNL     1       3.394   6.069  17.072  0.00  0.00    +0.000 HD
ENDBRANCH  27  36
ENDBRANCH   1  30
TORSDOF 4
ENDMDL
MODEL 4
REMARK VINA RESULT:      -8.2      0.982      1.285
REMARK  Name = 
REMARK  5 active torsions:
REMARK  status: ('A' for Active; 'I' for Inactive)
REMARK    1  A    between atoms: C_1  and  C_2
REMARK    2  A    between atoms: N_4  and  C_5
REMARK    3  A    between atoms: C_8  and  C_9
REMARK    4  A    between atoms: N_15  and  C_16
REMARK    5  A    between atoms: C_25  and  C_26
REMARK                            x       y       z     vdW  Elec       q    Type
REMARK                         _______ _______ _______ _____ _____    ______ ____
ROOT
ATOM      1  C   UNL     1       0.408  10.534  20.176  0.00  0.00    +0.000 A 
ATOM      2  S   UNL     1       0.970  11.382  21.590  0.00  0.00    +0.000 S 
ATOM      3  C   UNL     1      -0.435  12.323  21.572  0.00  0.00    +0.000 A 
ATOM      4  N   UNL     1      -0.565  13.280  22.539  0.00  0.00    +0.000 N 
ATOM      5  C   UNL     1      -1.692  14.052  22.693  0.00  0.00    +0.000 C 
ATOM      6  O   UNL     1      -1.647  15.058  23.399  0.00  0.00    +0.000 OA
ATOM      7  N   UNL     1      -2.833  13.558  22.111  0.00  0.00    +0.000 N 
ATOM      8  N   UNL     1      -1.298  12.063  20.630  0.00  0.00    +0.000 NA
ATOM      9  C   UNL     1      -0.787  11.120  19.752  0.00  0.00    +0.000 A 
ATOM     10  H   UNL     1       0.236  13.523  23.100  0.00  0.00    +0.000 HD
ATOM     11  H   UNL     1      -2.802  12.563  21.905  0.00  0.00    +0.000 HD
ENDROOT
BRANCH   7  12
ATOM     12  C   UNL     1      -4.108  14.130  22.177  0.00  0.00    +0.000 A 
ATOM     13  C   UNL     1      -4.589  14.991  21.190  0.00  0.00    +0.000 A 
ATOM     14  C   UNL     1      -5.891  15.484  21.291  0.00  0.00    +0.000 A 
ATOM     15  C   UNL     1      -6.679  15.147  22.392  0.00  0.00    +0.000 A 
ATOM     16  F   UNL     1      -7.917  15.650  22.492  0.00  0.00    +0.000 F 
ATOM     17  C   UNL     1      -6.209  14.294  23.380  0.00  0.00    +0.000 A 
ATOM     18  C   UNL     1      -4.934  13.767  23.247  0.00  0.00    +0.000 A 
ATOM     19  F   UNL     1      -4.471  12.932  24.191  0.00  0.00    +0.000 F 
ENDBRANCH   7  12
BRANCH   9  20
ATOM     20  C   UNL     1      -1.556  10.840  18.539  0.00  0.00    +0.000 A 
ATOM     21  C   UNL     1      -2.276   9.651  18.354  0.00  0.00    +0.000 A 
ATOM     22  C   UNL     1      -3.056   9.450  17.212  0.00  0.00    +0.000 A 
ATOM     23  C   UNL     1      -3.055  10.402  16.197  0.00  0.00    +0.000 A 
ATOM     24 CL   UNL     1      -4.004  10.148  14.786  0.00  0.00    +0.000 Cl
ATOM     25  C   UNL     1      -2.280  11.550  16.317  0.00  0.00    +0.000 A 
ATOM     26  C   UNL     1      -1.542  11.772  17.486  0.00  0.00    +0.000 A 
ENDBRANCH   9  20
BRANCH   1  30
ATOM     27  C   UNL     1       2.308   7.065  18.508  0.00  0.00    +0.000 A 
ATOM     28  C   UNL     1       1.987   7.125  19.861  0.00  0.00    +0.000 A 
ATOM     29  C   UNL     1       1.483   8.303  20.419  0.00  0.00    +0.000 A 
ATOM     30  C   UNL     1       1.195   9.418  19.620  0.00  0.00    +0.000 A 
ATOM     31  C   UNL     1       1.590   9.377  18.277  0.00  0.00    +0.000 A 
ATOM     32  C   UNL     1       2.163   8.218  17.732  0.00  0.00    +0.000 A 
BRANCH  27  36
ATOM     33  C   UNL     1       4.251   4.346  16.774  0.00  0.00    +0.000 C 
ATOM     34  C   UNL     1       4.102   5.628  17.550  0.00  0.00    +0.000 C 
ATOM     35  O   UNL     1       5.080   6.314  17.825  0.00  0.00    +0.000 OA
ATOM     36  N   UNL     1       2.783   5.895  17.882  0.00  0.00    +0.000 N 
ATOM     37  H   UNL     1       2.120   5.139  17.773  0.00  0.00    +0.000 HD
ENDBRANCH  27  36
ENDBRANCH   1  30
TORSDOF 4
ENDMDL
MODEL 5
REMARK VINA RESULT:      -7.9      1.146      1.627
REMARK  Name = 
REMARK  5 active torsions:
REMARK  status: ('A' for Active; 'I' for Inactive)
REMARK    1  A    between atoms: C_1  and  C_2
REMARK    2  A    between atoms: N_4  and  C_5
REMARK    3  A    between atoms: C_8  and  C_9
REMARK    4  A    between atoms: N_15  and  C_16
REMARK    5  A    between atoms: C_25  and  C_26
REMARK                            x       y       z     vdW  Elec       q    Type
REMARK                         _______ _______ _______ _____ _____    ______ ____
ROOT
ATOM      1  C   UNL     1       0.430  10.391  20.317  0.00  0.00    +0.000 A 
ATOM      2  S   UNL     1       0.925  11.156  21.801  0.00  0.00    +0.000 S 
ATOM      3  C   UNL     1      -0.494  12.076  21.790  0.00  0.00    +0.000 A 
ATOM      4  N   UNL     1      -0.675  12.968  22.809  0.00  0.00    +0.000 N 
ATOM      5  C   UNL     1      -1.820  13.712  22.969  0.00  0.00    +0.000 C 
ATOM      6  O   UNL     1      -1.817  14.673  23.737  0.00  0.00    +0.000 OA
ATOM      7  N   UNL     1      -2.930  13.239  22.315  0.00  0.00    +0.000 N 
ATOM      8  N   UNL     1      -1.317  11.863  20.802  0.00  0.00    +0.000 NA
ATOM      9  C   UNL     1      -0.759  10.985  19.886  0.00  0.00    +0.000 A 
ATOM     10  H   UNL     1       0.101  13.187  23.413  0.00  0.00    +0.000 HD
ATOM     11  H   UNL     1      -2.875  12.260  22.049  0.00  0.00    +0.000 HD
ENDROOT
BRANCH   7  12
ATOM     12  C   UNL     1      -4.216  13.787  22.369  0.00  0.00    +0.000 A 
ATOM     13  C   UNL     1      -5.203  13.284  23.216  0.00  0.00    +0.000 A 
ATOM     14  C   UNL     1      -6.450  13.913  23.260  0.00  0.00    +0.000 A 
ATOM     15  C   UNL     1      -6.707  15.004  22.430  0.00  0.00    +0.000 A 
ATOM     16  F   UNL     1      -7.916  15.580  22.460  0.00  0.00    +0.000 F 
ATOM     17  C   UNL     1      -5.733  15.510  21.582  0.00  0.00    +0.000 A 
ATOM     18  C   UNL     1      -4.482  14.914  21.582  0.00  0.00    +0.000 A 
ATOM     19  F   UNL     1      -3.527  15.401  20.773  0.00  0.00    +0.000 F 
ENDBRANCH   7  12
BRANCH   9  20
ATOM     20  C   UNL     1      -1.478  10.770  18.630  0.00  0.00    +0.000 A 
ATOM     21  C   UNL     1      -1.089   9.809  17.688  0.00  0.00    +0.000 A 
ATOM     22  C   UNL     1      -1.844   9.585  16.532  0.00  0.00    +0.000 A 
ATOM     23  C   UNL     1      -2.951  10.383  16.263  0.00  0.00    +0.000 A 
ATOM     24 CL   UNL     1      -3.871  10.116  14.836  0.00  0.00    +0.000 Cl
ATOM     25  C   UNL     1      -3.307  11.402  17.140  0.00  0.00    +0.000 A 
ATOM     26  C   UNL     1      -2.580  11.588  18.321  0.00  0.00    +0.000 A 
ENDBRANCH   9  20
BRANCH   1  30
ATOM     27  C   UNL     1       2.448   7.066  18.500  0.00  0.00    +0.000 A 
ATOM     28  C   UNL     1       2.058   7.025  19.836  0.00  0.00    +0.000 A 
ATOM     29  C   UNL     1       1.514   8.156  20.452  0.00  0.00    +0.000 A 
ATOM     30  C   UNL     1       1.255   9.324  19.722  0.00  0.00    +0.000 A 
ATOM     31  C   UNL     1       1.717   9.383  18.401  0.00  0.00    +0.000 A 
ATOM     32  C   UNL     1       2.329   8.272  17.803  0.00  0.00    +0.000 A 
BRANCH  27  36
ATOM     33  C   UNL     1       3.265   3.685  17.061  0.00  0.00    +0.000 C 
ATOM     34  C   UNL     1       2.392   4.687  17.769  0.00  0.00    +0.000 C 
ATOM     35  O   UNL     1       1.304   4.359  18.228  0.00  0.00    +0.000 OA
ATOM     36  N   UNL     1       2.965   5.948  17.816  0.00  0.00    +0.000 N 
ATOM     37  H   UNL     1       3.761   6.113  17.214  0.00  0.00    +0.000 HD
ENDBRANCH  27  36
ENDBRANCH   1  30
TORSDOF 4
ENDMDL
MODEL 6
REMARK VINA RESULT:      -7.9      1.436      1.941
REMARK  Name = 
REMARK  5 active torsions:
REMARK  status: ('A' for Active; 'I' for Inactive)
REMARK    1  A    between atoms: C_1  and  C_2
REMARK    2  A    between atoms: N_4  and  C_5
REMARK    3  A    between atoms: C_8  and  C_9
REMARK    4  A    between atoms: N_15  and  C_16
REMARK    5  A    between atoms: C_25  and  C_26
REMARK                            x       y       z     vdW  Elec       q    Type
REMARK                         _______ _______ _______ _____ _____    ______ ____
ROOT
ATOM      1  C   UNL     1       0.270  10.653  20.191  0.00  0.00    +0.000 A 
ATOM      2  S   UNL     1       0.797  11.495  21.622  0.00  0.00    +0.000 S 
ATOM      3  C   UNL     1      -0.598  12.450  21.563  0.00  0.00    +0.000 A 
ATOM      4  N   UNL     1      -0.747  13.406  22.527  0.00  0.00    +0.000 N 
ATOM      5  C   UNL     1      -1.871  14.189  22.648  0.00  0.00    +0.000 C 
ATOM      6  O   UNL     1      -1.837  15.195  23.356  0.00  0.00    +0.000 OA
ATOM      7  N   UNL     1      -2.998  13.707  22.031  0.00  0.00    +0.000 N 
ATOM      8  N   UNL     1      -1.434  12.198  20.596  0.00  0.00    +0.000 NA
ATOM      9  C   UNL     1      -0.907  11.251  19.732  0.00  0.00    +0.000 A 
ATOM     10  H   UNL     1       0.039  13.642  23.111  0.00  0.00    +0.000 HD
ATOM     11  H   UNL     1      -2.971  12.712  21.826  0.00  0.00    +0.000 HD
ENDROOT
BRANCH   7  12
ATOM     12  C   UNL     1      -4.269  14.291  22.060  0.00  0.00    +0.000 A 
ATOM     13  C   UNL     1      -5.310  13.769  22.828  0.00  0.00    +0.000 A 
ATOM     14  C   UNL     1      -6.539  14.433  22.853  0.00  0.00    +0.000 A 
ATOM     15  C   UNL     1      -6.724  15.581  22.082  0.00  0.00    +0.000 A 
ATOM     16  F   UNL     1      -7.916  16.192  22.092  0.00  0.00    +0.000 F 
ATOM     17  C   UNL     1      -5.696  16.106  21.313  0.00  0.00    +0.000 A 
ATOM     18  C   UNL     1      -4.464  15.472  21.334  0.00  0.00    +0.000 A 
ATOM     19  F   UNL     1      -3.458  15.977  20.603  0.00  0.00    +0.000 F 
ENDBRANCH   7  12
BRANCH   9  20
ATOM     20  C   UNL     1      -1.642  10.978  18.497  0.00  0.00    +0.000 A 
ATOM     21  C   UNL     1      -1.726  11.900  17.445  0.00  0.00    +0.000 A 
ATOM     22  C   UNL     1      -2.378  11.575  16.251  0.00  0.00    +0.000 A 
ATOM     23  C   UNL     1      -3.031  10.353  16.130  0.00  0.00    +0.000 A 
ATOM     24 CL   UNL     1      -3.844   9.959  14.667  0.00  0.00    +0.000 Cl
ATOM     25  C   UNL     1      -3.036   9.455  17.192  0.00  0.00    +0.000 A 
ATOM     26  C   UNL     1      -2.338   9.763  18.366  0.00  0.00    +0.000 A 
ENDBRANCH   9  20
BRANCH   1  30
ATOM     27  C   UNL     1       2.186   7.163  18.587  0.00  0.00    +0.000 A 
ATOM     28  C   UNL     1       1.848   7.239  19.935  0.00  0.00    +0.000 A 
ATOM     29  C   UNL     1       1.338   8.423  20.473  0.00  0.00    +0.000 A 
ATOM     30  C   UNL     1       1.062   9.530  19.657  0.00  0.00    +0.000 A 
ATOM     31  C   UNL     1       1.473   9.473  18.320  0.00  0.00    +0.000 A 
ATOM     32  C   UNL     1       2.052   8.307  17.796  0.00  0.00    +0.000 A 
BRANCH  27  36
ATOM     33  C   UNL     1       4.147   4.421  16.911  0.00  0.00    +0.000 C 
ATOM     34  C   UNL     1       3.990   5.712  17.671  0.00  0.00    +0.000 C 
ATOM     35  O   UNL     1       4.966   6.397  17.955  0.00  0.00    +0.000 OA
ATOM     36  N   UNL     1       2.667   5.985  17.980  0.00  0.00    +0.000 N 
ATOM     37  H   UNL     1       2.003   5.230  17.868  0.00  0.00    +0.000 HD
ENDBRANCH  27  36
ENDBRANCH   1  30
TORSDOF 4
ENDMDL
MODEL 7
REMARK VINA RESULT:      -7.8      2.966      3.737
REMARK  Name = 
REMARK  5 active torsions:
REMARK  status: ('A' for Active; 'I' for Inactive)
REMARK    1  A    between atoms: C_1  and  C_2
REMARK    2  A    between atoms: N_4  and  C_5
REMARK    3  A    between atoms: C_8  and  C_9
REMARK    4  A    between atoms: N_15  and  C_16
REMARK    5  A    between atoms: C_25  and  C_26
REMARK                            x       y       z     vdW  Elec       q    Type
REMARK                         _______ _______ _______ _____ _____    ______ ____
ROOT
ATOM      1  C   UNL     1       0.507  10.065  20.796  0.00  0.00    +0.000 A 
ATOM      2  S   UNL     1      -0.639   9.550  22.002  0.00  0.00    +0.000 S 
ATOM      3  C   UNL     1      -1.113  11.158  22.226  0.00  0.00    +0.000 A 
ATOM      4  N   UNL     1      -2.077  11.405  23.162  0.00  0.00    +0.000 N 
ATOM      5  C   UNL     1      -2.616  12.651  23.381  0.00  0.00    +0.000 C 
ATOM      6  O   UNL     1      -3.276  12.857  24.399  0.00  0.00    +0.000 OA
ATOM      7  N   UNL     1      -2.454  13.555  22.361  0.00  0.00    +0.000 N 
ATOM      8  N   UNL     1      -0.520  12.048  21.480  0.00  0.00    +0.000 NA
ATOM      9  C   UNL     1       0.490  11.462  20.735  0.00  0.00    +0.000 A 
ATOM     10  H   UNL     1      -2.333  10.676  23.808  0.00  0.00    +0.000 HD
ATOM     11  H   UNL     1      -2.239  13.137  21.460  0.00  0.00    +0.000 HD
ENDROOT
BRANCH   7  12
ATOM     12  C   UNL     1      -2.959  14.859  22.325  0.00  0.00    +0.000 A 
ATOM     13  C   UNL     1      -2.195  15.963  22.704  0.00  0.00    +0.000 A 
ATOM     14  C   UNL     1      -2.743  17.243  22.593  0.00  0.00    +0.000 A 
ATOM     15  C   UNL     1      -4.055  17.400  22.147  0.00  0.00    +0.000 A 
ATOM     16  F   UNL     1      -4.580  18.631  22.072  0.00  0.00    +0.000 F 
ATOM     17  C   UNL     1      -4.824  16.309  21.770  0.00  0.00    +0.000 A 
ATOM     18  C   UNL     1      -4.256  15.047  21.833  0.00  0.00    +0.000 A 
ATOM     19  F   UNL     1      -4.986  13.983  21.461  0.00  0.00    +0.000 F 
ENDBRANCH   7  12
BRANCH   9  20
ATOM     20  C   UNL     1       1.370  12.348  19.973  0.00  0.00    +0.000 A 
ATOM     21  C   UNL     1       1.430  12.338  18.573  0.00  0.00    +0.000 A 
ATOM     22  C   UNL     1       2.231  13.250  17.878  0.00  0.00    +0.000 A 
ATOM     23  C   UNL     1       3.050  14.127  18.581  0.00  0.00    +0.000 A 
ATOM     24 CL   UNL     1       4.044  15.239  17.726  0.00  0.00    +0.000 Cl
ATOM     25  C   UNL     1       3.074  14.098  19.971  0.00  0.00    +0.000 A 
ATOM     26  C   UNL     1       2.231  13.220  20.663  0.00  0.00    +0.000 A 
ENDBRANCH   9  20
BRANCH   1  30
ATOM     27  C   UNL     1       2.472   6.929  18.622  0.00  0.00    +0.000 A 
ATOM     28  C   UNL     1       2.257   6.824  19.993  0.00  0.00    +0.000 A 
ATOM     29  C   UNL     1       1.729   7.900  20.713  0.00  0.00    +0.000 A 
ATOM     30  C   UNL     1       1.312   9.071  20.064  0.00  0.00    +0.000 A 
ATOM     31  C   UNL     1       1.600   9.198  18.700  0.00  0.00    +0.000 A 
ATOM     32  C   UNL     1       2.196   8.145  17.990  0.00  0.00    +0.000 A 
BRANCH  27  36
ATOM     33  C   UNL     1       4.494   4.376  16.733  0.00  0.00    +0.000 C 
ATOM     34  C   UNL     1       4.286   5.456  17.763  0.00  0.00    +0.000 C 
ATOM     35  O   UNL     1       5.224   5.880  18.427  0.00  0.00    +0.000 OA
ATOM     36  N   UNL     1       2.964   5.866  17.838  0.00  0.00    +0.000 N 
ATOM     37  H   UNL     1       2.275   5.282  17.383  0.00  0.00    +0.000 HD
ENDBRANCH  27  36
ENDBRANCH   1  30
TORSDOF 4
ENDMDL
MODEL 8
REMARK VINA RESULT:      -7.8      5.138      7.975
REMARK  Name = 
REMARK  5 active torsions:
REMARK  status: ('A' for Active; 'I' for Inactive)
REMARK    1  A    between atoms: C_1  and  C_2
REMARK    2  A    between atoms: N_4  and  C_5
REMARK    3  A    between atoms: C_8  and  C_9
REMARK    4  A    between atoms: N_15  and  C_16
REMARK    5  A    between atoms: C_25  and  C_26
REMARK                            x       y       z     vdW  Elec       q    Type
REMARK                         _______ _______ _______ _____ _____    ______ ____
ROOT
ATOM      1  C   UNL     1      -0.758  11.972  19.033  0.00  0.00    +0.000 A 
ATOM      2  S   UNL     1      -1.105  13.523  19.745  0.00  0.00    +0.000 S 
ATOM      3  C   UNL     1       0.426  13.525  20.464  0.00  0.00    +0.000 A 
ATOM      4  N   UNL     1       0.754  14.597  21.244  0.00  0.00    +0.000 N 
ATOM      5  C   UNL     1       1.995  14.767  21.814  0.00  0.00    +0.000 C 
ATOM      6  O   UNL     1       2.144  15.601  22.706  0.00  0.00    +0.000 OA
ATOM      7  N   UNL     1       3.011  14.041  21.246  0.00  0.00    +0.000 N 
ATOM      8  N   UNL     1       1.186  12.495  20.216  0.00  0.00    +0.000 NA
ATOM      9  C   UNL     1       0.489  11.541  19.492  0.00  0.00    +0.000 A 
ATOM     10  H   UNL     1       0.032  15.243  21.520  0.00  0.00    +0.000 HD
ATOM     11  H   UNL     1       2.816  13.709  20.306  0.00  0.00    +0.000 HD
ENDROOT
BRANCH   7  12
ATOM     12  C   UNL     1       4.362  14.087  21.610  0.00  0.00    +0.000 A 
ATOM     13  C   UNL     1       4.866  13.360  22.689  0.00  0.00    +0.000 A 
ATOM     14  C   UNL     1       6.234  13.409  22.965  0.00  0.00    +0.000 A 
ATOM     15  C   UNL     1       7.071  14.213  22.190  0.00  0.00    +0.000 A 
ATOM     16  F   UNL     1       8.377  14.275  22.483  0.00  0.00    +0.000 F 
ATOM     17  C   UNL     1       6.578  14.943  21.118  0.00  0.00    +0.000 A 
ATOM     18  C   UNL     1       5.229  14.848  20.817  0.00  0.00    +0.000 A 
ATOM     19  F   UNL     1       4.742  15.540  19.776  0.00  0.00    +0.000 F 
ENDBRANCH   7  12
BRANCH   9  20
ATOM     20  C   UNL     1       1.139  10.248  19.277  0.00  0.00    +0.000 A 
ATOM     21  C   UNL     1       1.149   9.233  20.243  0.00  0.00    +0.000 A 
ATOM     22  C   UNL     1       1.719   7.984  19.973  0.00  0.00    +0.000 A 
ATOM     23  C   UNL     1       2.364   7.767  18.761  0.00  0.00    +0.000 A 
ATOM     24 CL   UNL     1       3.077   6.236  18.434  0.00  0.00    +0.000 Cl
ATOM     25  C   UNL     1       2.445   8.786  17.819  0.00  0.00    +0.000 A 
ATOM     26  C   UNL     1       1.827  10.017  18.072  0.00  0.00    +0.000 A 
ENDBRANCH   9  20
BRANCH   1  30
ATOM     27  C   UNL     1      -3.498  10.426  16.112  0.00  0.00    +0.000 A 
ATOM     28  C   UNL     1      -3.851  11.495  16.931  0.00  0.00    +0.000 A 
ATOM     29  C   UNL     1      -3.002  11.911  17.960  0.00  0.00    +0.000 A 
ATOM     30  C   UNL     1      -1.737  11.333  18.134  0.00  0.00    +0.000 A 
ATOM     31  C   UNL     1      -1.420  10.212  17.358  0.00  0.00    +0.000 A 
ATOM     32  C   UNL     1      -2.304   9.747  16.372  0.00  0.00    +0.000 A 
BRANCH  27  36
ATOM     33  C   UNL     1      -5.001   9.464  12.798  0.00  0.00    +0.000 C 
ATOM     34  C   UNL     1      -3.870   9.819  13.727  0.00  0.00    +0.000 C 
ATOM     35  O   UNL     1      -2.724   9.932  13.308  0.00  0.00    +0.000 OA
ATOM     36  N   UNL     1      -4.294   9.987  15.036  0.00  0.00    +0.000 N 
ATOM     37  H   UNL     1      -5.222   9.656  15.264  0.00  0.00    +0.000 HD
ENDBRANCH  27  36
ENDBRANCH   1  30
TORSDOF 4
ENDMDL
MODEL 9
REMARK VINA RESULT:      -7.8      3.115      3.789
REMARK  Name = 
REMARK  5 active torsions:
REMARK  status: ('A' for Active; 'I' for Inactive)
REMARK    1  A    between atoms: C_1  and  C_2
REMARK    2  A    between atoms: N_4  and  C_5
REMARK    3  A    between atoms: C_8  and  C_9
REMARK    4  A    between atoms: N_15  and  C_16
REMARK    5  A    between atoms: C_25  and  C_26
REMARK                            x       y       z     vdW  Elec       q    Type
REMARK                         _______ _______ _______ _____ _____    ______ ____
ROOT
ATOM      1  C   UNL     1       0.566   9.975  20.800  0.00  0.00    +0.000 A 
ATOM      2  S   UNL     1      -0.583   9.453  22.001  0.00  0.00    +0.000 S 
ATOM      3  C   UNL     1      -1.064  11.059  22.226  0.00  0.00    +0.000 A 
ATOM      4  N   UNL     1      -2.033  11.301  23.158  0.00  0.00    +0.000 N 
ATOM      5  C   UNL     1      -2.577  12.545  23.377  0.00  0.00    +0.000 C 
ATOM      6  O   UNL     1      -3.241  12.746  24.393  0.00  0.00    +0.000 OA
ATOM      7  N   UNL     1      -2.415  13.451  22.359  0.00  0.00    +0.000 N 
ATOM      8  N   UNL     1      -0.472  11.953  21.484  0.00  0.00    +0.000 NA
ATOM      9  C   UNL     1       0.543  11.372  20.741  0.00  0.00    +0.000 A 
ATOM     10  H   UNL     1      -2.288  10.571  23.803  0.00  0.00    +0.000 HD
ATOM     11  H   UNL     1      -2.195  13.035  21.458  0.00  0.00    +0.000 HD
ENDROOT
BRANCH   7  12
ATOM     12  C   UNL     1      -2.925  14.753  22.323  0.00  0.00    +0.000 A 
ATOM     13  C   UNL     1      -4.197  15.040  21.827  0.00  0.00    +0.000 A 
ATOM     14  C   UNL     1      -4.665  16.355  21.870  0.00  0.00    +0.000 A 
ATOM     15  C   UNL     1      -3.846  17.369  22.368  0.00  0.00    +0.000 A 
ATOM     16  F   UNL     1      -4.295  18.631  22.377  0.00  0.00    +0.000 F 
ATOM     17  C   UNL     1      -2.579  17.094  22.861  0.00  0.00    +0.000 A 
ATOM     18  C   UNL     1      -2.141  15.779  22.864  0.00  0.00    +0.000 A 
ATOM     19  F   UNL     1      -0.921  15.499  23.348  0.00  0.00    +0.000 F 
ENDBRANCH   7  12
BRANCH   9  20
ATOM     20  C   UNL     1       1.422  12.263  19.984  0.00  0.00    +0.000 A 
ATOM     21  C   UNL     1       1.490  12.253  18.584  0.00  0.00    +0.000 A 
ATOM     22  C   UNL     1       2.289  13.169  17.893  0.00  0.00    +0.000 A 
ATOM     23  C   UNL     1       3.100  14.050  18.600  0.00  0.00    +0.000 A 
ATOM     24 CL   UNL     1       4.093  15.167  17.751  0.00  0.00    +0.000 Cl
ATOM     25  C   UNL     1       3.117  14.021  19.991  0.00  0.00    +0.000 A 
ATOM     26  C   UNL     1       2.276  13.139  20.679  0.00  0.00    +0.000 A 
ENDBRANCH   9  20
BRANCH   1  30
ATOM     27  C   UNL     1       2.552   6.850  18.629  0.00  0.00    +0.000 A 
ATOM     28  C   UNL     1       2.332   6.742  20.000  0.00  0.00    +0.000 A 
ATOM     29  C   UNL     1       1.797   7.815  20.719  0.00  0.00    +0.000 A 
ATOM     30  C   UNL     1       1.377   8.985  20.070  0.00  0.00    +0.000 A 
ATOM     31  C   UNL     1       1.670   9.115  18.707  0.00  0.00    +0.000 A 
ATOM     32  C   UNL     1       2.273   8.065  17.998  0.00  0.00    +0.000 A 
BRANCH  27  36
ATOM     33  C   UNL     1       4.560   4.430  16.561  0.00  0.00    +0.000 C 
ATOM     34  C   UNL     1       4.381   5.577  17.520  0.00  0.00    +0.000 C 
ATOM     35  O   UNL     1       5.347   6.210  17.931  0.00  0.00    +0.000 OA
ATOM     36  N   UNL     1       3.051   5.790  17.846  0.00  0.00    +0.000 N 
ATOM     37  H   UNL     1       2.395   5.061  17.599  0.00  0.00    +0.000 HD
ENDBRANCH  27  36
ENDBRANCH   1  30
TORSDOF 4
ENDMDL
