MODEL 1
REMARK VINA RESULT:      -7.9      0.000      0.000
REMARK  Name = 
REMARK  3 active torsions:
REMARK  status: ('A' for Active; 'I' for Inactive)
REMARK    1  A    between atoms: C_5  and  C_6
REMARK    2  A    between atoms: C_11  and  C_12
REMARK    3  A    between atoms: C_12  and  N_13
REMARK                            x       y       z     vdW  Elec       q    Type
REMARK                         _______ _______ _______ _____ _____    ______ ____
ROOT
ATOM      1  C   UNL     1       3.789   6.364  17.777  0.00  0.00    +0.000 C 
ATOM      2  C   UNL     1       4.894   6.881  16.865  0.00  0.00    +0.000 C 
ATOM      3  C   UNL     1       5.244   5.877  15.769  0.00  0.00    +0.000 C 
ATOM      4  N   UNL     1       5.646   4.606  16.366  0.00  0.00    +0.000 NA
ATOM      5  C   UNL     1       4.489   3.917  16.941  0.00  0.00    +0.000 C 
ATOM      6  C   UNL     1       3.540   4.826  17.724  0.00  0.00    +0.000 C 
ATOM      7  C   UNL     1       4.173   5.446  18.940  0.00  0.00    +0.000 C 
ATOM      8  H   UNL     1       6.335   4.777  17.095  0.00  0.00    +0.000 HD
ENDROOT
BRANCH   1  13
ATOM      9 CL   UNL     1      -0.184  10.507  19.834  0.00  0.00    +0.000 Cl
ATOM     10  C   UNL     1       0.998   9.364  19.302  0.00  0.00    +0.000 A 
ATOM     11  C   UNL     1       1.458   9.457  17.984  0.00  0.00    +0.000 A 
ATOM     12  C   UNL     1       2.375   8.523  17.482  0.00  0.00    +0.000 A 
ATOM     13  C   UNL     1       2.839   7.463  18.269  0.00  0.00    +0.000 A 
ATOM     14  C   UNL     1       2.406   7.437  19.615  0.00  0.00    +0.000 A 
ATOM     15  C   UNL     1       1.489   8.360  20.129  0.00  0.00    +0.000 A 
ATOM     16 CL   UNL     1       1.010   8.187  21.779  0.00  0.00    +0.000 Cl
ENDBRANCH   1  13
BRANCH   6  17
ATOM     17  C   UNL     1       2.171   4.198  17.956  0.00  0.00    +0.000 C 
BRANCH  17  18
ATOM     18  N   UNL     1       1.950   3.602  19.280  0.00  0.00    +0.000 N 
ATOM     19  C   UNL     1       2.683   2.555  19.793  0.00  0.00    +0.000 A 
ATOM     20  C   UNL     1       2.270   2.331  21.084  0.00  0.00    +0.000 A 
ATOM     21  C   UNL     1       1.244   3.263  21.365  0.00  0.00    +0.000 A 
ATOM     22  C   UNL     1       1.058   4.026  20.230  0.00  0.00    +0.000 A 
ENDBRANCH  17  18
ENDBRANCH   6  17
TORSDOF 3
ENDMDL
MODEL 2
REMARK VINA RESULT:      -7.7      1.154      3.993
REMARK  Name = 
REMARK  3 active torsions:
REMARK  status: ('A' for Active; 'I' for Inactive)
REMARK    1  A    between atoms: C_5  and  C_6
REMARK    2  A    between atoms: C_11  and  C_12
REMARK    3  A    between atoms: C_12  and  N_13
REMARK                            x       y       z     vdW  Elec       q    Type
REMARK                         _______ _______ _______ _____ _____    ______ ____
ROOT
ATOM      1  C   UNL     1       2.411   5.337  19.605  0.00  0.00    +0.000 C 
ATOM      2  C   UNL     1       1.525   4.686  20.660  0.00  0.00    +0.000 C 
ATOM      3  C   UNL     1       2.284   3.641  21.474  0.00  0.00    +0.000 C 
ATOM      4  N   UNL     1       2.833   2.619  20.587  0.00  0.00    +0.000 NA
ATOM      5  C   UNL     1       3.954   3.156  19.812  0.00  0.00    +0.000 C 
ATOM      6  C   UNL     1       3.716   4.561  19.253  0.00  0.00    +0.000 C 
ATOM      7  C   UNL     1       2.587   4.626  18.260  0.00  0.00    +0.000 C 
ATOM      8  H   UNL     1       2.106   2.295  19.952  0.00  0.00    +0.000 HD
ENDROOT
BRANCH   1  13
ATOM      9 CL   UNL     1       0.882  11.187  18.818  0.00  0.00    +0.000 Cl
ATOM     10  C   UNL     1       1.377   9.553  19.088  0.00  0.00    +0.000 A 
ATOM     11  C   UNL     1       1.882   8.830  18.003  0.00  0.00    +0.000 A 
ATOM     12  C   UNL     1       2.247   7.485  18.152  0.00  0.00    +0.000 A 
ATOM     13  C   UNL     1       2.098   6.821  19.376  0.00  0.00    +0.000 A 
ATOM     14  C   UNL     1       1.647   7.599  20.467  0.00  0.00    +0.000 A 
ATOM     15  C   UNL     1       1.277   8.941  20.333  0.00  0.00    +0.000 A 
ATOM     16 CL   UNL     1       0.702   9.762  21.738  0.00  0.00    +0.000 Cl
ENDBRANCH   1  13
BRANCH   6  17
ATOM     17  C   UNL     1       5.002   5.252  18.817  0.00  0.00    +0.000 C 
BRANCH  17  18
ATOM     18  N   UNL     1       5.305   5.206  17.380  0.00  0.00    +0.000 N 
ATOM     19  C   UNL     1       5.634   4.060  16.692  0.00  0.00    +0.000 A 
ATOM     20  C   UNL     1       5.749   4.375  15.359  0.00  0.00    +0.000 A 
ATOM     21  C   UNL     1       5.492   5.760  15.231  0.00  0.00    +0.000 A 
ATOM     22  C   UNL     1       5.234   6.250  16.495  0.00  0.00    +0.000 A 
ENDBRANCH  17  18
ENDBRANCH   6  17
TORSDOF 3
ENDMDL
MODEL 3
REMARK VINA RESULT:      -7.5      1.483      3.994
REMARK  Name = 
REMARK  3 active torsions:
REMARK  status: ('A' for Active; 'I' for Inactive)
REMARK    1  A    between atoms: C_5  and  C_6
REMARK    2  A    between atoms: C_11  and  C_12
REMARK    3  A    between atoms: C_12  and  N_13
REMARK                            x       y       z     vdW  Elec       q    Type
REMARK                         _______ _______ _______ _____ _____    ______ ____
ROOT
ATOM      1  C   UNL     1       2.540   4.513  18.561  0.00  0.00    +0.000 C 
ATOM      2  C   UNL     1       1.267   3.702  18.764  0.00  0.00    +0.000 C 
ATOM      3  C   UNL     1       1.544   2.372  19.460  0.00  0.00    +0.000 C 
ATOM      4  N   UNL     1       2.510   1.595  18.686  0.00  0.00    +0.000 NA
ATOM      5  C   UNL     1       3.847   2.185  18.788  0.00  0.00    +0.000 C 
ATOM      6  C   UNL     1       3.872   3.710  18.672  0.00  0.00    +0.000 C 
ATOM      7  C   UNL     1       3.406   4.216  17.334  0.00  0.00    +0.000 C 
ATOM      8  H   UNL     1       2.223   1.573  17.709  0.00  0.00    +0.000 HD
ENDROOT
BRANCH   1  13
ATOM      9 CL   UNL     1       1.418  10.468  19.232  0.00  0.00    +0.000 Cl
ATOM     10  C   UNL     1       1.800   8.789  19.092  0.00  0.00    +0.000 A 
ATOM     11  C   UNL     1       2.227   8.313  17.848  0.00  0.00    +0.000 A 
ATOM     12  C   UNL     1       2.498   6.950  17.662  0.00  0.00    +0.000 A 
ATOM     13  C   UNL     1       2.330   6.026  18.699  0.00  0.00    +0.000 A 
ATOM     14  C   UNL     1       1.961   6.550  19.960  0.00  0.00    +0.000 A 
ATOM     15  C   UNL     1       1.685   7.906  20.160  0.00  0.00    +0.000 A 
ATOM     16 CL   UNL     1       1.203   8.406  21.741  0.00  0.00    +0.000 Cl
ENDBRANCH   1  13
BRANCH   6  17
ATOM     17  C   UNL     1       5.172   4.323  19.180  0.00  0.00    +0.000 C 
BRANCH  17  18
ATOM     18  N   UNL     1       6.015   4.976  18.169  0.00  0.00    +0.000 N 
ATOM     19  C   UNL     1       6.671   4.311  17.158  0.00  0.00    +0.000 A 
ATOM     20  C   UNL     1       7.275   5.243  16.349  0.00  0.00    +0.000 A 
ATOM     21  C   UNL     1       6.988   6.518  16.890  0.00  0.00    +0.000 A 
ATOM     22  C   UNL     1       6.221   6.323  18.021  0.00  0.00    +0.000 A 
ENDBRANCH  17  18
ENDBRANCH   6  17
TORSDOF 3
ENDMDL
MODEL 4
REMARK VINA RESULT:      -7.5      1.545      3.727
REMARK  Name = 
REMARK  3 active torsions:
REMARK  status: ('A' for Active; 'I' for Inactive)
REMARK    1  A    between atoms: C_5  and  C_6
REMARK    2  A    between atoms: C_11  and  C_12
REMARK    3  A    between atoms: C_12  and  N_13
REMARK                            x       y       z     vdW  Elec       q    Type
REMARK                         _______ _______ _______ _____ _____    ______ ____
ROOT
ATOM      1  C   UNL     1       2.254   4.916  19.075  0.00  0.00    +0.000 C 
ATOM      2  C   UNL     1       1.844   4.182  20.346  0.00  0.00    +0.000 C 
ATOM      3  C   UNL     1       2.757   2.993  20.635  0.00  0.00    +0.000 C 
ATOM      4  N   UNL     1       2.749   2.070  19.503  0.00  0.00    +0.000 NA
ATOM      5  C   UNL     1       3.476   2.640  18.366  0.00  0.00    +0.000 C 
ATOM      6  C   UNL     1       3.180   4.119  18.109  0.00  0.00    +0.000 C 
ATOM      7  C   UNL     1       1.749   4.386  17.731  0.00  0.00    +0.000 C 
ATOM      8  H   UNL     1       1.787   1.879  19.228  0.00  0.00    +0.000 HD
ENDROOT
BRANCH   1  13
ATOM      9 CL   UNL     1       1.134  10.894  19.510  0.00  0.00    +0.000 Cl
ATOM     10  C   UNL     1       1.517   9.211  19.434  0.00  0.00    +0.000 A 
ATOM     11  C   UNL     1       1.913   8.680  18.202  0.00  0.00    +0.000 A 
ATOM     12  C   UNL     1       2.183   7.311  18.070  0.00  0.00    +0.000 A 
ATOM     13  C   UNL     1       2.043   6.434  19.152  0.00  0.00    +0.000 A 
ATOM     14  C   UNL     1       1.705   7.013  20.397  0.00  0.00    +0.000 A 
ATOM     15  C   UNL     1       1.431   8.377  20.543  0.00  0.00    +0.000 A 
ATOM     16 CL   UNL     1       0.987   8.945  22.112  0.00  0.00    +0.000 Cl
ENDBRANCH   1  13
BRANCH   6  17
ATOM     17  C   UNL     1       4.220   4.786  17.216  0.00  0.00    +0.000 C 
BRANCH  17  18
ATOM     18  N   UNL     1       5.570   4.914  17.782  0.00  0.00    +0.000 N 
ATOM     19  C   UNL     1       6.721   4.511  17.144  0.00  0.00    +0.000 A 
ATOM     20  C   UNL     1       7.795   4.876  17.920  0.00  0.00    +0.000 A 
ATOM     21  C   UNL     1       7.283   5.514  19.074  0.00  0.00    +0.000 A 
ATOM     22  C   UNL     1       5.906   5.510  18.969  0.00  0.00    +0.000 A 
ENDBRANCH  17  18
ENDBRANCH   6  17
TORSDOF 3
ENDMDL
MODEL 5
REMARK VINA RESULT:      -7.4      0.755      1.554
REMARK  Name = 
REMARK  3 active torsions:
REMARK  status: ('A' for Active; 'I' for Inactive)
REMARK    1  A    between atoms: C_5  and  C_6
REMARK    2  A    between atoms: C_11  and  C_12
REMARK    3  A    between atoms: C_12  and  N_13
REMARK                            x       y       z     vdW  Elec       q    Type
REMARK                         _______ _______ _______ _____ _____    ______ ____
ROOT
ATOM      1  C   UNL     1       3.834   6.131  17.997  0.00  0.00    +0.000 C 
ATOM      2  C   UNL     1       4.809   6.919  17.130  0.00  0.00    +0.000 C 
ATOM      3  C   UNL     1       5.135   6.187  15.831  0.00  0.00    +0.000 C 
ATOM      4  N   UNL     1       5.687   4.867  16.126  0.00  0.00    +0.000 NA
ATOM      5  C   UNL     1       4.644   3.972  16.633  0.00  0.00    +0.000 C 
ATOM      6  C   UNL     1       3.702   4.617  17.651  0.00  0.00    +0.000 C 
ATOM      7  C   UNL     1       4.392   5.043  18.918  0.00  0.00    +0.000 C 
ATOM      8  H   UNL     1       6.425   4.956  16.823  0.00  0.00    +0.000 HD
ENDROOT
BRANCH   1  13
ATOM      9 CL   UNL     1       0.108   9.902  21.008  0.00  0.00    +0.000 Cl
ATOM     10  C   UNL     1       1.102   8.816  20.104  0.00  0.00    +0.000 A 
ATOM     11  C   UNL     1       1.546   7.649  20.736  0.00  0.00    +0.000 A 
ATOM     12  C   UNL     1       2.399   6.759  20.070  0.00  0.00    +0.000 A 
ATOM     13  C   UNL     1       2.850   7.018  18.770  0.00  0.00    +0.000 A 
ATOM     14  C   UNL     1       2.330   8.171  18.137  0.00  0.00    +0.000 A 
ATOM     15  C   UNL     1       1.480   9.069  18.790  0.00  0.00    +0.000 A 
ATOM     16 CL   UNL     1       0.952  10.461  17.915  0.00  0.00    +0.000 Cl
ENDBRANCH   1  13
BRANCH   6  17
ATOM     17  C   UNL     1       2.413   3.829  17.850  0.00  0.00    +0.000 C 
BRANCH  17  18
ATOM     18  N   UNL     1       2.145   3.363  19.217  0.00  0.00    +0.000 N 
ATOM     19  C   UNL     1       3.038   2.651  19.984  0.00  0.00    +0.000 A 
ATOM     20  C   UNL     1       2.493   2.477  21.233  0.00  0.00    +0.000 A 
ATOM     21  C   UNL     1       1.221   3.094  21.226  0.00  0.00    +0.000 A 
ATOM     22  C   UNL     1       1.026   3.621  19.965  0.00  0.00    +0.000 A 
ENDBRANCH  17  18
ENDBRANCH   6  17
TORSDOF 3
ENDMDL
MODEL 6
REMARK VINA RESULT:      -7.3      1.771      4.346
REMARK  Name = 
REMARK  3 active torsions:
REMARK  status: ('A' for Active; 'I' for Inactive)
REMARK    1  A    between atoms: C_5  and  C_6
REMARK    2  A    between atoms: C_11  and  C_12
REMARK    3  A    between atoms: C_12  and  N_13
REMARK                            x       y       z     vdW  Elec       q    Type
REMARK                         _______ _______ _______ _____ _____    ______ ____
ROOT
ATOM      1  C   UNL     1       2.369   4.360  18.793  0.00  0.00    +0.000 C 
ATOM      2  C   UNL     1       1.211   3.377  18.908  0.00  0.00    +0.000 C 
ATOM      3  C   UNL     1       1.694   1.963  19.225  0.00  0.00    +0.000 C 
ATOM      4  N   UNL     1       2.628   1.512  18.197  0.00  0.00    +0.000 NA
ATOM      5  C   UNL     1       3.906   2.218  18.316  0.00  0.00    +0.000 C 
ATOM      6  C   UNL     1       3.774   3.719  18.578  0.00  0.00    +0.000 C 
ATOM      7  C   UNL     1       3.106   4.466  17.456  0.00  0.00    +0.000 C 
ATOM      8  H   UNL     1       2.230   1.687  17.276  0.00  0.00    +0.000 HD
ENDROOT
BRANCH   1  13
ATOM      9 CL   UNL     1       1.329  10.026  20.791  0.00  0.00    +0.000 Cl
ATOM     10  C   UNL     1       1.559   8.428  20.176  0.00  0.00    +0.000 A 
ATOM     11  C   UNL     1       1.361   7.351  21.047  0.00  0.00    +0.000 A 
ATOM     12  C   UNL     1       1.587   6.036  20.617  0.00  0.00    +0.000 A 
ATOM     13  C   UNL     1       2.036   5.761  19.320  0.00  0.00    +0.000 A 
ATOM     14  C   UNL     1       2.162   6.866  18.447  0.00  0.00    +0.000 A 
ATOM     15  C   UNL     1       1.943   8.183  18.862  0.00  0.00    +0.000 A 
ATOM     16 CL   UNL     1       2.175   9.442  17.703  0.00  0.00    +0.000 Cl
ENDBRANCH   1  13
BRANCH   6  17
ATOM     17  C   UNL     1       5.062   4.347  19.097  0.00  0.00    +0.000 C 
BRANCH  17  18
ATOM     18  N   UNL     1       5.910   5.004  18.094  0.00  0.00    +0.000 N 
ATOM     19  C   UNL     1       6.243   6.339  18.111  0.00  0.00    +0.000 A 
ATOM     20  C   UNL     1       7.127   6.578  17.087  0.00  0.00    +0.000 A 
ATOM     21  C   UNL     1       7.333   5.350  16.415  0.00  0.00    +0.000 A 
ATOM     22  C   UNL     1       6.559   4.399  17.049  0.00  0.00    +0.000 A 
ENDBRANCH  17  18
ENDBRANCH   6  17
TORSDOF 3
ENDMDL
MODEL 7
REMARK VINA RESULT:      -7.2      1.351      4.284
REMARK  Name = 
REMARK  3 active torsions:
REMARK  status: ('A' for Active; 'I' for Inactive)
REMARK    1  A    between atoms: C_5  and  C_6
REMARK    2  A    between atoms: C_11  and  C_12
REMARK    3  A    between atoms: C_12  and  N_13
REMARK                            x       y       z     vdW  Elec       q    Type
REMARK                         _______ _______ _______ _____ _____    ______ ____
ROOT
ATOM      1  C   UNL     1       2.284   5.046  19.950  0.00  0.00    +0.000 C 
ATOM      2  C   UNL     1       1.492   4.096  20.840  0.00  0.00    +0.000 C 
ATOM      3  C   UNL     1       2.359   2.954  21.365  0.00  0.00    +0.000 C 
ATOM      4  N   UNL     1       2.945   2.217  20.248  0.00  0.00    +0.000 NA
ATOM      5  C   UNL     1       3.990   3.011  19.598  0.00  0.00    +0.000 C 
ATOM      6  C   UNL     1       3.626   4.483  19.394  0.00  0.00    +0.000 C 
ATOM      7  C   UNL     1       2.456   4.689  18.472  0.00  0.00    +0.000 C 
ATOM      8  H   UNL     1       2.219   1.994  19.571  0.00  0.00    +0.000 HD
ENDROOT
BRANCH   1  13
ATOM      9 CL   UNL     1       0.862  10.959  20.400  0.00  0.00    +0.000 Cl
ATOM     10  C   UNL     1       1.205   9.275  20.218  0.00  0.00    +0.000 A 
ATOM     11  C   UNL     1       0.973   8.434  21.312  0.00  0.00    +0.000 A 
ATOM     12  C   UNL     1       1.285   7.069  21.239  0.00  0.00    +0.000 A 
ATOM     13  C   UNL     1       1.854   6.512  20.088  0.00  0.00    +0.000 A 
ATOM     14  C   UNL     1       2.012   7.376  18.979  0.00  0.00    +0.000 A 
ATOM     15  C   UNL     1       1.709   8.740  19.038  0.00  0.00    +0.000 A 
ATOM     16 CL   UNL     1       1.992   9.690  17.624  0.00  0.00    +0.000 Cl
ENDBRANCH   1  13
BRANCH   6  17
ATOM     17  C   UNL     1       4.839   5.360  19.106  0.00  0.00    +0.000 C 
BRANCH  17  18
ATOM     18  N   UNL     1       5.139   5.602  17.689  0.00  0.00    +0.000 N 
ATOM     19  C   UNL     1       5.636   4.651  16.827  0.00  0.00    +0.000 A 
ATOM     20  C   UNL     1       5.695   5.198  15.568  0.00  0.00    +0.000 A 
ATOM     21  C   UNL     1       5.230   6.530  15.666  0.00  0.00    +0.000 A 
ATOM     22  C   UNL     1       4.907   6.757  16.989  0.00  0.00    +0.000 A 
ENDBRANCH  17  18
ENDBRANCH   6  17
TORSDOF 3
ENDMDL
MODEL 8
REMARK VINA RESULT:      -7.2      1.500      2.282
REMARK  Name = 
REMARK  3 active torsions:
REMARK  status: ('A' for Active; 'I' for Inactive)
REMARK    1  A    between atoms: C_5  and  C_6
REMARK    2  A    between atoms: C_11  and  C_12
REMARK    3  A    between atoms: C_12  and  N_13
REMARK                            x       y       z     vdW  Elec       q    Type
REMARK                         _______ _______ _______ _____ _____    ______ ____
ROOT
ATOM      1  C   UNL     1       4.970   5.536  17.937  0.00  0.00    +0.000 C 
ATOM      2  C   UNL     1       6.235   6.371  17.786  0.00  0.00    +0.000 C 
ATOM      3  C   UNL     1       6.981   6.047  16.493  0.00  0.00    +0.000 C 
ATOM      4  N   UNL     1       7.316   4.625  16.454  0.00  0.00    +0.000 NA
ATOM      5  C   UNL     1       6.114   3.818  16.229  0.00  0.00    +0.000 C 
ATOM      6  C   UNL     1       4.897   4.261  17.043  0.00  0.00    +0.000 C 
ATOM      7  C   UNL     1       5.091   4.129  18.529  0.00  0.00    +0.000 C 
ATOM      8  H   UNL     1       7.746   4.353  17.336  0.00  0.00    +0.000 HD
ENDROOT
BRANCH   1  13
ATOM      9 CL   UNL     1       0.555   8.800  20.589  0.00  0.00    +0.000 Cl
ATOM     10  C   UNL     1       1.754   7.855  19.779  0.00  0.00    +0.000 A 
ATOM     11  C   UNL     1       2.213   6.693  20.408  0.00  0.00    +0.000 A 
ATOM     12  C   UNL     1       3.224   5.918  19.822  0.00  0.00    +0.000 A 
ATOM     13  C   UNL     1       3.817   6.290  18.610  0.00  0.00    +0.000 A 
ATOM     14  C   UNL     1       3.283   7.432  17.969  0.00  0.00    +0.000 A 
ATOM     15  C   UNL     1       2.277   8.216  18.542  0.00  0.00    +0.000 A 
ATOM     16 CL   UNL     1       1.747   9.610  17.671  0.00  0.00    +0.000 Cl
ENDBRANCH   1  13
BRANCH   6  17
ATOM     17  C   UNL     1       3.587   3.696  16.507  0.00  0.00    +0.000 C 
BRANCH  17  18
ATOM     18  N   UNL     1       2.668   3.137  17.508  0.00  0.00    +0.000 N 
ATOM     19  C   UNL     1       2.918   2.000  18.243  0.00  0.00    +0.000 A 
ATOM     20  C   UNL     1       1.895   1.836  19.147  0.00  0.00    +0.000 A 
ATOM     21  C   UNL     1       0.986   2.902  18.950  0.00  0.00    +0.000 A 
ATOM     22  C   UNL     1       1.481   3.681  17.923  0.00  0.00    +0.000 A 
ENDBRANCH  17  18
ENDBRANCH   6  17
TORSDOF 3
ENDMDL
MODEL 9
REMARK VINA RESULT:      -7.1      1.809      4.135
REMARK  Name = 
REMARK  3 active torsions:
REMARK  status: ('A' for Active; 'I' for Inactive)
REMARK    1  A    between atoms: C_5  and  C_6
REMARK    2  A    between atoms: C_11  and  C_12
REMARK    3  A    between atoms: C_12  and  N_13
REMARK                            x       y       z     vdW  Elec       q    Type
REMARK                         _______ _______ _______ _____ _____    ______ ____
ROOT
ATOM      1  C   UNL     1       2.763   4.629  18.932  0.00  0.00    +0.000 C 
ATOM      2  C   UNL     1       2.617   3.516  19.962  0.00  0.00    +0.000 C 
ATOM      3  C   UNL     1       3.780   2.529  19.901  0.00  0.00    +0.000 C 
ATOM      4  N   UNL     1       3.879   1.956  18.561  0.00  0.00    +0.000 NA
ATOM      5  C   UNL     1       4.380   2.951  17.610  0.00  0.00    +0.000 C 
ATOM      6  C   UNL     1       3.760   4.341  17.769  0.00  0.00    +0.000 C 
ATOM      7  C   UNL     1       2.280   4.369  17.503  0.00  0.00    +0.000 C 
ATOM      8  H   UNL     1       2.961   1.633  18.261  0.00  0.00    +0.000 HD
ENDROOT
BRANCH   1  13
ATOM      9 CL   UNL     1       0.973  10.153  20.792  0.00  0.00    +0.000 Cl
ATOM     10  C   UNL     1       1.417   8.587  20.213  0.00  0.00    +0.000 A 
ATOM     11  C   UNL     1       1.310   7.504  21.092  0.00  0.00    +0.000 A 
ATOM     12  C   UNL     1       1.708   6.221  20.693  0.00  0.00    +0.000 A 
ATOM     13  C   UNL     1       2.243   5.986  19.421  0.00  0.00    +0.000 A 
ATOM     14  C   UNL     1       2.276   7.089  18.536  0.00  0.00    +0.000 A 
ATOM     15  C   UNL     1       1.885   8.375  18.921  0.00  0.00    +0.000 A 
ATOM     16 CL   UNL     1       2.017   9.640  17.753  0.00  0.00    +0.000 Cl
ENDBRANCH   1  13
BRANCH   6  17
ATOM     17  C   UNL     1       4.564   5.433  17.074  0.00  0.00    +0.000 C 
BRANCH  17  18
ATOM     18  N   UNL     1       5.856   5.772  17.686  0.00  0.00    +0.000 N 
ATOM     19  C   UNL     1       6.720   6.726  17.198  0.00  0.00    +0.000 A 
ATOM     20  C   UNL     1       7.771   6.845  18.075  0.00  0.00    +0.000 A 
ATOM     21  C   UNL     1       7.547   5.928  19.127  0.00  0.00    +0.000 A 
ATOM     22  C   UNL     1       6.365   5.269  18.855  0.00  0.00    +0.000 A 
ENDBRANCH  17  18
ENDBRANCH   6  17
TORSDOF 3
ENDMDL
