MODEL 1
REMARK VINA RESULT:      -7.1      0.000      0.000
REMARK  Name = 
REMARK  1 active torsions:
REMARK  status: ('A' for Active; 'I' for Inactive)
REMARK    1  A    between atoms: C_2  and  C_14
REMARK                            x       y       z     vdW  Elec       q    Type
REMARK                         _______ _______ _______ _____ _____    ______ ____
ROOT
ATOM      1  O   UNL     1       6.291   6.167  15.928  0.00  0.00    +0.000 OA
ATOM      2  C   UNL     1       6.645   6.482  17.055  0.00  0.00    +0.000 C 
ATOM      3  N   UNL     1       6.026   6.187  18.242  0.00  0.00    +0.000 N 
ATOM      4  C   UNL     1       4.909   5.408  18.403  0.00  0.00    +0.000 A 
ATOM      5  N   UNL     1       4.261   5.383  19.542  0.00  0.00    +0.000 NA
ATOM      6  C   UNL     1       3.155   4.555  19.429  0.00  0.00    +0.000 A 
ATOM      7  C   UNL     1       2.175   4.339  20.420  0.00  0.00    +0.000 A 
ATOM      8  C   UNL     1       1.104   3.479  20.157  0.00  0.00    +0.000 A 
ATOM      9  C   UNL     1       1.020   2.828  18.935  0.00  0.00    +0.000 A 
ATOM     10  F   UNL     1      -0.012   2.006  18.704  0.00  0.00    +0.000 F 
ATOM     11  C   UNL     1       1.973   3.011  17.936  0.00  0.00    +0.000 A 
ATOM     12  C   UNL     1       3.030   3.896  18.202  0.00  0.00    +0.000 A 
ATOM     13  S   UNL     1       4.328   4.373  17.185  0.00  0.00    +0.000 S 
ATOM     14  H   UNL     1       6.319   6.656  19.086  0.00  0.00    +0.000 HD
ENDROOT
BRANCH   2  15
ATOM     15  C   UNL     1       7.856   7.343  17.233  0.00  0.00    +0.000 C 
ATOM     16  C   UNL     1       7.713   8.768  17.723  0.00  0.00    +0.000 C 
ATOM     17  C   UNL     1       8.307   7.726  18.625  0.00  0.00    +0.000 C 
ENDBRANCH   2  15
TORSDOF 1
ENDMDL
MODEL 2
REMARK VINA RESULT:      -6.6      2.639      3.212
REMARK  Name = 
REMARK  1 active torsions:
REMARK  status: ('A' for Active; 'I' for Inactive)
REMARK    1  A    between atoms: C_2  and  C_14
REMARK                            x       y       z     vdW  Elec       q    Type
REMARK                         _______ _______ _______ _____ _____    ______ ____
ROOT
ATOM      1  O   UNL     1       7.115   4.239  17.299  0.00  0.00    +0.000 OA
ATOM      2  C   UNL     1       6.365   4.390  16.345  0.00  0.00    +0.000 C 
ATOM      3  N   UNL     1       5.004   4.230  16.315  0.00  0.00    +0.000 N 
ATOM      4  C   UNL     1       4.197   3.937  17.384  0.00  0.00    +0.000 A 
ATOM      5  N   UNL     1       2.950   3.572  17.210  0.00  0.00    +0.000 NA
ATOM      6  C   UNL     1       2.372   3.295  18.438  0.00  0.00    +0.000 A 
ATOM      7  C   UNL     1       1.068   2.800  18.650  0.00  0.00    +0.000 A 
ATOM      8  C   UNL     1       0.623   2.557  19.953  0.00  0.00    +0.000 A 
ATOM      9  C   UNL     1       1.455   2.822  21.031  0.00  0.00    +0.000 A 
ATOM     10  F   UNL     1       1.009   2.586  22.272  0.00  0.00    +0.000 F 
ATOM     11  C   UNL     1       2.745   3.319  20.861  0.00  0.00    +0.000 A 
ATOM     12  C   UNL     1       3.189   3.535  19.548  0.00  0.00    +0.000 A 
ATOM     13  S   UNL     1       4.718   4.090  18.996  0.00  0.00    +0.000 S 
ATOM     14  H   UNL     1       4.525   4.208  15.427  0.00  0.00    +0.000 HD
ENDROOT
BRANCH   2  15
ATOM     15  C   UNL     1       6.937   4.728  15.004  0.00  0.00    +0.000 C 
ATOM     16  C   UNL     1       6.603   3.879  13.797  0.00  0.00    +0.000 C 
ATOM     17  C   UNL     1       6.035   5.263  13.916  0.00  0.00    +0.000 C 
ENDBRANCH   2  15
TORSDOF 1
ENDMDL
MODEL 3
REMARK VINA RESULT:      -6.6      3.061      3.854
REMARK  Name = 
REMARK  1 active torsions:
REMARK  status: ('A' for Active; 'I' for Inactive)
REMARK    1  A    between atoms: C_2  and  C_14
REMARK                            x       y       z     vdW  Elec       q    Type
REMARK                         _______ _______ _______ _____ _____    ______ ____
ROOT
ATOM      1  O   UNL     1       6.324   5.895  15.331  0.00  0.00    +0.000 OA
ATOM      2  C   UNL     1       5.898   4.757  15.197  0.00  0.00    +0.000 C 
ATOM      3  N   UNL     1       4.940   4.125  15.947  0.00  0.00    +0.000 N 
ATOM      4  C   UNL     1       4.210   4.681  16.966  0.00  0.00    +0.000 A 
ATOM      5  N   UNL     1       3.496   3.934  17.773  0.00  0.00    +0.000 NA
ATOM      6  C   UNL     1       2.894   4.731  18.732  0.00  0.00    +0.000 A 
ATOM      7  C   UNL     1       2.113   4.279  19.816  0.00  0.00    +0.000 A 
ATOM      8  C   UNL     1       1.575   5.205  20.716  0.00  0.00    +0.000 A 
ATOM      9  C   UNL     1       1.793   6.562  20.528  0.00  0.00    +0.000 A 
ATOM     10  F   UNL     1       1.267   7.434  21.398  0.00  0.00    +0.000 F 
ATOM     11  C   UNL     1       2.552   7.046  19.465  0.00  0.00    +0.000 A 
ATOM     12  C   UNL     1       3.107   6.105  18.583  0.00  0.00    +0.000 A 
ATOM     13  S   UNL     1       4.115   6.361  17.217  0.00  0.00    +0.000 S 
ATOM     14  H   UNL     1       4.807   3.130  15.849  0.00  0.00    +0.000 HD
ENDROOT
BRANCH   2  15
ATOM     15  C   UNL     1       6.489   3.868  14.148  0.00  0.00    +0.000 C 
ATOM     16  C   UNL     1       5.765   3.648  12.838  0.00  0.00    +0.000 C 
ATOM     17  C   UNL     1       7.021   4.468  12.866  0.00  0.00    +0.000 C 
ENDBRANCH   2  15
TORSDOF 1
ENDMDL
MODEL 4
REMARK VINA RESULT:      -6.4      3.420      6.247
REMARK  Name = 
REMARK  1 active torsions:
REMARK  status: ('A' for Active; 'I' for Inactive)
REMARK    1  A    between atoms: C_2  and  C_14
REMARK                            x       y       z     vdW  Elec       q    Type
REMARK                         _______ _______ _______ _____ _____    ______ ____
ROOT
ATOM      1  O   UNL     1       1.369   2.774  18.468  0.00  0.00    +0.000 OA
ATOM      2  C   UNL     1       1.922   3.373  19.378  0.00  0.00    +0.000 C 
ATOM      3  N   UNL     1       3.131   4.019  19.346  0.00  0.00    +0.000 N 
ATOM      4  C   UNL     1       3.935   4.183  18.247  0.00  0.00    +0.000 A 
ATOM      5  N   UNL     1       5.170   4.602  18.370  0.00  0.00    +0.000 NA
ATOM      6  C   UNL     1       5.773   4.641  17.123  0.00  0.00    +0.000 A 
ATOM      7  C   UNL     1       7.121   4.965  16.862  0.00  0.00    +0.000 A 
ATOM      8  C   UNL     1       7.593   4.952  15.545  0.00  0.00    +0.000 A 
ATOM      9  C   UNL     1       6.733   4.640  14.502  0.00  0.00    +0.000 A 
ATOM     10  F   UNL     1       7.203   4.636  13.248  0.00  0.00    +0.000 F 
ATOM     11  C   UNL     1       5.394   4.322  14.722  0.00  0.00    +0.000 A 
ATOM     12  C   UNL     1       4.939   4.315  16.049  0.00  0.00    +0.000 A 
ATOM     13  S   UNL     1       3.381   3.929  16.659  0.00  0.00    +0.000 S 
ATOM     14  H   UNL     1       3.558   4.320  20.209  0.00  0.00    +0.000 HD
ENDROOT
BRANCH   2  15
ATOM     15  C   UNL     1       1.292   3.395  20.736  0.00  0.00    +0.000 C 
ATOM     16  C   UNL     1       1.586   2.293  21.731  0.00  0.00    +0.000 C 
ATOM     17  C   UNL     1       2.143   3.668  21.955  0.00  0.00    +0.000 C 
ENDBRANCH   2  15
TORSDOF 1
ENDMDL
MODEL 5
REMARK VINA RESULT:      -6.3      3.964      4.765
REMARK  Name = 
REMARK  1 active torsions:
REMARK  status: ('A' for Active; 'I' for Inactive)
REMARK    1  A    between atoms: C_2  and  C_14
REMARK                            x       y       z     vdW  Elec       q    Type
REMARK                         _______ _______ _______ _____ _____    ______ ____
ROOT
ATOM      1  O   UNL     1       2.240   8.820  17.379  0.00  0.00    +0.000 OA
ATOM      2  C   UNL     1       1.722   9.066  18.458  0.00  0.00    +0.000 C 
ATOM      3  N   UNL     1       1.613   8.239  19.545  0.00  0.00    +0.000 N 
ATOM      4  C   UNL     1       2.139   6.977  19.661  0.00  0.00    +0.000 A 
ATOM      5  N   UNL     1       1.780   6.182  20.639  0.00  0.00    +0.000 NA
ATOM      6  C   UNL     1       2.420   4.961  20.504  0.00  0.00    +0.000 A 
ATOM      7  C   UNL     1       2.227   3.827  21.320  0.00  0.00    +0.000 A 
ATOM      8  C   UNL     1       2.941   2.654  21.054  0.00  0.00    +0.000 A 
ATOM      9  C   UNL     1       3.848   2.615  20.005  0.00  0.00    +0.000 A 
ATOM     10  F   UNL     1       4.524   1.483  19.770  0.00  0.00    +0.000 F 
ATOM     11  C   UNL     1       4.070   3.718  19.184  0.00  0.00    +0.000 A 
ATOM     12  C   UNL     1       3.330   4.881  19.445  0.00  0.00    +0.000 A 
ATOM     13  S   UNL     1       3.332   6.380  18.606  0.00  0.00    +0.000 S 
ATOM     14  H   UNL     1       1.007   8.496  20.309  0.00  0.00    +0.000 HD
ENDROOT
BRANCH   2  15
ATOM     15  C   UNL     1       1.050  10.387  18.668  0.00  0.00    +0.000 C 
ATOM     16  C   UNL     1      -0.434  10.536  18.415  0.00  0.00    +0.000 C 
ATOM     17  C   UNL     1       0.089  10.566  19.821  0.00  0.00    +0.000 C 
ENDBRANCH   2  15
TORSDOF 1
ENDMDL
MODEL 6
REMARK VINA RESULT:      -6.3      3.914      5.740
REMARK  Name = 
REMARK  1 active torsions:
REMARK  status: ('A' for Active; 'I' for Inactive)
REMARK    1  A    between atoms: C_2  and  C_14
REMARK                            x       y       z     vdW  Elec       q    Type
REMARK                         _______ _______ _______ _____ _____    ______ ____
ROOT
ATOM      1  O   UNL     1       1.567   8.763  19.258  0.00  0.00    +0.000 OA
ATOM      2  C   UNL     1       1.699   7.883  20.096  0.00  0.00    +0.000 C 
ATOM      3  N   UNL     1       2.414   6.718  19.985  0.00  0.00    +0.000 N 
ATOM      4  C   UNL     1       3.193   6.343  18.921  0.00  0.00    +0.000 A 
ATOM      5  N   UNL     1       3.640   5.116  18.810  0.00  0.00    +0.000 NA
ATOM      6  C   UNL     1       4.362   4.989  17.634  0.00  0.00    +0.000 A 
ATOM      7  C   UNL     1       4.930   3.799  17.133  0.00  0.00    +0.000 A 
ATOM      8  C   UNL     1       5.626   3.823  15.919  0.00  0.00    +0.000 A 
ATOM      9  C   UNL     1       5.771   5.015  15.226  0.00  0.00    +0.000 A 
ATOM     10  F   UNL     1       6.444   5.017  14.068  0.00  0.00    +0.000 F 
ATOM     11  C   UNL     1       5.230   6.211  15.694  0.00  0.00    +0.000 A 
ATOM     12  C   UNL     1       4.514   6.169  16.900  0.00  0.00    +0.000 A 
ATOM     13  S   UNL     1       3.694   7.437  17.719  0.00  0.00    +0.000 S 
ATOM     14  H   UNL     1       2.296   5.994  20.677  0.00  0.00    +0.000 HD
ENDROOT
BRANCH   2  15
ATOM     15  C   UNL     1       0.970   7.991  21.399  0.00  0.00    +0.000 C 
ATOM     16  C   UNL     1       1.225   9.165  22.320  0.00  0.00    +0.000 C 
ATOM     17  C   UNL     1      -0.080   9.062  21.586  0.00  0.00    +0.000 C 
ENDBRANCH   2  15
TORSDOF 1
ENDMDL
MODEL 7
REMARK VINA RESULT:      -6.3      3.248      6.546
REMARK  Name = 
REMARK  1 active torsions:
REMARK  status: ('A' for Active; 'I' for Inactive)
REMARK    1  A    between atoms: C_2  and  C_14
REMARK                            x       y       z     vdW  Elec       q    Type
REMARK                         _______ _______ _______ _____ _____    ______ ____
ROOT
ATOM      1  O   UNL     1       2.352   3.516  16.956  0.00  0.00    +0.000 OA
ATOM      2  C   UNL     1       2.639   3.073  18.058  0.00  0.00    +0.000 C 
ATOM      3  N   UNL     1       3.691   3.434  18.860  0.00  0.00    +0.000 N 
ATOM      4  C   UNL     1       4.599   4.430  18.608  0.00  0.00    +0.000 A 
ATOM      5  N   UNL     1       5.699   4.537  19.314  0.00  0.00    +0.000 NA
ATOM      6  C   UNL     1       6.457   5.592  18.834  0.00  0.00    +0.000 A 
ATOM      7  C   UNL     1       7.740   5.966  19.288  0.00  0.00    +0.000 A 
ATOM      8  C   UNL     1       8.392   7.053  18.697  0.00  0.00    +0.000 A 
ATOM      9  C   UNL     1       7.770   7.770  17.685  0.00  0.00    +0.000 A 
ATOM     10  F   UNL     1       8.411   8.810  17.135  0.00  0.00    +0.000 F 
ATOM     11  C   UNL     1       6.502   7.434  17.217  0.00  0.00    +0.000 A 
ATOM     12  C   UNL     1       5.868   6.326  17.801  0.00  0.00    +0.000 A 
ATOM     13  S   UNL     1       4.343   5.629  17.430  0.00  0.00    +0.000 S 
ATOM     14  H   UNL     1       3.921   2.869  19.663  0.00  0.00    +0.000 HD
ENDROOT
BRANCH   2  15
ATOM     15  C   UNL     1       1.826   1.958  18.638  0.00  0.00    +0.000 C 
ATOM     16  C   UNL     1       1.316   2.047  20.060  0.00  0.00    +0.000 C 
ATOM     17  C   UNL     1       0.354   2.166  18.914  0.00  0.00    +0.000 C 
ENDBRANCH   2  15
TORSDOF 1
ENDMDL
MODEL 8
REMARK VINA RESULT:      -6.2      3.565      6.288
REMARK  Name = 
REMARK  1 active torsions:
REMARK  status: ('A' for Active; 'I' for Inactive)
REMARK    1  A    between atoms: C_2  and  C_14
REMARK                            x       y       z     vdW  Elec       q    Type
REMARK                         _______ _______ _______ _____ _____    ______ ____
ROOT
ATOM      1  O   UNL     1       2.735   1.804  19.053  0.00  0.00    +0.000 OA
ATOM      2  C   UNL     1       3.226   2.637  19.801  0.00  0.00    +0.000 C 
ATOM      3  N   UNL     1       4.177   3.578  19.501  0.00  0.00    +0.000 N 
ATOM      4  C   UNL     1       4.720   3.818  18.265  0.00  0.00    +0.000 A 
ATOM      5  N   UNL     1       5.786   4.568  18.129  0.00  0.00    +0.000 NA
ATOM      6  C   UNL     1       6.152   4.617  16.793  0.00  0.00    +0.000 A 
ATOM      7  C   UNL     1       7.291   5.260  16.267  0.00  0.00    +0.000 A 
ATOM      8  C   UNL     1       7.538   5.215  14.891  0.00  0.00    +0.000 A 
ATOM      9  C   UNL     1       6.654   4.558  14.049  0.00  0.00    +0.000 A 
ATOM     10  F   UNL     1       6.906   4.530  12.734  0.00  0.00    +0.000 F 
ATOM     11  C   UNL     1       5.514   3.919  14.531  0.00  0.00    +0.000 A 
ATOM     12  C   UNL     1       5.291   3.949  15.916  0.00  0.00    +0.000 A 
ATOM     13  S   UNL     1       4.024   3.232  16.828  0.00  0.00    +0.000 S 
ATOM     14  H   UNL     1       4.628   4.085  20.247  0.00  0.00    +0.000 HD
ENDROOT
BRANCH   2  15
ATOM     15  C   UNL     1       2.834   2.652  21.245  0.00  0.00    +0.000 C 
ATOM     16  C   UNL     1       2.093   3.837  21.823  0.00  0.00    +0.000 C 
ATOM     17  C   UNL     1       1.377   2.532  21.630  0.00  0.00    +0.000 C 
ENDBRANCH   2  15
TORSDOF 1
ENDMDL
MODEL 9
REMARK VINA RESULT:      -6.2      1.553      1.800
REMARK  Name = 
REMARK  1 active torsions:
REMARK  status: ('A' for Active; 'I' for Inactive)
REMARK    1  A    between atoms: C_2  and  C_14
REMARK                            x       y       z     vdW  Elec       q    Type
REMARK                         _______ _______ _______ _____ _____    ______ ____
ROOT
ATOM      1  O   UNL     1       7.959   6.041  18.720  0.00  0.00    +0.000 OA
ATOM      2  C   UNL     1       7.350   6.873  18.065  0.00  0.00    +0.000 C 
ATOM      3  N   UNL     1       6.030   6.848  17.695  0.00  0.00    +0.000 N 
ATOM      4  C   UNL     1       5.104   5.903  18.056  0.00  0.00    +0.000 A 
ATOM      5  N   UNL     1       3.937   5.837  17.462  0.00  0.00    +0.000 NA
ATOM      6  C   UNL     1       3.211   4.778  17.980  0.00  0.00    +0.000 A 
ATOM      7  C   UNL     1       1.944   4.344  17.538  0.00  0.00    +0.000 A 
ATOM      8  C   UNL     1       1.335   3.246  18.154  0.00  0.00    +0.000 A 
ATOM      9  C   UNL     1       1.967   2.602  19.207  0.00  0.00    +0.000 A 
ATOM     10  F   UNL     1       1.365   1.555  19.786  0.00  0.00    +0.000 F 
ATOM     11  C   UNL     1       3.214   3.007  19.676  0.00  0.00    +0.000 A 
ATOM     12  C   UNL     1       3.826   4.094  19.033  0.00  0.00    +0.000 A 
ATOM     13  S   UNL     1       5.361   4.807  19.331  0.00  0.00    +0.000 S 
ATOM     14  H   UNL     1       5.693   7.503  17.006  0.00  0.00    +0.000 HD
ENDROOT
BRANCH   2  15
ATOM     15  C   UNL     1       8.081   8.058  17.514  0.00  0.00    +0.000 C 
ATOM     16  C   UNL     1       7.531   9.453  17.713  0.00  0.00    +0.000 C 
ATOM     17  C   UNL     1       8.762   9.024  18.456  0.00  0.00    +0.000 C 
ENDBRANCH   2  15
TORSDOF 1
ENDMDL
