MODEL 1
REMARK VINA RESULT:      -7.9      0.000      0.000
REMARK  Name = 
REMARK  4 active torsions:
REMARK  status: ('A' for Active; 'I' for Inactive)
REMARK    1  A    between atoms: C_2  and  C_20
REMARK    2  A    between atoms: N_3  and  C_4
REMARK    3  A    between atoms: C_8  and  N_9
REMARK    4  A    between atoms: C_10  and  C_12
REMARK                            x       y       z     vdW  Elec       q    Type
REMARK                         _______ _______ _______ _____ _____    ______ ____
ROOT
ATOM      1  C   UNL     1       7.689   7.210  18.252  0.00  0.00    +0.000 C 
ATOM      2  C   UNL     1       7.718   6.986  16.735  0.00  0.00    +0.000 C 
ATOM      3  C   UNL     1       6.849   5.803  16.311  0.00  0.00    +0.000 C 
ATOM      4  C   UNL     1       7.192   4.540  17.098  0.00  0.00    +0.000 C 
ATOM      5  C   UNL     1       7.108   4.770  18.617  0.00  0.00    +0.000 C 
ATOM      6  C   UNL     1       8.036   5.919  19.008  0.00  0.00    +0.000 C 
ENDROOT
BRANCH   1   9
ATOM      7  O   UNL     1       7.573   9.954  17.493  0.00  0.00    +0.000 OA
ATOM      8  C   UNL     1       8.445   9.573  18.261  0.00  0.00    +0.000 C 
ATOM      9  N   UNL     1       8.623   8.255  18.640  0.00  0.00    +0.000 N 
ATOM     10  H   UNL     1       9.133   8.093  19.501  0.00  0.00    +0.000 HD
BRANCH   8  11
ATOM     11  C   UNL     1       9.365  10.538  18.920  0.00  0.00    +0.000 A 
ATOM     12  C   UNL     1       9.236  10.782  20.286  0.00  0.00    +0.000 A 
ATOM     13  C   UNL     1      10.156  11.630  20.876  0.00  0.00    +0.000 A 
ATOM     14  N   UNL     1      11.157  12.238  20.203  0.00  0.00    +0.000 NA
ATOM     15  C   UNL     1      11.235  12.011  18.876  0.00  0.00    +0.000 A 
ATOM     16  C   UNL     1      10.368  11.183  18.192  0.00  0.00    +0.000 A 
ENDBRANCH   8  11
ENDBRANCH   1   9
BRANCH   5  17
ATOM     17  N   UNL     1       5.750   5.058  19.062  0.00  0.00    +0.000 N 
ATOM     18  C   UNL     1       4.840   4.062  19.332  0.00  0.00    +0.000 C 
ATOM     19  O   UNL     1       5.093   2.866  19.241  0.00  0.00    +0.000 OA
ATOM     20  H   UNL     1       5.559   5.983  19.430  0.00  0.00    +0.000 HD
BRANCH  18  21
ATOM     21  C   UNL     1       3.495   4.506  19.778  0.00  0.00    +0.000 A 
ATOM     22  C   UNL     1       2.519   3.605  20.227  0.00  0.00    +0.000 A 
ATOM     23  C   UNL     1       1.281   4.081  20.664  0.00  0.00    +0.000 A 
ATOM     24  C   UNL     1       1.022   5.452  20.661  0.00  0.00    +0.000 A 
ATOM     25  C   UNL     1       2.001   6.346  20.227  0.00  0.00    +0.000 A 
ATOM     26 CL   UNL     1       1.682   8.036  20.237  0.00  0.00    +0.000 Cl
ATOM     27  C   UNL     1       3.237   5.881  19.788  0.00  0.00    +0.000 A 
ENDBRANCH  18  21
ENDBRANCH   5  17
TORSDOF 4
ENDMDL
MODEL 2
REMARK VINA RESULT:      -7.7      5.128      7.573
REMARK  Name = 
REMARK  4 active torsions:
REMARK  status: ('A' for Active; 'I' for Inactive)
REMARK    1  A    between atoms: C_2  and  C_20
REMARK    2  A    between atoms: N_3  and  C_4
REMARK    3  A    between atoms: C_8  and  N_9
REMARK    4  A    between atoms: C_10  and  C_12
REMARK                            x       y       z     vdW  Elec       q    Type
REMARK                         _______ _______ _______ _____ _____    ______ ____
ROOT
ATOM      1  C   UNL     1       2.023   5.301  20.716  0.00  0.00    +0.000 C 
ATOM      2  C   UNL     1       2.128   4.240  21.819  0.00  0.00    +0.000 C 
ATOM      3  C   UNL     1       2.665   2.911  21.290  0.00  0.00    +0.000 C 
ATOM      4  C   UNL     1       1.872   2.424  20.079  0.00  0.00    +0.000 C 
ATOM      5  C   UNL     1       1.821   3.481  18.963  0.00  0.00    +0.000 C 
ATOM      6  C   UNL     1       1.222   4.774  19.516  0.00  0.00    +0.000 C 
ENDROOT
BRANCH   1   9
ATOM      7  O   UNL     1       2.263   7.920  19.621  0.00  0.00    +0.000 OA
ATOM      8  C   UNL     1       1.526   7.728  20.577  0.00  0.00    +0.000 C 
ATOM      9  N   UNL     1       1.388   6.509  21.218  0.00  0.00    +0.000 N 
ATOM     10  H   UNL     1       0.542   6.372  21.758  0.00  0.00    +0.000 HD
BRANCH   8  11
ATOM     11  C   UNL     1       0.641   8.805  21.096  0.00  0.00    +0.000 A 
ATOM     12  C   UNL     1       0.317   8.831  22.451  0.00  0.00    +0.000 A 
ATOM     13  C   UNL     1      -0.449   9.889  22.908  0.00  0.00    +0.000 A 
ATOM     14  N   UNL     1      -0.905  10.883  22.115  0.00  0.00    +0.000 NA
ATOM     15  C   UNL     1      -0.605  10.812  20.802  0.00  0.00    +0.000 A 
ATOM     16  C   UNL     1       0.151   9.799  20.247  0.00  0.00    +0.000 A 
ENDBRANCH   8  11
ENDBRANCH   1   9
BRANCH   5  17
ATOM     17  N   UNL     1       3.134   3.751  18.391  0.00  0.00    +0.000 N 
ATOM     18  C   UNL     1       3.375   3.672  17.038  0.00  0.00    +0.000 C 
ATOM     19  O   UNL     1       2.516   3.392  16.210  0.00  0.00    +0.000 OA
ATOM     20  H   UNL     1       3.804   4.256  18.960  0.00  0.00    +0.000 HD
BRANCH  18  21
ATOM     21  C   UNL     1       4.761   3.975  16.600  0.00  0.00    +0.000 A 
ATOM     22  C   UNL     1       5.146   3.937  15.252  0.00  0.00    +0.000 A 
ATOM     23  C   UNL     1       6.456   4.262  14.894  0.00  0.00    +0.000 A 
ATOM     24  C   UNL     1       7.375   4.630  15.876  0.00  0.00    +0.000 A 
ATOM     25  C   UNL     1       6.985   4.680  17.214  0.00  0.00    +0.000 A 
ATOM     26 CL   UNL     1       8.117   5.149  18.421  0.00  0.00    +0.000 Cl
ATOM     27  C   UNL     1       5.682   4.358  17.581  0.00  0.00    +0.000 A 
ENDBRANCH  18  21
ENDBRANCH   5  17
TORSDOF 4
ENDMDL
MODEL 3
REMARK VINA RESULT:      -7.7      5.219      7.555
REMARK  Name = 
REMARK  4 active torsions:
REMARK  status: ('A' for Active; 'I' for Inactive)
REMARK    1  A    between atoms: C_2  and  C_20
REMARK    2  A    between atoms: N_3  and  C_4
REMARK    3  A    between atoms: C_8  and  N_9
REMARK    4  A    between atoms: C_10  and  C_12
REMARK                            x       y       z     vdW  Elec       q    Type
REMARK                         _______ _______ _______ _____ _____    ______ ____
ROOT
ATOM      1  C   UNL     1       2.169   5.081  20.646  0.00  0.00    +0.000 C 
ATOM      2  C   UNL     1       2.222   4.053  21.784  0.00  0.00    +0.000 C 
ATOM      3  C   UNL     1       2.660   2.674  21.293  0.00  0.00    +0.000 C 
ATOM      4  C   UNL     1       1.815   2.201  20.112  0.00  0.00    +0.000 C 
ATOM      5  C   UNL     1       1.815   3.221  18.961  0.00  0.00    +0.000 C 
ATOM      6  C   UNL     1       1.313   4.569  19.478  0.00  0.00    +0.000 C 
ENDROOT
BRANCH   1   9
ATOM      7  O   UNL     1       2.485   7.625  19.404  0.00  0.00    +0.000 OA
ATOM      8  C   UNL     1       1.792   7.521  20.405  0.00  0.00    +0.000 C 
ATOM      9  N   UNL     1       1.626   6.346  21.115  0.00  0.00    +0.000 N 
ATOM     10  H   UNL     1       0.804   6.282  21.704  0.00  0.00    +0.000 HD
BRANCH   8  11
ATOM     11  C   UNL     1       0.992   8.670  20.911  0.00  0.00    +0.000 A 
ATOM     12  C   UNL     1       0.462   9.585  20.005  0.00  0.00    +0.000 A 
ATOM     13  C   UNL     1      -0.336  10.598  20.508  0.00  0.00    +0.000 A 
ATOM     14  N   UNL     1      -0.616  10.751  21.821  0.00  0.00    +0.000 NA
ATOM     15  C   UNL     1      -0.059   9.870  22.677  0.00  0.00    +0.000 A 
ATOM     16  C   UNL     1       0.750   8.826  22.277  0.00  0.00    +0.000 A 
ENDBRANCH   8  11
ENDBRANCH   1   9
BRANCH   5  17
ATOM     17  N   UNL     1       3.133   3.382  18.360  0.00  0.00    +0.000 N 
ATOM     18  C   UNL     1       3.441   4.444  17.540  0.00  0.00    +0.000 C 
ATOM     19  O   UNL     1       2.652   5.341  17.264  0.00  0.00    +0.000 OA
ATOM     20  H   UNL     1       3.903   2.856  18.759  0.00  0.00    +0.000 HD
BRANCH  18  21
ATOM     21  C   UNL     1       4.823   4.477  17.001  0.00  0.00    +0.000 A 
ATOM     22  C   UNL     1       5.943   4.686  17.820  0.00  0.00    +0.000 A 
ATOM     23  C   UNL     1       7.223   4.675  17.263  0.00  0.00    +0.000 A 
ATOM     24  C   UNL     1       7.387   4.449  15.896  0.00  0.00    +0.000 A 
ATOM     25  C   UNL     1       6.272   4.228  15.088  0.00  0.00    +0.000 A 
ATOM     26 CL   UNL     1       6.478   3.936  13.406  0.00  0.00    +0.000 Cl
ATOM     27  C   UNL     1       4.992   4.237  15.633  0.00  0.00    +0.000 A 
ENDBRANCH  18  21
ENDBRANCH   5  17
TORSDOF 4
ENDMDL
MODEL 4
REMARK VINA RESULT:      -7.5      1.236      1.816
REMARK  Name = 
REMARK  4 active torsions:
REMARK  status: ('A' for Active; 'I' for Inactive)
REMARK    1  A    between atoms: C_2  and  C_20
REMARK    2  A    between atoms: N_3  and  C_4
REMARK    3  A    between atoms: C_8  and  N_9
REMARK    4  A    between atoms: C_10  and  C_12
REMARK                            x       y       z     vdW  Elec       q    Type
REMARK                         _______ _______ _______ _____ _____    ______ ____
ROOT
ATOM      1  C   UNL     1       7.804   7.243  18.373  0.00  0.00    +0.000 C 
ATOM      2  C   UNL     1       7.676   7.137  16.848  0.00  0.00    +0.000 C 
ATOM      3  C   UNL     1       6.806   5.955  16.423  0.00  0.00    +0.000 C 
ATOM      4  C   UNL     1       7.275   4.651  17.066  0.00  0.00    +0.000 C 
ATOM      5  C   UNL     1       7.347   4.759  18.598  0.00  0.00    +0.000 C 
ATOM      6  C   UNL     1       8.274   5.913  18.982  0.00  0.00    +0.000 C 
ENDROOT
BRANCH   1   9
ATOM      7  O   UNL     1       7.674   9.980  17.593  0.00  0.00    +0.000 OA
ATOM      8  C   UNL     1       8.554   9.607  18.355  0.00  0.00    +0.000 C 
ATOM      9  N   UNL     1       8.739   8.292  18.744  0.00  0.00    +0.000 N 
ATOM     10  H   UNL     1       9.257   8.139  19.601  0.00  0.00    +0.000 HD
BRANCH   8  11
ATOM     11  C   UNL     1       9.478  10.580  18.999  0.00  0.00    +0.000 A 
ATOM     12  C   UNL     1      10.421  11.246  18.219  0.00  0.00    +0.000 A 
ATOM     13  C   UNL     1      11.213  12.195  18.841  0.00  0.00    +0.000 A 
ATOM     14  N   UNL     1      11.128  12.500  20.155  0.00  0.00    +0.000 NA
ATOM     15  C   UNL     1      10.230  11.814  20.891  0.00  0.00    +0.000 A 
ATOM     16  C   UNL     1       9.394  10.847  20.367  0.00  0.00    +0.000 A 
ENDBRANCH   8  11
ENDBRANCH   1   9
BRANCH   5  17
ATOM     17  N   UNL     1       6.036   4.955  19.205  0.00  0.00    +0.000 N 
ATOM     18  C   UNL     1       4.949   4.183  18.867  0.00  0.00    +0.000 C 
ATOM     19  O   UNL     1       4.992   3.267  18.054  0.00  0.00    +0.000 OA
ATOM     20  H   UNL     1       5.989   5.483  20.069  0.00  0.00    +0.000 HD
BRANCH  18  21
ATOM     21  C   UNL     1       3.679   4.497  19.569  0.00  0.00    +0.000 A 
ATOM     22  C   UNL     1       3.054   5.748  19.463  0.00  0.00    +0.000 A 
ATOM     23  C   UNL     1       1.843   5.978  20.120  0.00  0.00    +0.000 A 
ATOM     24  C   UNL     1       1.255   4.962  20.872  0.00  0.00    +0.000 A 
ATOM     25  C   UNL     1       1.872   3.714  20.963  0.00  0.00    +0.000 A 
ATOM     26 CL   UNL     1       1.137   2.459  21.880  0.00  0.00    +0.000 Cl
ATOM     27  C   UNL     1       3.079   3.475  20.313  0.00  0.00    +0.000 A 
ENDBRANCH  18  21
ENDBRANCH   5  17
TORSDOF 4
ENDMDL
MODEL 5
REMARK VINA RESULT:      -7.4      5.161      7.646
REMARK  Name = 
REMARK  4 active torsions:
REMARK  status: ('A' for Active; 'I' for Inactive)
REMARK    1  A    between atoms: C_2  and  C_20
REMARK    2  A    between atoms: N_3  and  C_4
REMARK    3  A    between atoms: C_8  and  N_9
REMARK    4  A    between atoms: C_10  and  C_12
REMARK                            x       y       z     vdW  Elec       q    Type
REMARK                         _______ _______ _______ _____ _____    ______ ____
ROOT
ATOM      1  C   UNL     1       2.103   5.635  20.401  0.00  0.00    +0.000 C 
ATOM      2  C   UNL     1       2.381   4.512  21.410  0.00  0.00    +0.000 C 
ATOM      3  C   UNL     1       2.910   3.249  20.733  0.00  0.00    +0.000 C 
ATOM      4  C   UNL     1       2.003   2.800  19.589  0.00  0.00    +0.000 C 
ATOM      5  C   UNL     1       1.778   3.922  18.561  0.00  0.00    +0.000 C 
ATOM      6  C   UNL     1       1.192   5.145  19.266  0.00  0.00    +0.000 C 
ENDROOT
BRANCH   1   9
ATOM      7  O   UNL     1       2.049   8.315  19.437  0.00  0.00    +0.000 OA
ATOM      8  C   UNL     1       1.463   8.030  20.472  0.00  0.00    +0.000 C 
ATOM      9  N   UNL     1       1.481   6.775  21.053  0.00  0.00    +0.000 N 
ATOM     10  H   UNL     1       0.726   6.559  21.694  0.00  0.00    +0.000 HD
BRANCH   8  11
ATOM     11  C   UNL     1       0.601   9.024  21.167  0.00  0.00    +0.000 A 
ATOM     12  C   UNL     1       0.342   8.871  22.527  0.00  0.00    +0.000 A 
ATOM     13  C   UNL     1      -0.403   9.855  23.153  0.00  0.00    +0.000 A 
ATOM     14  N   UNL     1      -0.898  10.940  22.518  0.00  0.00    +0.000 NA
ATOM     15  C   UNL     1      -0.661  11.042  21.195  0.00  0.00    +0.000 A 
ATOM     16  C   UNL     1       0.070  10.116  20.478  0.00  0.00    +0.000 A 
ENDBRANCH   8  11
ENDBRANCH   1   9
BRANCH   5  17
ATOM     17  N   UNL     1       3.003   4.293  17.864  0.00  0.00    +0.000 N 
ATOM     18  C   UNL     1       3.850   3.354  17.320  0.00  0.00    +0.000 C 
ATOM     19  O   UNL     1       3.642   2.147  17.358  0.00  0.00    +0.000 OA
ATOM     20  H   UNL     1       3.096   5.251  17.547  0.00  0.00    +0.000 HD
BRANCH  18  21
ATOM     21  C   UNL     1       5.060   3.880  16.639  0.00  0.00    +0.000 A 
ATOM     22  C   UNL     1       6.091   4.527  17.336  0.00  0.00    +0.000 A 
ATOM     23  C   UNL     1       7.221   4.974  16.648  0.00  0.00    +0.000 A 
ATOM     24  C   UNL     1       7.326   4.769  15.273  0.00  0.00    +0.000 A 
ATOM     25  C   UNL     1       6.305   4.112  14.586  0.00  0.00    +0.000 A 
ATOM     26 CL   UNL     1       6.444   3.848  12.892  0.00  0.00    +0.000 Cl
ATOM     27  C   UNL     1       5.175   3.663  15.262  0.00  0.00    +0.000 A 
ENDBRANCH  18  21
ENDBRANCH   5  17
TORSDOF 4
ENDMDL
MODEL 6
REMARK VINA RESULT:      -7.3      7.435     10.716
REMARK  Name = 
REMARK  4 active torsions:
REMARK  status: ('A' for Active; 'I' for Inactive)
REMARK    1  A    between atoms: C_2  and  C_20
REMARK    2  A    between atoms: N_3  and  C_4
REMARK    3  A    between atoms: C_8  and  N_9
REMARK    4  A    between atoms: C_10  and  C_12
REMARK                            x       y       z     vdW  Elec       q    Type
REMARK                         _______ _______ _______ _____ _____    ______ ____
ROOT
ATOM      1  C   UNL     1      -1.183  11.714  18.800  0.00  0.00    +0.000 C 
ATOM      2  C   UNL     1      -0.275  12.861  18.339  0.00  0.00    +0.000 C 
ATOM      3  C   UNL     1       1.180  12.645  18.753  0.00  0.00    +0.000 C 
ATOM      4  C   UNL     1       1.305  12.362  20.249  0.00  0.00    +0.000 C 
ATOM      5  C   UNL     1       0.427  11.176  20.683  0.00  0.00    +0.000 C 
ATOM      6  C   UNL     1      -1.028  11.457  20.307  0.00  0.00    +0.000 C 
ENDROOT
BRANCH   1   9
ATOM      7  O   UNL     1      -3.118   9.892  17.773  0.00  0.00    +0.000 OA
ATOM      8  C   UNL     1      -3.451  11.032  18.062  0.00  0.00    +0.000 C 
ATOM      9  N   UNL     1      -2.577  12.006  18.509  0.00  0.00    +0.000 N 
ATOM     10  H   UNL     1      -2.982  12.781  19.021  0.00  0.00    +0.000 HD
BRANCH   8  11
ATOM     11  C   UNL     1      -4.879  11.450  18.023  0.00  0.00    +0.000 A 
ATOM     12  C   UNL     1      -5.759  10.967  18.989  0.00  0.00    +0.000 A 
ATOM     13  C   UNL     1      -7.061  11.436  18.962  0.00  0.00    +0.000 A 
ATOM     14  N   UNL     1      -7.522  12.320  18.049  0.00  0.00    +0.000 NA
ATOM     15  C   UNL     1      -6.656  12.741  17.106  0.00  0.00    +0.000 A 
ATOM     16  C   UNL     1      -5.338  12.334  17.045  0.00  0.00    +0.000 A 
ENDBRANCH   8  11
ENDBRANCH   1   9
BRANCH   5  17
ATOM     17  N   UNL     1       0.857   9.917  20.088  0.00  0.00    +0.000 N 
ATOM     18  C   UNL     1       1.329   8.870  20.847  0.00  0.00    +0.000 C 
ATOM     19  O   UNL     1       1.410   8.899  22.070  0.00  0.00    +0.000 OA
ATOM     20  H   UNL     1       0.557   9.715  19.141  0.00  0.00    +0.000 HD
BRANCH  18  21
ATOM     21  C   UNL     1       1.729   7.650  20.104  0.00  0.00    +0.000 A 
ATOM     22  C   UNL     1       2.301   7.705  18.824  0.00  0.00    +0.000 A 
ATOM     23  C   UNL     1       2.688   6.526  18.184  0.00  0.00    +0.000 A 
ATOM     24  C   UNL     1       2.512   5.298  18.821  0.00  0.00    +0.000 A 
ATOM     25  C   UNL     1       1.956   5.248  20.099  0.00  0.00    +0.000 A 
ATOM     26 CL   UNL     1       1.753   3.733  20.886  0.00  0.00    +0.000 Cl
ATOM     27  C   UNL     1       1.567   6.417  20.745  0.00  0.00    +0.000 A 
ENDBRANCH  18  21
ENDBRANCH   5  17
TORSDOF 4
ENDMDL
MODEL 7
REMARK VINA RESULT:      -7.2      6.418      9.734
REMARK  Name = 
REMARK  4 active torsions:
REMARK  status: ('A' for Active; 'I' for Inactive)
REMARK    1  A    between atoms: C_2  and  C_20
REMARK    2  A    between atoms: N_3  and  C_4
REMARK    3  A    between atoms: C_8  and  N_9
REMARK    4  A    between atoms: C_10  and  C_12
REMARK                            x       y       z     vdW  Elec       q    Type
REMARK                         _______ _______ _______ _____ _____    ______ ____
ROOT
ATOM      1  C   UNL     1       0.601  10.253  19.468  0.00  0.00    +0.000 C 
ATOM      2  C   UNL     1      -0.900  10.096  19.198  0.00  0.00    +0.000 C 
ATOM      3  C   UNL     1      -1.660  11.408  19.387  0.00  0.00    +0.000 C 
ATOM      4  C   UNL     1      -1.371  12.035  20.749  0.00  0.00    +0.000 C 
ATOM      5  C   UNL     1       0.137  12.232  20.982  0.00  0.00    +0.000 C 
ATOM      6  C   UNL     1       0.851  10.889  20.844  0.00  0.00    +0.000 C 
ENDROOT
BRANCH   1   9
ATOM      7  O   UNL     1       2.071   9.212  17.261  0.00  0.00    +0.000 OA
ATOM      8  C   UNL     1       2.013   8.577  18.304  0.00  0.00    +0.000 C 
ATOM      9  N   UNL     1       1.276   8.967  19.409  0.00  0.00    +0.000 N 
ATOM     10  H   UNL     1       1.548   8.569  20.300  0.00  0.00    +0.000 HD
BRANCH   8  11
ATOM     11  C   UNL     1       2.811   7.336  18.496  0.00  0.00    +0.000 A 
ATOM     12  C   UNL     1       2.546   6.516  19.590  0.00  0.00    +0.000 A 
ATOM     13  C   UNL     1       3.260   5.335  19.694  0.00  0.00    +0.000 A 
ATOM     14  N   UNL     1       4.199   4.944  18.805  0.00  0.00    +0.000 NA
ATOM     15  C   UNL     1       4.458   5.776  17.775  0.00  0.00    +0.000 A 
ATOM     16  C   UNL     1       3.803   6.976  17.582  0.00  0.00    +0.000 A 
ENDBRANCH   8  11
ENDBRANCH   1   9
BRANCH   5  17
ATOM     17  N   UNL     1       0.721  13.199  20.060  0.00  0.00    +0.000 N 
ATOM     18  C   UNL     1       1.852  13.919  20.372  0.00  0.00    +0.000 C 
ATOM     19  O   UNL     1       2.466  13.797  21.425  0.00  0.00    +0.000 OA
ATOM     20  H   UNL     1       0.449  13.148  19.085  0.00  0.00    +0.000 HD
BRANCH  18  21
ATOM     21  C   UNL     1       2.332  14.866  19.335  0.00  0.00    +0.000 A 
ATOM     22  C   UNL     1       3.483  14.622  18.571  0.00  0.00    +0.000 A 
ATOM     23  C   UNL     1       3.871  15.533  17.587  0.00  0.00    +0.000 A 
ATOM     24  C   UNL     1       3.110  16.679  17.360  0.00  0.00    +0.000 A 
ATOM     25  C   UNL     1       1.958  16.912  18.112  0.00  0.00    +0.000 A 
ATOM     26 CL   UNL     1       1.015  18.320  17.821  0.00  0.00    +0.000 Cl
ATOM     27  C   UNL     1       1.564  16.010  19.096  0.00  0.00    +0.000 A 
ENDBRANCH  18  21
ENDBRANCH   5  17
TORSDOF 4
ENDMDL
MODEL 8
REMARK VINA RESULT:      -7.2      5.708      8.660
REMARK  Name = 
REMARK  4 active torsions:
REMARK  status: ('A' for Active; 'I' for Inactive)
REMARK    1  A    between atoms: C_2  and  C_20
REMARK    2  A    between atoms: N_3  and  C_4
REMARK    3  A    between atoms: C_8  and  N_9
REMARK    4  A    between atoms: C_10  and  C_12
REMARK                            x       y       z     vdW  Elec       q    Type
REMARK                         _______ _______ _______ _____ _____    ______ ____
ROOT
ATOM      1  C   UNL     1       1.033   8.458  20.411  0.00  0.00    +0.000 C 
ATOM      2  C   UNL     1       0.647   8.216  21.876  0.00  0.00    +0.000 C 
ATOM      3  C   UNL     1      -0.379   9.231  22.376  0.00  0.00    +0.000 C 
ATOM      4  C   UNL     1       0.074  10.666  22.117  0.00  0.00    +0.000 C 
ATOM      5  C   UNL     1       0.407  10.905  20.634  0.00  0.00    +0.000 C 
ATOM      6  C   UNL     1       1.480   9.911  20.190  0.00  0.00    +0.000 C 
ENDROOT
BRANCH   1   9
ATOM      7  O   UNL     1       1.791   7.835  17.736  0.00  0.00    +0.000 OA
ATOM      8  C   UNL     1       2.428   7.371  18.671  0.00  0.00    +0.000 C 
ATOM      9  N   UNL     1       2.104   7.564  20.002  0.00  0.00    +0.000 N 
ATOM     10  H   UNL     1       2.848   7.429  20.676  0.00  0.00    +0.000 HD
BRANCH   8  11
ATOM     11  C   UNL     1       3.679   6.599  18.442  0.00  0.00    +0.000 A 
ATOM     12  C   UNL     1       4.446   6.861  17.309  0.00  0.00    +0.000 A 
ATOM     13  C   UNL     1       5.639   6.174  17.169  0.00  0.00    +0.000 A 
ATOM     14  N   UNL     1       6.090   5.263  18.060  0.00  0.00    +0.000 NA
ATOM     15  C   UNL     1       5.309   5.006  19.129  0.00  0.00    +0.000 A 
ATOM     16  C   UNL     1       4.102   5.635  19.360  0.00  0.00    +0.000 A 
ENDBRANCH   8  11
ENDBRANCH   1   9
BRANCH   5  17
ATOM     17  N   UNL     1      -0.764  10.785  19.774  0.00  0.00    +0.000 N 
ATOM     18  C   UNL     1      -1.129  11.775  18.891  0.00  0.00    +0.000 C 
ATOM     19  O   UNL     1      -0.501  12.817  18.740  0.00  0.00    +0.000 OA
ATOM     20  H   UNL     1      -1.156   9.861  19.634  0.00  0.00    +0.000 HD
BRANCH  18  21
ATOM     21  C   UNL     1      -2.344  11.514  18.079  0.00  0.00    +0.000 A 
ATOM     22  C   UNL     1      -3.633  11.810  18.543  0.00  0.00    +0.000 A 
ATOM     23  C   UNL     1      -4.739  11.572  17.724  0.00  0.00    +0.000 A 
ATOM     24  C   UNL     1      -4.557  11.049  16.444  0.00  0.00    +0.000 A 
ATOM     25  C   UNL     1      -3.272  10.769  15.981  0.00  0.00    +0.000 A 
ATOM     26 CL   UNL     1      -3.051  10.137  14.397  0.00  0.00    +0.000 Cl
ATOM     27  C   UNL     1      -2.164  11.002  16.790  0.00  0.00    +0.000 A 
ENDBRANCH  18  21
ENDBRANCH   5  17
TORSDOF 4
ENDMDL
MODEL 9
REMARK VINA RESULT:      -7.1      5.771      8.667
REMARK  Name = 
REMARK  4 active torsions:
REMARK  status: ('A' for Active; 'I' for Inactive)
REMARK    1  A    between atoms: C_2  and  C_20
REMARK    2  A    between atoms: N_3  and  C_4
REMARK    3  A    between atoms: C_8  and  N_9
REMARK    4  A    between atoms: C_10  and  C_12
REMARK                            x       y       z     vdW  Elec       q    Type
REMARK                         _______ _______ _______ _____ _____    ______ ____
ROOT
ATOM      1  C   UNL     1       1.827   8.661  18.630  0.00  0.00    +0.000 C 
ATOM      2  C   UNL     1       1.691   8.378  20.132  0.00  0.00    +0.000 C 
ATOM      3  C   UNL     1       0.692   9.316  20.807  0.00  0.00    +0.000 C 
ATOM      4  C   UNL     1       1.007  10.781  20.511  0.00  0.00    +0.000 C 
ATOM      5  C   UNL     1       1.088  11.058  19.000  0.00  0.00    +0.000 C 
ATOM      6  C   UNL     1       2.140  10.143  18.374  0.00  0.00    +0.000 C 
ENDROOT
BRANCH   1   9
ATOM      7  O   UNL     1       2.128   5.840  18.897  0.00  0.00    +0.000 OA
ATOM      8  C   UNL     1       2.900   6.469  18.187  0.00  0.00    +0.000 C 
ATOM      9  N   UNL     1       2.875   7.844  18.041  0.00  0.00    +0.000 N 
ATOM     10  H   UNL     1       3.315   8.222  17.210  0.00  0.00    +0.000 HD
BRANCH   8  11
ATOM     11  C   UNL     1       3.910   5.773  17.345  0.00  0.00    +0.000 A 
ATOM     12  C   UNL     1       3.980   4.382  17.369  0.00  0.00    +0.000 A 
ATOM     13  C   UNL     1       4.883   3.770  16.518  0.00  0.00    +0.000 A 
ATOM     14  N   UNL     1       5.701   4.444  15.680  0.00  0.00    +0.000 NA
ATOM     15  C   UNL     1       5.636   5.791  15.705  0.00  0.00    +0.000 A 
ATOM     16  C   UNL     1       4.771   6.497  16.516  0.00  0.00    +0.000 A 
ENDBRANCH   8  11
ENDBRANCH   1   9
BRANCH   5  17
ATOM     17  N   UNL     1      -0.192  10.870  18.330  0.00  0.00    +0.000 N 
ATOM     18  C   UNL     1      -1.200  11.805  18.399  0.00  0.00    +0.000 C 
ATOM     19  O   UNL     1      -1.103  12.866  19.005  0.00  0.00    +0.000 OA
ATOM     20  H   UNL     1      -0.243  10.176  17.593  0.00  0.00    +0.000 HD
BRANCH  18  21
ATOM     21  C   UNL     1      -2.448  11.478  17.665  0.00  0.00    +0.000 A 
ATOM     22  C   UNL     1      -3.720  11.699  18.213  0.00  0.00    +0.000 A 
ATOM     23  C   UNL     1      -4.861  11.403  17.464  0.00  0.00    +0.000 A 
ATOM     24  C   UNL     1      -4.733  10.895  16.172  0.00  0.00    +0.000 A 
ATOM     25  C   UNL     1      -3.466  10.690  15.625  0.00  0.00    +0.000 A 
ATOM     26 CL   UNL     1      -3.313  10.077  14.026  0.00  0.00    +0.000 Cl
ATOM     27  C   UNL     1      -2.324  10.982  16.363  0.00  0.00    +0.000 A 
ENDBRANCH  18  21
ENDBRANCH   5  17
TORSDOF 4
ENDMDL
