MODEL 1
REMARK VINA RESULT:      -8.4      0.000      0.000
REMARK  Name = 
REMARK  7 active torsions:
REMARK  status: ('A' for Active; 'I' for Inactive)
REMARK    1  A    between atoms: C_1  and  C_2
REMARK    2  A    between atoms: C_5  and  N_6
REMARK    3  A    between atoms: N_6  and  S_7
REMARK    4  A    between atoms: S_7  and  C_10
REMARK    5  A    between atoms: C_13  and  C_14
REMARK    6  A    between atoms: N_16  and  C_17
REMARK    7  A    between atoms: C_17  and  C_18
REMARK                            x       y       z     vdW  Elec       q    Type
REMARK                         _______ _______ _______ _____ _____    ______ ____
ROOT
ATOM      1  C   UNL     1       1.938   8.469  18.885  0.00  0.00    +0.000 A 
ATOM      2  C   UNL     1       2.069   7.418  19.798  0.00  0.00    +0.000 A 
ATOM      3  C   UNL     1       2.963   6.371  19.531  0.00  0.00    +0.000 A 
ATOM      4  C   UNL     1       3.724   6.375  18.352  0.00  0.00    +0.000 A 
ATOM      5  C   UNL     1       3.554   7.417  17.429  0.00  0.00    +0.000 A 
ATOM      6  C   UNL     1       2.662   8.462  17.690  0.00  0.00    +0.000 A 
ENDROOT
BRANCH   4   7
ATOM      7  C   UNL     1       4.716   5.303  18.023  0.00  0.00    +0.000 C 
ATOM      8  O   UNL     1       4.540   4.159  18.423  0.00  0.00    +0.000 OA
ATOM      9  N   UNL     1       5.772   5.665  17.220  0.00  0.00    +0.000 N 
ATOM     10  H   UNL     1       5.891   6.615  16.902  0.00  0.00    +0.000 HD
BRANCH   9  11
ATOM     11  C   UNL     1       6.767   4.709  16.772  0.00  0.00    +0.000 C 
BRANCH  11  12
ATOM     12  C   UNL     1       6.828   4.593  15.267  0.00  0.00    +0.000 A 
ATOM     13  C   UNL     1       5.947   3.752  14.589  0.00  0.00    +0.000 A 
ATOM     14  C   UNL     1       6.015   3.683  13.199  0.00  0.00    +0.000 A 
ATOM     15  C   UNL     1       6.962   4.444  12.526  0.00  0.00    +0.000 A 
ATOM     16  C   UNL     1       7.810   5.242  13.274  0.00  0.00    +0.000 A 
ATOM     17  N   UNL     1       7.770   5.332  14.622  0.00  0.00    +0.000 NA
ENDBRANCH  11  12
ENDBRANCH   9  11
ENDBRANCH   4   7
BRANCH   1  18
ATOM     18  S   UNL     1       0.777   9.789  19.191  0.00  0.00    +0.000 S 
ATOM     19  O   UNL     1       1.541  11.016  19.298  0.00  0.00    +0.000 OA
ATOM     20  O   UNL     1      -0.116   9.372  20.250  0.00  0.00    +0.000 OA
BRANCH  18  21
ATOM     21  N   UNL     1      -0.067   9.894  17.752  0.00  0.00    +0.000 N 
ATOM     22  H   UNL     1       0.456   9.754  16.890  0.00  0.00    +0.000 HD
BRANCH  21  27
ATOM     23  C   UNL     1      -5.479  11.715  17.488  0.00  0.00    +0.000 C 
ATOM     24  C   UNL     1      -4.054  11.253  17.576  0.00  0.00    +0.000 A 
ATOM     25  C   UNL     1      -3.180  11.762  18.545  0.00  0.00    +0.000 A 
ATOM     26  C   UNL     1      -1.857  11.311  18.615  0.00  0.00    +0.000 A 
ATOM     27  C   UNL     1      -1.406  10.346  17.718  0.00  0.00    +0.000 A 
ATOM     28  C   UNL     1      -2.260   9.852  16.733  0.00  0.00    +0.000 A 
ATOM     29  C   UNL     1      -3.579  10.295  16.670  0.00  0.00    +0.000 A 
ENDBRANCH  21  27
ENDBRANCH  18  21
ENDBRANCH   1  18
TORSDOF 6
ENDMDL
MODEL 2
REMARK VINA RESULT:      -8.4      2.663      9.182
REMARK  Name = 
REMARK  7 active torsions:
REMARK  status: ('A' for Active; 'I' for Inactive)
REMARK    1  A    between atoms: C_1  and  C_2
REMARK    2  A    between atoms: C_5  and  N_6
REMARK    3  A    between atoms: N_6  and  S_7
REMARK    4  A    between atoms: S_7  and  C_10
REMARK    5  A    between atoms: C_13  and  C_14
REMARK    6  A    between atoms: N_16  and  C_17
REMARK    7  A    between atoms: C_17  and  C_18
REMARK                            x       y       z     vdW  Elec       q    Type
REMARK                         _______ _______ _______ _____ _____    ______ ____
ROOT
ATOM      1  C   UNL     1       3.365   4.640  19.047  0.00  0.00    +0.000 A 
ATOM      2  C   UNL     1       3.181   5.667  18.116  0.00  0.00    +0.000 A 
ATOM      3  C   UNL     1       2.542   6.853  18.505  0.00  0.00    +0.000 A 
ATOM      4  C   UNL     1       2.086   7.011  19.823  0.00  0.00    +0.000 A 
ATOM      5  C   UNL     1       2.246   5.958  20.735  0.00  0.00    +0.000 A 
ATOM      6  C   UNL     1       2.880   4.772  20.351  0.00  0.00    +0.000 A 
ENDROOT
BRANCH   4   7
ATOM      7  C   UNL     1       1.423   8.263  20.307  0.00  0.00    +0.000 C 
ATOM      8  O   UNL     1       1.183   8.410  21.499  0.00  0.00    +0.000 OA
ATOM      9  N   UNL     1       1.164   9.228  19.363  0.00  0.00    +0.000 N 
ATOM     10  H   UNL     1       1.374   9.081  18.387  0.00  0.00    +0.000 HD
BRANCH   9  11
ATOM     11  C   UNL     1       0.586  10.513  19.709  0.00  0.00    +0.000 C 
BRANCH  11  12
ATOM     12  C   UNL     1      -0.738  10.761  19.022  0.00  0.00    +0.000 A 
ATOM     13  C   UNL     1      -1.070  10.064  17.862  0.00  0.00    +0.000 A 
ATOM     14  C   UNL     1      -2.306  10.300  17.265  0.00  0.00    +0.000 A 
ATOM     15  C   UNL     1      -3.171  11.227  17.832  0.00  0.00    +0.000 A 
ATOM     16  C   UNL     1      -2.759  11.888  18.977  0.00  0.00    +0.000 A 
ATOM     17  N   UNL     1      -1.567  11.682  19.581  0.00  0.00    +0.000 NA
ENDBRANCH  11  12
ENDBRANCH   9  11
ENDBRANCH   4   7
BRANCH   1  18
ATOM     18  S   UNL     1       4.142   3.110  18.560  0.00  0.00    +0.000 S 
ATOM     19  O   UNL     1       3.152   2.337  17.837  0.00  0.00    +0.000 OA
ATOM     20  O   UNL     1       4.825   2.560  19.710  0.00  0.00    +0.000 OA
BRANCH  18  21
ATOM     21  N   UNL     1       5.265   3.601  17.421  0.00  0.00    +0.000 N 
ATOM     22  H   UNL     1       5.502   2.944  16.682  0.00  0.00    +0.000 HD
BRANCH  21  27
ATOM     23  C   UNL     1       8.240   8.455  17.948  0.00  0.00    +0.000 C 
ATOM     24  C   UNL     1       7.470   7.171  17.831  0.00  0.00    +0.000 A 
ATOM     25  C   UNL     1       7.618   6.143  18.770  0.00  0.00    +0.000 A 
ATOM     26  C   UNL     1       6.884   4.958  18.646  0.00  0.00    +0.000 A 
ATOM     27  C   UNL     1       5.998   4.800  17.583  0.00  0.00    +0.000 A 
ATOM     28  C   UNL     1       5.863   5.806  16.628  0.00  0.00    +0.000 A 
ATOM     29  C   UNL     1       6.587   6.990  16.758  0.00  0.00    +0.000 A 
ENDBRANCH  21  27
ENDBRANCH  18  21
ENDBRANCH   1  18
TORSDOF 6
ENDMDL
MODEL 3
REMARK VINA RESULT:      -8.3      2.899      9.374
REMARK  Name = 
REMARK  7 active torsions:
REMARK  status: ('A' for Active; 'I' for Inactive)
REMARK    1  A    between atoms: C_1  and  C_2
REMARK    2  A    between atoms: C_5  and  N_6
REMARK    3  A    between atoms: N_6  and  S_7
REMARK    4  A    between atoms: S_7  and  C_10
REMARK    5  A    between atoms: C_13  and  C_14
REMARK    6  A    between atoms: N_16  and  C_17
REMARK    7  A    between atoms: C_17  and  C_18
REMARK                            x       y       z     vdW  Elec       q    Type
REMARK                         _______ _______ _______ _____ _____    ______ ____
ROOT
ATOM      1  C   UNL     1       2.367   4.570  18.884  0.00  0.00    +0.000 A 
ATOM      2  C   UNL     1       2.435   5.731  18.107  0.00  0.00    +0.000 A 
ATOM      3  C   UNL     1       2.135   6.973  18.684  0.00  0.00    +0.000 A 
ATOM      4  C   UNL     1       1.764   7.054  20.036  0.00  0.00    +0.000 A 
ATOM      5  C   UNL     1       1.665   5.876  20.791  0.00  0.00    +0.000 A 
ATOM      6  C   UNL     1       1.962   4.635  20.220  0.00  0.00    +0.000 A 
ENDROOT
BRANCH   4   7
ATOM      7  C   UNL     1       1.460   8.351  20.718  0.00  0.00    +0.000 C 
ATOM      8  O   UNL     1       1.617   8.462  21.927  0.00  0.00    +0.000 OA
ATOM      9  N   UNL     1       1.060   9.392  19.912  0.00  0.00    +0.000 N 
ATOM     10  H   UNL     1       0.940   9.273  18.918  0.00  0.00    +0.000 HD
BRANCH   9  11
ATOM     11  C   UNL     1       0.798  10.719  20.437  0.00  0.00    +0.000 C 
BRANCH  11  12
ATOM     12  C   UNL     1      -0.567  11.240  20.049  0.00  0.00    +0.000 A 
ATOM     13  C   UNL     1      -1.165  10.829  18.860  0.00  0.00    +0.000 A 
ATOM     14  C   UNL     1      -2.433  11.311  18.541  0.00  0.00    +0.000 A 
ATOM     15  C   UNL     1      -3.063  12.194  19.408  0.00  0.00    +0.000 A 
ATOM     16  C   UNL     1      -2.395  12.564  20.562  0.00  0.00    +0.000 A 
ATOM     17  N   UNL     1      -1.166  12.115  20.901  0.00  0.00    +0.000 NA
ENDBRANCH  11  12
ENDBRANCH   9  11
ENDBRANCH   4   7
BRANCH   1  18
ATOM     18  S   UNL     1       2.710   2.978  18.156  0.00  0.00    +0.000 S 
ATOM     19  O   UNL     1       2.393   3.074  16.745  0.00  0.00    +0.000 OA
ATOM     20  O   UNL     1       2.108   1.959  18.987  0.00  0.00    +0.000 OA
BRANCH  18  21
ATOM     21  N   UNL     1       4.376   2.869  18.249  0.00  0.00    +0.000 N 
ATOM     22  H   UNL     1       4.771   1.995  18.587  0.00  0.00    +0.000 HD
BRANCH  21  27
ATOM     23  C   UNL     1       7.649   7.504  17.557  0.00  0.00    +0.000 C 
ATOM     24  C   UNL     1       6.786   6.286  17.714  0.00  0.00    +0.000 A 
ATOM     25  C   UNL     1       6.216   5.648  16.605  0.00  0.00    +0.000 A 
ATOM     26  C   UNL     1       5.421   4.509  16.773  0.00  0.00    +0.000 A 
ATOM     27  C   UNL     1       5.198   4.003  18.051  0.00  0.00    +0.000 A 
ATOM     28  C   UNL     1       5.738   4.646  19.164  0.00  0.00    +0.000 A 
ATOM     29  C   UNL     1       6.537   5.775  18.994  0.00  0.00    +0.000 A 
ENDBRANCH  21  27
ENDBRANCH  18  21
ENDBRANCH   1  18
TORSDOF 6
ENDMDL
MODEL 4
REMARK VINA RESULT:      -8.3      2.617      9.067
REMARK  Name = 
REMARK  7 active torsions:
REMARK  status: ('A' for Active; 'I' for Inactive)
REMARK    1  A    between atoms: C_1  and  C_2
REMARK    2  A    between atoms: C_5  and  N_6
REMARK    3  A    between atoms: N_6  and  S_7
REMARK    4  A    between atoms: S_7  and  C_10
REMARK    5  A    between atoms: C_13  and  C_14
REMARK    6  A    between atoms: N_16  and  C_17
REMARK    7  A    between atoms: C_17  and  C_18
REMARK                            x       y       z     vdW  Elec       q    Type
REMARK                         _______ _______ _______ _____ _____    ______ ____
ROOT
ATOM      1  C   UNL     1       3.043   4.447  18.844  0.00  0.00    +0.000 A 
ATOM      2  C   UNL     1       2.890   4.749  20.201  0.00  0.00    +0.000 A 
ATOM      3  C   UNL     1       2.426   6.015  20.585  0.00  0.00    +0.000 A 
ATOM      4  C   UNL     1       2.116   6.979  19.613  0.00  0.00    +0.000 A 
ATOM      5  C   UNL     1       2.309   6.674  18.258  0.00  0.00    +0.000 A 
ATOM      6  C   UNL     1       2.774   5.413  17.870  0.00  0.00    +0.000 A 
ENDROOT
BRANCH   4   7
ATOM      7  C   UNL     1       1.589   8.337  19.958  0.00  0.00    +0.000 C 
ATOM      8  O   UNL     1       1.405   8.647  21.128  0.00  0.00    +0.000 OA
ATOM      9  N   UNL     1       1.388   9.204  18.909  0.00  0.00    +0.000 N 
ATOM     10  H   UNL     1       1.550   8.924  17.954  0.00  0.00    +0.000 HD
BRANCH   9  11
ATOM     11  C   UNL     1       0.944  10.571  19.111  0.00  0.00    +0.000 C 
BRANCH  11  12
ATOM     12  C   UNL     1      -0.502  10.777  18.724  0.00  0.00    +0.000 A 
ATOM     13  C   UNL     1      -1.084   9.993  17.730  0.00  0.00    +0.000 A 
ATOM     14  C   UNL     1      -2.425  10.193  17.411  0.00  0.00    +0.000 A 
ATOM     15  C   UNL     1      -3.145  11.172  18.083  0.00  0.00    +0.000 A 
ATOM     16  C   UNL     1      -2.489  11.919  19.047  0.00  0.00    +0.000 A 
ATOM     17  N   UNL     1      -1.191  11.750  19.380  0.00  0.00    +0.000 NA
ENDBRANCH  11  12
ENDBRANCH   9  11
ENDBRANCH   4   7
BRANCH   1  18
ATOM     18  S   UNL     1       3.667   2.855  18.340  0.00  0.00    +0.000 S 
ATOM     19  O   UNL     1       2.617   2.200  17.585  0.00  0.00    +0.000 OA
ATOM     20  O   UNL     1       4.267   2.216  19.491  0.00  0.00    +0.000 OA
BRANCH  18  21
ATOM     21  N   UNL     1       4.857   3.247  17.231  0.00  0.00    +0.000 N 
ATOM     22  H   UNL     1       5.093   2.549  16.530  0.00  0.00    +0.000 HD
BRANCH  21  27
ATOM     23  C   UNL     1       7.976   7.985  17.939  0.00  0.00    +0.000 C 
ATOM     24  C   UNL     1       7.150   6.749  17.730  0.00  0.00    +0.000 A 
ATOM     25  C   UNL     1       6.431   6.543  16.546  0.00  0.00    +0.000 A 
ATOM     26  C   UNL     1       5.674   5.380  16.369  0.00  0.00    +0.000 A 
ATOM     27  C   UNL     1       5.636   4.418  17.375  0.00  0.00    +0.000 A 
ATOM     28  C   UNL     1       6.325   4.626  18.569  0.00  0.00    +0.000 A 
ATOM     29  C   UNL     1       7.087   5.780  18.740  0.00  0.00    +0.000 A 
ENDBRANCH  21  27
ENDBRANCH  18  21
ENDBRANCH   1  18
TORSDOF 6
ENDMDL
MODEL 5
REMARK VINA RESULT:      -8.3      2.838      9.205
REMARK  Name = 
REMARK  7 active torsions:
REMARK  status: ('A' for Active; 'I' for Inactive)
REMARK    1  A    between atoms: C_1  and  C_2
REMARK    2  A    between atoms: C_5  and  N_6
REMARK    3  A    between atoms: N_6  and  S_7
REMARK    4  A    between atoms: S_7  and  C_10
REMARK    5  A    between atoms: C_13  and  C_14
REMARK    6  A    between atoms: N_16  and  C_17
REMARK    7  A    between atoms: C_17  and  C_18
REMARK                            x       y       z     vdW  Elec       q    Type
REMARK                         _______ _______ _______ _____ _____    ______ ____
ROOT
ATOM      1  C   UNL     1       2.369   4.451  18.858  0.00  0.00    +0.000 A 
ATOM      2  C   UNL     1       2.134   4.546  20.233  0.00  0.00    +0.000 A 
ATOM      3  C   UNL     1       1.844   5.793  20.806  0.00  0.00    +0.000 A 
ATOM      4  C   UNL     1       1.791   6.944  20.004  0.00  0.00    +0.000 A 
ATOM      5  C   UNL     1       2.066   6.838  18.633  0.00  0.00    +0.000 A 
ATOM      6  C   UNL     1       2.358   5.597  18.058  0.00  0.00    +0.000 A 
ENDROOT
BRANCH   4   7
ATOM      7  C   UNL     1       1.458   8.298  20.549  0.00  0.00    +0.000 C 
ATOM      8  O   UNL     1       1.475   8.494  21.758  0.00  0.00    +0.000 OA
ATOM      9  N   UNL     1       1.199   9.286  19.629  0.00  0.00    +0.000 N 
ATOM     10  H   UNL     1       1.194   9.097  18.638  0.00  0.00    +0.000 HD
BRANCH   9  11
ATOM     11  C   UNL     1       0.929  10.657  20.022  0.00  0.00    +0.000 C 
BRANCH  11  12
ATOM     12  C   UNL     1      -0.473  11.098  19.669  0.00  0.00    +0.000 A 
ATOM     13  C   UNL     1      -1.129  12.048  20.449  0.00  0.00    +0.000 A 
ATOM     14  C   UNL     1      -2.412  12.450  20.085  0.00  0.00    +0.000 A 
ATOM     15  C   UNL     1      -3.009  11.889  18.964  0.00  0.00    +0.000 A 
ATOM     16  C   UNL     1      -2.295  10.940  18.251  0.00  0.00    +0.000 A 
ATOM     17  N   UNL     1      -1.049  10.530  18.576  0.00  0.00    +0.000 NA
ENDBRANCH  11  12
ENDBRANCH   9  11
ENDBRANCH   4   7
BRANCH   1  18
ATOM     18  S   UNL     1       2.776   2.879  18.120  0.00  0.00    +0.000 S 
ATOM     19  O   UNL     1       2.460   2.972  16.709  0.00  0.00    +0.000 OA
ATOM     20  O   UNL     1       2.213   1.831  18.943  0.00  0.00    +0.000 OA
BRANCH  18  21
ATOM     21  N   UNL     1       4.445   2.835  18.217  0.00  0.00    +0.000 N 
ATOM     22  H   UNL     1       4.874   1.965  18.522  0.00  0.00    +0.000 HD
BRANCH  21  27
ATOM     23  C   UNL     1       7.630   7.530  17.513  0.00  0.00    +0.000 C 
ATOM     24  C   UNL     1       6.797   6.299  17.723  0.00  0.00    +0.000 A 
ATOM     25  C   UNL     1       6.530   5.808  19.007  0.00  0.00    +0.000 A 
ATOM     26  C   UNL     1       5.744   4.664  19.181  0.00  0.00    +0.000 A 
ATOM     27  C   UNL     1       5.220   4.009  18.069  0.00  0.00    +0.000 A 
ATOM     28  C   UNL     1       5.501   4.473  16.785  0.00  0.00    +0.000 A 
ATOM     29  C   UNL     1       6.276   5.618  16.614  0.00  0.00    +0.000 A 
ENDBRANCH  21  27
ENDBRANCH  18  21
ENDBRANCH   1  18
TORSDOF 6
ENDMDL
MODEL 6
REMARK VINA RESULT:      -8.2      2.573      9.058
REMARK  Name = 
REMARK  7 active torsions:
REMARK  status: ('A' for Active; 'I' for Inactive)
REMARK    1  A    between atoms: C_1  and  C_2
REMARK    2  A    between atoms: C_5  and  N_6
REMARK    3  A    between atoms: N_6  and  S_7
REMARK    4  A    between atoms: S_7  and  C_10
REMARK    5  A    between atoms: C_13  and  C_14
REMARK    6  A    between atoms: N_16  and  C_17
REMARK    7  A    between atoms: C_17  and  C_18
REMARK                            x       y       z     vdW  Elec       q    Type
REMARK                         _______ _______ _______ _____ _____    ______ ____
ROOT
ATOM      1  C   UNL     1       3.105   4.496  18.840  0.00  0.00    +0.000 A 
ATOM      2  C   UNL     1       2.841   4.786  20.183  0.00  0.00    +0.000 A 
ATOM      3  C   UNL     1       2.339   6.046  20.538  0.00  0.00    +0.000 A 
ATOM      4  C   UNL     1       2.102   7.016  19.551  0.00  0.00    +0.000 A 
ATOM      5  C   UNL     1       2.406   6.722  18.214  0.00  0.00    +0.000 A 
ATOM      6  C   UNL     1       2.909   5.468  17.856  0.00  0.00    +0.000 A 
ENDROOT
BRANCH   4   7
ATOM      7  C   UNL     1       1.540   8.368  19.862  0.00  0.00    +0.000 C 
ATOM      8  O   UNL     1       1.317   8.689  21.022  0.00  0.00    +0.000 OA
ATOM      9  N   UNL     1       1.352   9.217  18.796  0.00  0.00    +0.000 N 
ATOM     10  H   UNL     1       1.546   8.927  17.850  0.00  0.00    +0.000 HD
BRANCH   9  11
ATOM     11  C   UNL     1       0.877  10.577  18.966  0.00  0.00    +0.000 C 
BRANCH  11  12
ATOM     12  C   UNL     1      -0.582  10.735  18.602  0.00  0.00    +0.000 A 
ATOM     13  C   UNL     1      -1.379  11.659  19.274  0.00  0.00    +0.000 A 
ATOM     14  C   UNL     1      -2.714  11.795  18.901  0.00  0.00    +0.000 A 
ATOM     15  C   UNL     1      -3.220  11.002  17.879  0.00  0.00    +0.000 A 
ATOM     16  C   UNL     1      -2.366  10.097  17.273  0.00  0.00    +0.000 A 
ATOM     17  N   UNL     1      -1.066   9.941  17.610  0.00  0.00    +0.000 NA
ENDBRANCH  11  12
ENDBRANCH   9  11
ENDBRANCH   4   7
BRANCH   1  18
ATOM     18  S   UNL     1       3.779   2.911  18.377  0.00  0.00    +0.000 S 
ATOM     19  O   UNL     1       2.760   2.217  17.616  0.00  0.00    +0.000 OA
ATOM     20  O   UNL     1       4.374   2.309  19.550  0.00  0.00    +0.000 OA
BRANCH  18  21
ATOM     21  N   UNL     1       4.978   3.314  17.282  0.00  0.00    +0.000 N 
ATOM     22  H   UNL     1       5.241   2.612  16.595  0.00  0.00    +0.000 HD
BRANCH  21  27
ATOM     23  C   UNL     1       8.037   8.123  17.722  0.00  0.00    +0.000 C 
ATOM     24  C   UNL     1       7.243   6.853  17.629  0.00  0.00    +0.000 A 
ATOM     25  C   UNL     1       7.287   5.888  18.644  0.00  0.00    +0.000 A 
ATOM     26  C   UNL     1       6.532   4.715  18.540  0.00  0.00    +0.000 A 
ATOM     27  C   UNL     1       5.728   4.504  17.422  0.00  0.00    +0.000 A 
ATOM     28  C   UNL     1       5.698   5.445  16.394  0.00  0.00    +0.000 A 
ATOM     29  C   UNL     1       6.443   6.618  16.503  0.00  0.00    +0.000 A 
ENDBRANCH  21  27
ENDBRANCH  18  21
ENDBRANCH   1  18
TORSDOF 6
ENDMDL
MODEL 7
REMARK VINA RESULT:      -8.1      3.695      8.881
REMARK  Name = 
REMARK  7 active torsions:
REMARK  status: ('A' for Active; 'I' for Inactive)
REMARK    1  A    between atoms: C_1  and  C_2
REMARK    2  A    between atoms: C_5  and  N_6
REMARK    3  A    between atoms: N_6  and  S_7
REMARK    4  A    between atoms: S_7  and  C_10
REMARK    5  A    between atoms: C_13  and  C_14
REMARK    6  A    between atoms: N_16  and  C_17
REMARK    7  A    between atoms: C_17  and  C_18
REMARK                            x       y       z     vdW  Elec       q    Type
REMARK                         _______ _______ _______ _____ _____    ______ ____
ROOT
ATOM      1  C   UNL     1       2.326   4.647  18.889  0.00  0.00    +0.000 A 
ATOM      2  C   UNL     1       2.404   5.817  18.128  0.00  0.00    +0.000 A 
ATOM      3  C   UNL     1       2.102   7.053  18.717  0.00  0.00    +0.000 A 
ATOM      4  C   UNL     1       1.721   7.118  20.067  0.00  0.00    +0.000 A 
ATOM      5  C   UNL     1       1.611   5.932  20.807  0.00  0.00    +0.000 A 
ATOM      6  C   UNL     1       1.909   4.697  20.222  0.00  0.00    +0.000 A 
ENDROOT
BRANCH   4   7
ATOM      7  C   UNL     1       1.414   8.408  20.761  0.00  0.00    +0.000 C 
ATOM      8  O   UNL     1       1.756   8.576  21.925  0.00  0.00    +0.000 OA
ATOM      9  N   UNL     1       0.795   9.381  20.011  0.00  0.00    +0.000 N 
ATOM     10  H   UNL     1       0.526   9.216  19.053  0.00  0.00    +0.000 HD
BRANCH   9  11
ATOM     11  C   UNL     1       0.502  10.698  20.543  0.00  0.00    +0.000 C 
BRANCH  11  12
ATOM     12  C   UNL     1       1.353  11.781  19.920  0.00  0.00    +0.000 A 
ATOM     13  C   UNL     1       1.719  12.902  20.661  0.00  0.00    +0.000 A 
ATOM     14  C   UNL     1       2.522  13.872  20.065  0.00  0.00    +0.000 A 
ATOM     15  C   UNL     1       2.928  13.704  18.748  0.00  0.00    +0.000 A 
ATOM     16  C   UNL     1       2.509  12.568  18.076  0.00  0.00    +0.000 A 
ATOM     17  N   UNL     1       1.731  11.609  18.625  0.00  0.00    +0.000 NA
ENDBRANCH  11  12
ENDBRANCH   9  11
ENDBRANCH   4   7
BRANCH   1  18
ATOM     18  S   UNL     1       2.671   3.063  18.145  0.00  0.00    +0.000 S 
ATOM     19  O   UNL     1       2.380   3.182  16.730  0.00  0.00    +0.000 OA
ATOM     20  O   UNL     1       2.046   2.036  18.950  0.00  0.00    +0.000 OA
BRANCH  18  21
ATOM     21  N   UNL     1       4.334   2.940  18.266  0.00  0.00    +0.000 N 
ATOM     22  H   UNL     1       4.715   2.069  18.627  0.00  0.00    +0.000 HD
BRANCH  21  27
ATOM     23  C   UNL     1       7.663   7.531  17.542  0.00  0.00    +0.000 C 
ATOM     24  C   UNL     1       6.785   6.324  17.707  0.00  0.00    +0.000 A 
ATOM     25  C   UNL     1       6.216   5.679  16.602  0.00  0.00    +0.000 A 
ATOM     26  C   UNL     1       5.407   4.551  16.778  0.00  0.00    +0.000 A 
ATOM     27  C   UNL     1       5.169   4.063  18.061  0.00  0.00    +0.000 A 
ATOM     28  C   UNL     1       5.709   4.713  19.169  0.00  0.00    +0.000 A 
ATOM     29  C   UNL     1       6.522   5.831  18.992  0.00  0.00    +0.000 A 
ENDBRANCH  21  27
ENDBRANCH  18  21
ENDBRANCH   1  18
TORSDOF 6
ENDMDL
MODEL 8
REMARK VINA RESULT:      -8.1      3.731      8.861
REMARK  Name = 
REMARK  7 active torsions:
REMARK  status: ('A' for Active; 'I' for Inactive)
REMARK    1  A    between atoms: C_1  and  C_2
REMARK    2  A    between atoms: C_5  and  N_6
REMARK    3  A    between atoms: N_6  and  S_7
REMARK    4  A    between atoms: S_7  and  C_10
REMARK    5  A    between atoms: C_13  and  C_14
REMARK    6  A    between atoms: N_16  and  C_17
REMARK    7  A    between atoms: C_17  and  C_18
REMARK                            x       y       z     vdW  Elec       q    Type
REMARK                         _______ _______ _______ _____ _____    ______ ____
ROOT
ATOM      1  C   UNL     1       2.301   4.675  18.860  0.00  0.00    +0.000 A 
ATOM      2  C   UNL     1       2.384   5.863  18.126  0.00  0.00    +0.000 A 
ATOM      3  C   UNL     1       2.087   7.086  18.744  0.00  0.00    +0.000 A 
ATOM      4  C   UNL     1       1.706   7.122  20.094  0.00  0.00    +0.000 A 
ATOM      5  C   UNL     1       1.591   5.919  20.807  0.00  0.00    +0.000 A 
ATOM      6  C   UNL     1       1.884   4.697  20.194  0.00  0.00    +0.000 A 
ENDROOT
BRANCH   4   7
ATOM      7  C   UNL     1       1.404   8.397  20.819  0.00  0.00    +0.000 C 
ATOM      8  O   UNL     1       1.710   8.521  21.998  0.00  0.00    +0.000 OA
ATOM      9  N   UNL     1       0.833   9.406  20.079  0.00  0.00    +0.000 N 
ATOM     10  H   UNL     1       0.594   9.277  19.107  0.00  0.00    +0.000 HD
BRANCH   9  11
ATOM     11  C   UNL     1       0.552  10.713  20.642  0.00  0.00    +0.000 C 
BRANCH  11  12
ATOM     12  C   UNL     1       1.198  11.835  19.862  0.00  0.00    +0.000 A 
ATOM     13  C   UNL     1       1.893  11.565  18.685  0.00  0.00    +0.000 A 
ATOM     14  C   UNL     1       2.460  12.623  17.978  0.00  0.00    +0.000 A 
ATOM     15  C   UNL     1       2.328  13.916  18.467  0.00  0.00    +0.000 A 
ATOM     16  C   UNL     1       1.635  14.098  19.652  0.00  0.00    +0.000 A 
ATOM     17  N   UNL     1       1.073  13.094  20.361  0.00  0.00    +0.000 NA
ENDBRANCH  11  12
ENDBRANCH   9  11
ENDBRANCH   4   7
BRANCH   1  18
ATOM     18  S   UNL     1       2.638   3.108  18.079  0.00  0.00    +0.000 S 
ATOM     19  O   UNL     1       2.321   3.252  16.673  0.00  0.00    +0.000 OA
ATOM     20  O   UNL     1       2.034   2.063  18.877  0.00  0.00    +0.000 OA
BRANCH  18  21
ATOM     21  N   UNL     1       4.304   2.991  18.167  0.00  0.00    +0.000 N 
ATOM     22  H   UNL     1       4.698   2.099  18.457  0.00  0.00    +0.000 HD
BRANCH  21  27
ATOM     23  C   UNL     1       7.678   7.559  17.515  0.00  0.00    +0.000 C 
ATOM     24  C   UNL     1       6.797   6.361  17.711  0.00  0.00    +0.000 A 
ATOM     25  C   UNL     1       6.571   5.821  18.984  0.00  0.00    +0.000 A 
ATOM     26  C   UNL     1       5.739   4.708  19.145  0.00  0.00    +0.000 A 
ATOM     27  C   UNL     1       5.128   4.133  18.033  0.00  0.00    +0.000 A 
ATOM     28  C   UNL     1       5.367   4.645  16.759  0.00  0.00    +0.000 A 
ATOM     29  C   UNL     1       6.189   5.760  16.601  0.00  0.00    +0.000 A 
ENDBRANCH  21  27
ENDBRANCH  18  21
ENDBRANCH   1  18
TORSDOF 6
ENDMDL
MODEL 9
REMARK VINA RESULT:      -8.1      0.462      1.041
REMARK  Name = 
REMARK  7 active torsions:
REMARK  status: ('A' for Active; 'I' for Inactive)
REMARK    1  A    between atoms: C_1  and  C_2
REMARK    2  A    between atoms: C_5  and  N_6
REMARK    3  A    between atoms: N_6  and  S_7
REMARK    4  A    between atoms: S_7  and  C_10
REMARK    5  A    between atoms: C_13  and  C_14
REMARK    6  A    between atoms: N_16  and  C_17
REMARK    7  A    between atoms: C_17  and  C_18
REMARK                            x       y       z     vdW  Elec       q    Type
REMARK                         _______ _______ _______ _____ _____    ______ ____
ROOT
ATOM      1  C   UNL     1       1.948   8.460  18.917  0.00  0.00    +0.000 A 
ATOM      2  C   UNL     1       2.053   7.401  19.824  0.00  0.00    +0.000 A 
ATOM      3  C   UNL     1       2.910   6.327  19.545  0.00  0.00    +0.000 A 
ATOM      4  C   UNL     1       3.661   6.312  18.359  0.00  0.00    +0.000 A 
ATOM      5  C   UNL     1       3.517   7.364  17.443  0.00  0.00    +0.000 A 
ATOM      6  C   UNL     1       2.662   8.436  17.716  0.00  0.00    +0.000 A 
ENDROOT
BRANCH   4   7
ATOM      7  C   UNL     1       4.615   5.210  18.017  0.00  0.00    +0.000 C 
ATOM      8  O   UNL     1       4.984   4.426  18.882  0.00  0.00    +0.000 OA
ATOM      9  N   UNL     1       4.989   5.106  16.697  0.00  0.00    +0.000 N 
ATOM     10  H   UNL     1       4.667   5.765  16.004  0.00  0.00    +0.000 HD
BRANCH   9  11
ATOM     11  C   UNL     1       5.854   4.043  16.221  0.00  0.00    +0.000 C 
BRANCH  11  12
ATOM     12  C   UNL     1       6.388   4.306  14.831  0.00  0.00    +0.000 A 
ATOM     13  C   UNL     1       5.855   3.635  13.733  0.00  0.00    +0.000 A 
ATOM     14  C   UNL     1       6.355   3.914  12.463  0.00  0.00    +0.000 A 
ATOM     15  C   UNL     1       7.375   4.845  12.324  0.00  0.00    +0.000 A 
ATOM     16  C   UNL     1       7.861   5.458  13.467  0.00  0.00    +0.000 A 
ATOM     17  N   UNL     1       7.398   5.210  14.712  0.00  0.00    +0.000 NA
ENDBRANCH  11  12
ENDBRANCH   9  11
ENDBRANCH   4   7
BRANCH   1  18
ATOM     18  S   UNL     1       0.835   9.816  19.240  0.00  0.00    +0.000 S 
ATOM     19  O   UNL     1       1.646  10.998  19.448  0.00  0.00    +0.000 OA
ATOM     20  O   UNL     1      -0.127   9.387  20.232  0.00  0.00    +0.000 OA
BRANCH  18  21
ATOM     21  N   UNL     1       0.068  10.035  17.770  0.00  0.00    +0.000 N 
ATOM     22  H   UNL     1       0.648  10.044  16.934  0.00  0.00    +0.000 HD
BRANCH  21  27
ATOM     23  C   UNL     1      -5.464  11.469  17.619  0.00  0.00    +0.000 C 
ATOM     24  C   UNL     1      -4.016  11.074  17.642  0.00  0.00    +0.000 A 
ATOM     25  C   UNL     1      -3.535  10.017  16.859  0.00  0.00    +0.000 A 
ATOM     26  C   UNL     1      -2.180   9.671  16.889  0.00  0.00    +0.000 A 
ATOM     27  C   UNL     1      -1.301  10.383  17.701  0.00  0.00    +0.000 A 
ATOM     28  C   UNL     1      -1.774  11.419  18.505  0.00  0.00    +0.000 A 
ATOM     29  C   UNL     1      -3.122  11.769  18.467  0.00  0.00    +0.000 A 
ENDBRANCH  21  27
ENDBRANCH  18  21
ENDBRANCH   1  18
TORSDOF 6
ENDMDL
