MODEL 1
REMARK VINA RESULT:      -6.2      0.000      0.000
REMARK  Name = 
REMARK  12 active torsions:
REMARK  status: ('A' for Active; 'I' for Inactive)
REMARK    1  A    between atoms: C_1  and  C_2
REMARK    2  A    between atoms: C_2  and  O_3
REMARK    3  A    between atoms: O_3  and  C_4
REMARK    4  A    between atoms: C_4  and  C_6
REMARK    5  A    between atoms: N_8  and  S_9
REMARK    6  A    between atoms: S_9  and  C_12
REMARK    7  A    between atoms: C_15  and  O_16
REMARK    8  A    between atoms: O_16  and  C_17
REMARK    9  A    between atoms: C_22  and  C_23
REMARK   10  A    between atoms: C_23  and  C_24
REMARK   11  A    between atoms: C_24  and  O_26
REMARK   12  A    between atoms: O_26  and  C_27
REMARK                            x       y       z     vdW  Elec       q    Type
REMARK                         _______ _______ _______ _____ _____    ______ ____
ROOT
ATOM      1  C   UNL     1       3.974   3.465  18.882  0.00  0.00    +0.000 C 
ATOM      2  C   UNL     1       3.166   4.588  19.537  0.00  0.00    +0.000 C 
ATOM      3  N   UNL     1       3.666   5.937  19.092  0.00  0.00    +0.000 N 
ATOM      4  C   UNL     1       5.093   5.948  18.743  0.00  0.00    +0.000 A 
ATOM      5  C   UNL     1       5.769   7.076  18.273  0.00  0.00    +0.000 A 
ATOM      6  C   UNL     1       7.127   7.014  17.892  0.00  0.00    +0.000 A 
ATOM      7  C   UNL     1       7.849   5.833  18.095  0.00  0.00    +0.000 A 
ATOM      8  C   UNL     1       7.229   4.730  18.665  0.00  0.00    +0.000 A 
ATOM      9  C   UNL     1       5.866   4.784  18.964  0.00  0.00    +0.000 A 
ATOM     10  O   UNL     1       5.322   3.578  19.367  0.00  0.00    +0.000 OA
ENDROOT
BRANCH   3  11
ATOM     11  S   UNL     1       2.521   6.846  18.190  0.00  0.00    +0.000 S 
ATOM     12  O   UNL     1       3.150   7.668  17.177  0.00  0.00    +0.000 OA
ATOM     13  O   UNL     1       1.430   5.964  17.822  0.00  0.00    +0.000 OA
BRANCH  11  14
ATOM     14  C   UNL     1       1.862   7.990  19.408  0.00  0.00    +0.000 A 
ATOM     15  C   UNL     1       1.346   9.214  18.978  0.00  0.00    +0.000 A 
ATOM     16  C   UNL     1       0.705  10.058  19.892  0.00  0.00    +0.000 A 
ATOM     17  C   UNL     1       0.548   9.676  21.229  0.00  0.00    +0.000 A 
ATOM     18  C   UNL     1       1.067   8.451  21.654  0.00  0.00    +0.000 A 
ATOM     19  C   UNL     1       1.717   7.601  20.746  0.00  0.00    +0.000 A 
BRANCH  17  20
ATOM     20  O   UNL     1      -0.081  10.591  22.022  0.00  0.00    +0.000 OA
ATOM     21  C   UNL     1      -0.001  11.952  21.613  0.00  0.00    +0.000 C 
ENDBRANCH  17  20
ENDBRANCH  11  14
ENDBRANCH   3  11
BRANCH   1  22
ATOM     22  C   UNL     1       3.939   3.412  17.341  0.00  0.00    +0.000 C 
ATOM     23  O   UNL     1       2.909   3.362  16.675  0.00  0.00    +0.000 OA
BRANCH  22  24
ATOM     24  O   UNL     1       5.182   3.474  16.793  0.00  0.00    +0.000 OA
BRANCH  24  26
ATOM     25  C   UNL     1       6.616   4.145  14.940  0.00  0.00    +0.000 C 
ATOM     26  C   UNL     1       5.232   4.224  15.563  0.00  0.00    +0.000 C 
ENDBRANCH  24  26
ENDBRANCH  22  24
ENDBRANCH   1  22
BRANCH   6  27
ATOM     27  C   UNL     1       7.782   8.185  17.192  0.00  0.00    +0.000 C 
BRANCH  27  28
ATOM     28  C   UNL     1       8.367   9.232  18.110  0.00  0.00    +0.000 C 
ATOM     29  O   UNL     1       9.055   9.024  19.105  0.00  0.00    +0.000 OA
BRANCH  28  30
ATOM     30  O   UNL     1       8.009  10.473  17.668  0.00  0.00    +0.000 OA
ATOM     31  C   UNL     1       8.919  11.505  18.054  0.00  0.00    +0.000 C 
ENDBRANCH  28  30
ENDBRANCH  27  28
ENDBRANCH   6  27
TORSDOF 9
ENDMDL
MODEL 2
REMARK VINA RESULT:      -6.1      3.629      8.671
REMARK  Name = 
REMARK  12 active torsions:
REMARK  status: ('A' for Active; 'I' for Inactive)
REMARK    1  A    between atoms: C_1  and  C_2
REMARK    2  A    between atoms: C_2  and  O_3
REMARK    3  A    between atoms: O_3  and  C_4
REMARK    4  A    between atoms: C_4  and  C_6
REMARK    5  A    between atoms: N_8  and  S_9
REMARK    6  A    between atoms: S_9  and  C_12
REMARK    7  A    between atoms: C_15  and  O_16
REMARK    8  A    between atoms: O_16  and  C_17
REMARK    9  A    between atoms: C_22  and  C_23
REMARK   10  A    between atoms: C_23  and  C_24
REMARK   11  A    between atoms: C_24  and  O_26
REMARK   12  A    between atoms: O_26  and  C_27
REMARK                            x       y       z     vdW  Elec       q    Type
REMARK                         _______ _______ _______ _____ _____    ______ ____
ROOT
ATOM      1  C   UNL     1      -2.208  12.149  19.538  0.00  0.00    +0.000 C 
ATOM      2  C   UNL     1      -1.515  10.838  19.158  0.00  0.00    +0.000 C 
ATOM      3  N   UNL     1      -0.033  10.922  19.419  0.00  0.00    +0.000 N 
ATOM      4  C   UNL     1       0.505  12.283  19.309  0.00  0.00    +0.000 A 
ATOM      5  C   UNL     1       1.844  12.610  19.539  0.00  0.00    +0.000 A 
ATOM      6  C   UNL     1       2.295  13.946  19.482  0.00  0.00    +0.000 A 
ATOM      7  C   UNL     1       1.417  14.956  19.073  0.00  0.00    +0.000 A 
ATOM      8  C   UNL     1       0.109  14.641  18.730  0.00  0.00    +0.000 A 
ATOM      9  C   UNL     1      -0.341  13.327  18.867  0.00  0.00    +0.000 A 
ATOM     10  O   UNL     1      -1.699  13.165  18.660  0.00  0.00    +0.000 OA
ENDROOT
BRANCH   3  11
ATOM     11  S   UNL     1       0.528   9.835  20.626  0.00  0.00    +0.000 S 
ATOM     12  O   UNL     1       1.385  10.488  21.594  0.00  0.00    +0.000 OA
ATOM     13  O   UNL     1      -0.597   9.044  21.083  0.00  0.00    +0.000 OA
BRANCH  11  14
ATOM     14  C   UNL     1       1.592   8.720  19.703  0.00  0.00    +0.000 A 
ATOM     15  C   UNL     1       1.927   7.485  20.263  0.00  0.00    +0.000 A 
ATOM     16  C   UNL     1       2.639   6.549  19.505  0.00  0.00    +0.000 A 
ATOM     17  C   UNL     1       2.995   6.824  18.180  0.00  0.00    +0.000 A 
ATOM     18  C   UNL     1       2.660   8.061  17.626  0.00  0.00    +0.000 A 
ATOM     19  C   UNL     1       1.950   9.009  18.380  0.00  0.00    +0.000 A 
BRANCH  17  20
ATOM     20  O   UNL     1       3.700   5.837  17.554  0.00  0.00    +0.000 OA
ATOM     21  C   UNL     1       3.394   4.498  17.929  0.00  0.00    +0.000 C 
ENDBRANCH  17  20
ENDBRANCH  11  14
ENDBRANCH   3  11
BRANCH   1  22
ATOM     22  C   UNL     1      -2.089  12.578  21.015  0.00  0.00    +0.000 C 
ATOM     23  O   UNL     1      -1.862  11.807  21.943  0.00  0.00    +0.000 OA
BRANCH  22  24
ATOM     24  O   UNL     1      -2.217  13.923  21.175  0.00  0.00    +0.000 OA
BRANCH  24  26
ATOM     25  C   UNL     1      -0.346  14.875  22.412  0.00  0.00    +0.000 C 
ATOM     26  C   UNL     1      -1.786  14.393  22.466  0.00  0.00    +0.000 C 
ENDBRANCH  24  26
ENDBRANCH  22  24
ENDBRANCH   1  22
BRANCH   6  27
ATOM     27  C   UNL     1       3.693  14.305  19.938  0.00  0.00    +0.000 C 
BRANCH  27  28
ATOM     28  C   UNL     1       4.524  15.052  18.922  0.00  0.00    +0.000 C 
ATOM     29  O   UNL     1       4.592  14.811  17.720  0.00  0.00    +0.000 OA
BRANCH  28  30
ATOM     30  O   UNL     1       5.207  16.056  19.546  0.00  0.00    +0.000 OA
ATOM     31  C   UNL     1       4.373  17.123  20.001  0.00  0.00    +0.000 C 
ENDBRANCH  28  30
ENDBRANCH  27  28
ENDBRANCH   6  27
TORSDOF 9
ENDMDL
MODEL 3
REMARK VINA RESULT:      -6.1      4.367     10.469
REMARK  Name = 
REMARK  12 active torsions:
REMARK  status: ('A' for Active; 'I' for Inactive)
REMARK    1  A    between atoms: C_1  and  C_2
REMARK    2  A    between atoms: C_2  and  O_3
REMARK    3  A    between atoms: O_3  and  C_4
REMARK    4  A    between atoms: C_4  and  C_6
REMARK    5  A    between atoms: N_8  and  S_9
REMARK    6  A    between atoms: S_9  and  C_12
REMARK    7  A    between atoms: C_15  and  O_16
REMARK    8  A    between atoms: O_16  and  C_17
REMARK    9  A    between atoms: C_22  and  C_23
REMARK   10  A    between atoms: C_23  and  C_24
REMARK   11  A    between atoms: C_24  and  O_26
REMARK   12  A    between atoms: O_26  and  C_27
REMARK                            x       y       z     vdW  Elec       q    Type
REMARK                         _______ _______ _______ _____ _____    ______ ____
ROOT
ATOM      1  C   UNL     1      -0.805  14.832  21.914  0.00  0.00    +0.000 C 
ATOM      2  C   UNL     1       0.143  13.640  21.763  0.00  0.00    +0.000 C 
ATOM      3  N   UNL     1      -0.316  12.728  20.656  0.00  0.00    +0.000 N 
ATOM      4  C   UNL     1      -1.769  12.748  20.444  0.00  0.00    +0.000 A 
ATOM      5  C   UNL     1      -2.420  12.010  19.452  0.00  0.00    +0.000 A 
ATOM      6  C   UNL     1      -3.813  12.116  19.252  0.00  0.00    +0.000 A 
ATOM      7  C   UNL     1      -4.582  12.883  20.134  0.00  0.00    +0.000 A 
ATOM      8  C   UNL     1      -3.974  13.538  21.196  0.00  0.00    +0.000 A 
ATOM      9  C   UNL     1      -2.586  13.485  21.333  0.00  0.00    +0.000 A 
ATOM     10  O   UNL     1      -2.079  14.308  22.321  0.00  0.00    +0.000 OA
ENDROOT
BRANCH   3  11
ATOM     11  S   UNL     1       0.776  12.627  19.333  0.00  0.00    +0.000 S 
ATOM     12  O   UNL     1       0.154  13.001  18.080  0.00  0.00    +0.000 OA
ATOM     13  O   UNL     1       2.025  13.250  19.727  0.00  0.00    +0.000 OA
BRANCH  11  14
ATOM     14  C   UNL     1       1.103  10.865  19.212  0.00  0.00    +0.000 A 
ATOM     15  C   UNL     1       1.755  10.374  18.078  0.00  0.00    +0.000 A 
ATOM     16  C   UNL     1       2.141   9.030  18.026  0.00  0.00    +0.000 A 
ATOM     17  C   UNL     1       1.906   8.177  19.111  0.00  0.00    +0.000 A 
ATOM     18  C   UNL     1       1.252   8.672  20.241  0.00  0.00    +0.000 A 
ATOM     19  C   UNL     1       0.857  10.018  20.300  0.00  0.00    +0.000 A 
BRANCH  17  20
ATOM     20  O   UNL     1       2.316   6.887  18.931  0.00  0.00    +0.000 OA
ATOM     21  C   UNL     1       3.303   6.664  17.930  0.00  0.00    +0.000 C 
ENDBRANCH  17  20
ENDBRANCH  11  14
ENDBRANCH   3  11
BRANCH   1  22
ATOM     22  C   UNL     1      -0.947  15.747  20.681  0.00  0.00    +0.000 C 
ATOM     23  O   UNL     1      -2.001  16.265  20.322  0.00  0.00    +0.000 OA
BRANCH  22  24
ATOM     24  O   UNL     1       0.242  15.961  20.055  0.00  0.00    +0.000 OA
BRANCH  24  26
ATOM     25  C   UNL     1       2.411  17.071  20.040  0.00  0.00    +0.000 C 
ATOM     26  C   UNL     1       1.010  17.036  20.629  0.00  0.00    +0.000 C 
ENDBRANCH  24  26
ENDBRANCH  22  24
ENDBRANCH   1  22
BRANCH   6  27
ATOM     27  C   UNL     1      -4.467  11.475  18.046  0.00  0.00    +0.000 C 
BRANCH  27  28
ATOM     28  C   UNL     1      -3.574  10.554  17.250  0.00  0.00    +0.000 C 
ATOM     29  O   UNL     1      -3.259   9.407  17.552  0.00  0.00    +0.000 OA
BRANCH  28  30
ATOM     30  O   UNL     1      -3.152  11.196  16.121  0.00  0.00    +0.000 OA
ATOM     31  C   UNL     1      -2.946  10.324  15.008  0.00  0.00    +0.000 C 
ENDBRANCH  28  30
ENDBRANCH  27  28
ENDBRANCH   6  27
TORSDOF 9
ENDMDL
MODEL 4
REMARK VINA RESULT:      -6.1      3.450      8.719
REMARK  Name = 
REMARK  12 active torsions:
REMARK  status: ('A' for Active; 'I' for Inactive)
REMARK    1  A    between atoms: C_1  and  C_2
REMARK    2  A    between atoms: C_2  and  O_3
REMARK    3  A    between atoms: O_3  and  C_4
REMARK    4  A    between atoms: C_4  and  C_6
REMARK    5  A    between atoms: N_8  and  S_9
REMARK    6  A    between atoms: S_9  and  C_12
REMARK    7  A    between atoms: C_15  and  O_16
REMARK    8  A    between atoms: O_16  and  C_17
REMARK    9  A    between atoms: C_22  and  C_23
REMARK   10  A    between atoms: C_23  and  C_24
REMARK   11  A    between atoms: C_24  and  O_26
REMARK   12  A    between atoms: O_26  and  C_27
REMARK                            x       y       z     vdW  Elec       q    Type
REMARK                         _______ _______ _______ _____ _____    ______ ____
ROOT
ATOM      1  C   UNL     1      -2.114  12.026  19.320  0.00  0.00    +0.000 C 
ATOM      2  C   UNL     1      -1.355  10.733  19.013  0.00  0.00    +0.000 C 
ATOM      3  N   UNL     1       0.083  10.840  19.449  0.00  0.00    +0.000 N 
ATOM      4  C   UNL     1       0.605  12.212  19.416  0.00  0.00    +0.000 A 
ATOM      5  C   UNL     1       1.900  12.560  19.807  0.00  0.00    +0.000 A 
ATOM      6  C   UNL     1       2.329  13.904  19.816  0.00  0.00    +0.000 A 
ATOM      7  C   UNL     1       1.486  14.903  19.315  0.00  0.00    +0.000 A 
ATOM      8  C   UNL     1       0.235  14.569  18.816  0.00  0.00    +0.000 A 
ATOM      9  C   UNL     1      -0.203  13.246  18.886  0.00  0.00    +0.000 A 
ATOM     10  O   UNL     1      -1.523  13.061  18.518  0.00  0.00    +0.000 OA
ENDROOT
BRANCH   3  11
ATOM     11  S   UNL     1       0.518   9.750  20.703  0.00  0.00    +0.000 S 
ATOM     12  O   UNL     1       1.326  10.385  21.724  0.00  0.00    +0.000 OA
ATOM     13  O   UNL     1      -0.665   9.003  21.086  0.00  0.00    +0.000 OA
BRANCH  11  14
ATOM     14  C   UNL     1       1.605   8.587  19.871  0.00  0.00    +0.000 A 
ATOM     15  C   UNL     1       1.875   7.359  20.478  0.00  0.00    +0.000 A 
ATOM     16  C   UNL     1       2.606   6.388  19.785  0.00  0.00    +0.000 A 
ATOM     17  C   UNL     1       3.046   6.621  18.477  0.00  0.00    +0.000 A 
ATOM     18  C   UNL     1       2.775   7.852  17.875  0.00  0.00    +0.000 A 
ATOM     19  C   UNL     1       2.047   8.835  18.565  0.00  0.00    +0.000 A 
BRANCH  17  20
ATOM     20  O   UNL     1       3.760   5.603  17.916  0.00  0.00    +0.000 OA
ATOM     21  C   UNL     1       4.862   5.105  18.668  0.00  0.00    +0.000 C 
ENDBRANCH  17  20
ENDBRANCH  11  14
ENDBRANCH   3  11
BRANCH   1  22
ATOM     22  C   UNL     1      -2.179  12.440  20.804  0.00  0.00    +0.000 C 
ATOM     23  O   UNL     1      -2.063  11.661  21.745  0.00  0.00    +0.000 OA
BRANCH  22  24
ATOM     24  O   UNL     1      -2.333  13.783  20.960  0.00  0.00    +0.000 OA
BRANCH  24  26
ATOM     25  C   UNL     1      -0.579  14.643  22.416  0.00  0.00    +0.000 C 
ATOM     26  C   UNL     1      -2.040  14.245  22.293  0.00  0.00    +0.000 C 
ENDBRANCH  24  26
ENDBRANCH  22  24
ENDBRANCH   1  22
BRANCH   6  27
ATOM     27  C   UNL     1       3.656  14.283  20.438  0.00  0.00    +0.000 C 
BRANCH  27  28
ATOM     28  C   UNL     1       3.582  14.731  21.878  0.00  0.00    +0.000 C 
ATOM     29  O   UNL     1       3.035  15.747  22.296  0.00  0.00    +0.000 OA
BRANCH  28  30
ATOM     30  O   UNL     1       4.230  13.825  22.668  0.00  0.00    +0.000 OA
ATOM     31  C   UNL     1       5.246  14.403  23.490  0.00  0.00    +0.000 C 
ENDBRANCH  28  30
ENDBRANCH  27  28
ENDBRANCH   6  27
TORSDOF 9
ENDMDL
MODEL 5
REMARK VINA RESULT:      -6.0      4.056     10.490
REMARK  Name = 
REMARK  12 active torsions:
REMARK  status: ('A' for Active; 'I' for Inactive)
REMARK    1  A    between atoms: C_1  and  C_2
REMARK    2  A    between atoms: C_2  and  O_3
REMARK    3  A    between atoms: O_3  and  C_4
REMARK    4  A    between atoms: C_4  and  C_6
REMARK    5  A    between atoms: N_8  and  S_9
REMARK    6  A    between atoms: S_9  and  C_12
REMARK    7  A    between atoms: C_15  and  O_16
REMARK    8  A    between atoms: O_16  and  C_17
REMARK    9  A    between atoms: C_22  and  C_23
REMARK   10  A    between atoms: C_23  and  C_24
REMARK   11  A    between atoms: C_24  and  O_26
REMARK   12  A    between atoms: O_26  and  C_27
REMARK                            x       y       z     vdW  Elec       q    Type
REMARK                         _______ _______ _______ _____ _____    ______ ____
ROOT
ATOM      1  C   UNL     1       1.565  14.312  20.915  0.00  0.00    +0.000 C 
ATOM      2  C   UNL     1       1.713  12.808  20.679  0.00  0.00    +0.000 C 
ATOM      3  N   UNL     1       0.378  12.118  20.776  0.00  0.00    +0.000 N 
ATOM      4  C   UNL     1      -0.568  12.794  21.673  0.00  0.00    +0.000 A 
ATOM      5  C   UNL     1      -1.876  12.357  21.896  0.00  0.00    +0.000 A 
ATOM      6  C   UNL     1      -2.763  13.082  22.721  0.00  0.00    +0.000 A 
ATOM      7  C   UNL     1      -2.297  14.198  23.425  0.00  0.00    +0.000 A 
ATOM      8  C   UNL     1      -0.970  14.588  23.308  0.00  0.00    +0.000 A 
ATOM      9  C   UNL     1      -0.127  13.906  22.429  0.00  0.00    +0.000 A 
ATOM     10  O   UNL     1       1.118  14.485  22.268  0.00  0.00    +0.000 OA
ENDROOT
BRANCH   3  11
ATOM     11  S   UNL     1      -0.148  11.396  19.308  0.00  0.00    +0.000 S 
ATOM     12  O   UNL     1      -1.565  11.099  19.321  0.00  0.00    +0.000 OA
ATOM     13  O   UNL     1       0.418  12.148  18.205  0.00  0.00    +0.000 OA
BRANCH  11  14
ATOM     14  C   UNL     1       0.686   9.805  19.318  0.00  0.00    +0.000 A 
ATOM     15  C   UNL     1       1.353   9.383  18.166  0.00  0.00    +0.000 A 
ATOM     16  C   UNL     1       2.122   8.214  18.197  0.00  0.00    +0.000 A 
ATOM     17  C   UNL     1       2.255   7.477  19.380  0.00  0.00    +0.000 A 
ATOM     18  C   UNL     1       1.585   7.903  20.529  0.00  0.00    +0.000 A 
ATOM     19  C   UNL     1       0.807   9.071  20.505  0.00  0.00    +0.000 A 
BRANCH  17  20
ATOM     20  O   UNL     1       3.019   6.351  19.276  0.00  0.00    +0.000 OA
ATOM     21  C   UNL     1       3.130   5.771  17.981  0.00  0.00    +0.000 C 
ENDBRANCH  17  20
ENDBRANCH  11  14
ENDBRANCH   3  11
BRANCH   1  22
ATOM     22  C   UNL     1       0.655  15.070  19.926  0.00  0.00    +0.000 C 
ATOM     23  O   UNL     1      -0.341  15.708  20.253  0.00  0.00    +0.000 OA
BRANCH  22  24
ATOM     24  O   UNL     1       1.106  14.994  18.645  0.00  0.00    +0.000 OA
BRANCH  24  26
ATOM     25  C   UNL     1       2.273  16.998  17.896  0.00  0.00    +0.000 C 
ATOM     26  C   UNL     1       2.403  15.591  18.455  0.00  0.00    +0.000 C 
ENDBRANCH  24  26
ENDBRANCH  22  24
ENDBRANCH   1  22
BRANCH   6  27
ATOM     27  C   UNL     1      -4.229  12.712  22.783  0.00  0.00    +0.000 C 
BRANCH  27  28
ATOM     28  C   UNL     1      -4.979  12.852  21.480  0.00  0.00    +0.000 C 
ATOM     29  O   UNL     1      -4.801  13.717  20.628  0.00  0.00    +0.000 OA
BRANCH  28  30
ATOM     30  O   UNL     1      -5.909  11.857  21.384  0.00  0.00    +0.000 OA
ATOM     31  C   UNL     1      -7.223  12.260  21.773  0.00  0.00    +0.000 C 
ENDBRANCH  28  30
ENDBRANCH  27  28
ENDBRANCH   6  27
TORSDOF 9
ENDMDL
MODEL 6
REMARK VINA RESULT:      -6.0      4.510     10.814
REMARK  Name = 
REMARK  12 active torsions:
REMARK  status: ('A' for Active; 'I' for Inactive)
REMARK    1  A    between atoms: C_1  and  C_2
REMARK    2  A    between atoms: C_2  and  O_3
REMARK    3  A    between atoms: O_3  and  C_4
REMARK    4  A    between atoms: C_4  and  C_6
REMARK    5  A    between atoms: N_8  and  S_9
REMARK    6  A    between atoms: S_9  and  C_12
REMARK    7  A    between atoms: C_15  and  O_16
REMARK    8  A    between atoms: O_16  and  C_17
REMARK    9  A    between atoms: C_22  and  C_23
REMARK   10  A    between atoms: C_23  and  C_24
REMARK   11  A    between atoms: C_24  and  O_26
REMARK   12  A    between atoms: O_26  and  C_27
REMARK                            x       y       z     vdW  Elec       q    Type
REMARK                         _______ _______ _______ _____ _____    ______ ____
ROOT
ATOM      1  C   UNL     1      -1.382  14.388  22.371  0.00  0.00    +0.000 C 
ATOM      2  C   UNL     1      -0.457  13.186  22.168  0.00  0.00    +0.000 C 
ATOM      3  N   UNL     1      -0.829  12.430  20.920  0.00  0.00    +0.000 N 
ATOM      4  C   UNL     1      -2.253  12.532  20.574  0.00  0.00    +0.000 A 
ATOM      5  C   UNL     1      -2.822  11.941  19.444  0.00  0.00    +0.000 A 
ATOM      6  C   UNL     1      -4.185  12.125  19.126  0.00  0.00    +0.000 A 
ATOM      7  C   UNL     1      -5.016  12.813  20.017  0.00  0.00    +0.000 A 
ATOM      8  C   UNL     1      -4.499  13.313  21.203  0.00  0.00    +0.000 A 
ATOM      9  C   UNL     1      -3.133  13.190  21.464  0.00  0.00    +0.000 A 
ATOM     10  O   UNL     1      -2.704  13.871  22.589  0.00  0.00    +0.000 OA
ENDROOT
BRANCH   3  11
ATOM     11  S   UNL     1       0.386  12.442  19.705  0.00  0.00    +0.000 S 
ATOM     12  O   UNL     1      -0.141  12.810  18.407  0.00  0.00    +0.000 OA
ATOM     13  O   UNL     1       1.546  13.134  20.230  0.00  0.00    +0.000 OA
BRANCH  11  14
ATOM     14  C   UNL     1       0.844  10.710  19.573  0.00  0.00    +0.000 A 
ATOM     15  C   UNL     1       1.442  10.256  18.396  0.00  0.00    +0.000 A 
ATOM     16  C   UNL     1       1.930   8.946  18.325  0.00  0.00    +0.000 A 
ATOM     17  C   UNL     1       1.853   8.093  19.432  0.00  0.00    +0.000 A 
ATOM     18  C   UNL     1       1.252   8.552  20.607  0.00  0.00    +0.000 A 
ATOM     19  C   UNL     1       0.755   9.862  20.685  0.00  0.00    +0.000 A 
BRANCH  17  20
ATOM     20  O   UNL     1       2.350   6.838  19.231  0.00  0.00    +0.000 OA
ATOM     21  C   UNL     1       3.135   6.642  18.060  0.00  0.00    +0.000 C 
ENDBRANCH  17  20
ENDBRANCH  11  14
ENDBRANCH   3  11
BRANCH   1  22
ATOM     22  C   UNL     1      -1.375  15.447  21.249  0.00  0.00    +0.000 C 
ATOM     23  O   UNL     1      -0.443  15.626  20.472  0.00  0.00    +0.000 OA
BRANCH  22  24
ATOM     24  O   UNL     1      -2.546  16.138  21.184  0.00  0.00    +0.000 OA
BRANCH  24  26
ATOM     25  C   UNL     1      -3.142  17.725  19.433  0.00  0.00    +0.000 C 
ATOM     26  C   UNL     1      -2.388  17.497  20.733  0.00  0.00    +0.000 C 
ENDBRANCH  24  26
ENDBRANCH  22  24
ENDBRANCH   1  22
BRANCH   6  27
ATOM     27  C   UNL     1      -4.733  11.656  17.795  0.00  0.00    +0.000 C 
BRANCH  27  28
ATOM     28  C   UNL     1      -3.843  10.699  17.039  0.00  0.00    +0.000 C 
ATOM     29  O   UNL     1      -3.400   9.634  17.458  0.00  0.00    +0.000 OA
BRANCH  28  30
ATOM     30  O   UNL     1      -3.591  11.202  15.795  0.00  0.00    +0.000 OA
ATOM     31  C   UNL     1      -2.907  10.289  14.934  0.00  0.00    +0.000 C 
ENDBRANCH  28  30
ENDBRANCH  27  28
ENDBRANCH   6  27
TORSDOF 9
ENDMDL
MODEL 7
REMARK VINA RESULT:      -5.9      7.036     10.936
REMARK  Name = 
REMARK  12 active torsions:
REMARK  status: ('A' for Active; 'I' for Inactive)
REMARK    1  A    between atoms: C_1  and  C_2
REMARK    2  A    between atoms: C_2  and  O_3
REMARK    3  A    between atoms: O_3  and  C_4
REMARK    4  A    between atoms: C_4  and  C_6
REMARK    5  A    between atoms: N_8  and  S_9
REMARK    6  A    between atoms: S_9  and  C_12
REMARK    7  A    between atoms: C_15  and  O_16
REMARK    8  A    between atoms: O_16  and  C_17
REMARK    9  A    between atoms: C_22  and  C_23
REMARK   10  A    between atoms: C_23  and  C_24
REMARK   11  A    between atoms: C_24  and  O_26
REMARK   12  A    between atoms: O_26  and  C_27
REMARK                            x       y       z     vdW  Elec       q    Type
REMARK                         _______ _______ _______ _____ _____    ______ ____
ROOT
ATOM      1  C   UNL     1       0.544  12.005  19.521  0.00  0.00    +0.000 C 
ATOM      2  C   UNL     1       0.386  13.330  20.271  0.00  0.00    +0.000 C 
ATOM      3  N   UNL     1      -1.030  13.505  20.755  0.00  0.00    +0.000 N 
ATOM      4  C   UNL     1      -2.025  12.829  19.913  0.00  0.00    +0.000 A 
ATOM      5  C   UNL     1      -3.396  12.825  20.183  0.00  0.00    +0.000 A 
ATOM      6  C   UNL     1      -4.301  12.105  19.374  0.00  0.00    +0.000 A 
ATOM      7  C   UNL     1      -3.842  11.477  18.211  0.00  0.00    +0.000 A 
ATOM      8  C   UNL     1      -2.502  11.560  17.860  0.00  0.00    +0.000 A 
ATOM      9  C   UNL     1      -1.607  12.211  18.711  0.00  0.00    +0.000 A 
ATOM     10  O   UNL     1      -0.279  12.085  18.347  0.00  0.00    +0.000 OA
ENDROOT
BRANCH   3  11
ATOM     11  S   UNL     1      -1.186  13.541  22.466  0.00  0.00    +0.000 S 
ATOM     12  O   UNL     1      -1.709  12.298  22.994  0.00  0.00    +0.000 OA
ATOM     13  O   UNL     1       0.031  14.100  23.021  0.00  0.00    +0.000 OA
BRANCH  11  14
ATOM     14  C   UNL     1      -2.474  14.765  22.729  0.00  0.00    +0.000 A 
ATOM     15  C   UNL     1      -3.536  14.457  23.582  0.00  0.00    +0.000 A 
ATOM     16  C   UNL     1      -4.474  15.444  23.907  0.00  0.00    +0.000 A 
ATOM     17  C   UNL     1      -4.344  16.746  23.410  0.00  0.00    +0.000 A 
ATOM     18  C   UNL     1      -3.280  17.047  22.556  0.00  0.00    +0.000 A 
ATOM     19  C   UNL     1      -2.338  16.063  22.220  0.00  0.00    +0.000 A 
BRANCH  17  20
ATOM     20  O   UNL     1      -5.330  17.610  23.788  0.00  0.00    +0.000 OA
ATOM     21  C   UNL     1      -5.676  18.630  22.858  0.00  0.00    +0.000 C 
ENDBRANCH  17  20
ENDBRANCH  11  14
ENDBRANCH   3  11
BRANCH   1  22
ATOM     22  C   UNL     1       0.241  10.727  20.328  0.00  0.00    +0.000 C 
ATOM     23  O   UNL     1      -0.419   9.782  19.905  0.00  0.00    +0.000 OA
BRANCH  22  24
ATOM     24  O   UNL     1       0.828  10.738  21.555  0.00  0.00    +0.000 OA
BRANCH  24  26
ATOM     25  C   UNL     1      -0.029   9.400  23.403  0.00  0.00    +0.000 C 
ATOM     26  C   UNL     1       0.876   9.442  22.183  0.00  0.00    +0.000 C 
ENDBRANCH  24  26
ENDBRANCH  22  24
ENDBRANCH   1  22
BRANCH   6  27
ATOM     27  C   UNL     1      -5.745  11.939  19.798  0.00  0.00    +0.000 C 
BRANCH  27  28
ATOM     28  C   UNL     1      -6.582  11.072  18.888  0.00  0.00    +0.000 C 
ATOM     29  O   UNL     1      -6.740   9.859  18.982  0.00  0.00    +0.000 OA
BRANCH  28  30
ATOM     30  O   UNL     1      -7.148  11.849  17.918  0.00  0.00    +0.000 OA
ATOM     31  C   UNL     1      -7.707  13.068  18.412  0.00  0.00    +0.000 C 
ENDBRANCH  28  30
ENDBRANCH  27  28
ENDBRANCH   6  27
TORSDOF 9
ENDMDL
MODEL 8
REMARK VINA RESULT:      -5.9      6.781     10.633
REMARK  Name = 
REMARK  12 active torsions:
REMARK  status: ('A' for Active; 'I' for Inactive)
REMARK    1  A    between atoms: C_1  and  C_2
REMARK    2  A    between atoms: C_2  and  O_3
REMARK    3  A    between atoms: O_3  and  C_4
REMARK    4  A    between atoms: C_4  and  C_6
REMARK    5  A    between atoms: N_8  and  S_9
REMARK    6  A    between atoms: S_9  and  C_12
REMARK    7  A    between atoms: C_15  and  O_16
REMARK    8  A    between atoms: O_16  and  C_17
REMARK    9  A    between atoms: C_22  and  C_23
REMARK   10  A    between atoms: C_23  and  C_24
REMARK   11  A    between atoms: C_24  and  O_26
REMARK   12  A    between atoms: O_26  and  C_27
REMARK                            x       y       z     vdW  Elec       q    Type
REMARK                         _______ _______ _______ _____ _____    ______ ____
ROOT
ATOM      1  C   UNL     1       0.797  12.380  19.746  0.00  0.00    +0.000 C 
ATOM      2  C   UNL     1       0.261  13.445  20.706  0.00  0.00    +0.000 C 
ATOM      3  N   UNL     1      -1.212  13.251  20.952  0.00  0.00    +0.000 N 
ATOM      4  C   UNL     1      -1.917  12.626  19.825  0.00  0.00    +0.000 A 
ATOM      5  C   UNL     1      -3.280  12.318  19.837  0.00  0.00    +0.000 A 
ATOM      6  C   UNL     1      -3.893  11.659  18.750  0.00  0.00    +0.000 A 
ATOM      7  C   UNL     1      -3.156  11.409  17.587  0.00  0.00    +0.000 A 
ATOM      8  C   UNL     1      -1.829  11.806  17.508  0.00  0.00    +0.000 A 
ATOM      9  C   UNL     1      -1.217  12.387  18.620  0.00  0.00    +0.000 A 
ATOM     10  O   UNL     1       0.145  12.585  18.483  0.00  0.00    +0.000 OA
ENDROOT
BRANCH   3  11
ATOM     11  S   UNL     1      -1.606  12.860  22.578  0.00  0.00    +0.000 S 
ATOM     12  O   UNL     1      -1.892  11.450  22.748  0.00  0.00    +0.000 OA
ATOM     13  O   UNL     1      -0.641  13.506  23.446  0.00  0.00    +0.000 OA
BRANCH  11  14
ATOM     14  C   UNL     1      -3.168  13.710  22.832  0.00  0.00    +0.000 A 
ATOM     15  C   UNL     1      -3.302  15.026  22.384  0.00  0.00    +0.000 A 
ATOM     16  C   UNL     1      -4.550  15.658  22.448  0.00  0.00    +0.000 A 
ATOM     17  C   UNL     1      -5.673  14.975  22.929  0.00  0.00    +0.000 A 
ATOM     18  C   UNL     1      -5.532  13.660  23.378  0.00  0.00    +0.000 A 
ATOM     19  C   UNL     1      -4.283  13.021  23.323  0.00  0.00    +0.000 A 
BRANCH  17  20
ATOM     20  O   UNL     1      -6.826  15.705  22.955  0.00  0.00    +0.000 OA
ATOM     21  C   UNL     1      -7.911  15.158  23.696  0.00  0.00    +0.000 C 
ENDBRANCH  17  20
ENDBRANCH  11  14
ENDBRANCH   3  11
BRANCH   1  22
ATOM     22  C   UNL     1       0.662  10.916  20.212  0.00  0.00    +0.000 C 
ATOM     23  O   UNL     1       0.323   9.987  19.484  0.00  0.00    +0.000 OA
BRANCH  22  24
ATOM     24  O   UNL     1       1.009  10.754  21.517  0.00  0.00    +0.000 OA
BRANCH  24  26
ATOM     25  C   UNL     1      -0.114   8.950  22.710  0.00  0.00    +0.000 C 
ATOM     26  C   UNL     1       1.112   9.374  21.919  0.00  0.00    +0.000 C 
ENDBRANCH  24  26
ENDBRANCH  22  24
ENDBRANCH   1  22
BRANCH   6  27
ATOM     27  C   UNL     1      -5.314  11.148  18.864  0.00  0.00    +0.000 C 
BRANCH  27  28
ATOM     28  C   UNL     1      -6.362  12.216  19.064  0.00  0.00    +0.000 C 
ATOM     29  O   UNL     1      -6.502  12.919  20.060  0.00  0.00    +0.000 OA
BRANCH  28  30
ATOM     30  O   UNL     1      -7.155  12.286  17.955  0.00  0.00    +0.000 OA
ATOM     31  C   UNL     1      -6.721  13.254  16.999  0.00  0.00    +0.000 C 
ENDBRANCH  28  30
ENDBRANCH  27  28
ENDBRANCH   6  27
TORSDOF 9
ENDMDL
MODEL 9
REMARK VINA RESULT:      -5.9      6.176     10.980
REMARK  Name = 
REMARK  12 active torsions:
REMARK  status: ('A' for Active; 'I' for Inactive)
REMARK    1  A    between atoms: C_1  and  C_2
REMARK    2  A    between atoms: C_2  and  O_3
REMARK    3  A    between atoms: O_3  and  C_4
REMARK    4  A    between atoms: C_4  and  C_6
REMARK    5  A    between atoms: N_8  and  S_9
REMARK    6  A    between atoms: S_9  and  C_12
REMARK    7  A    between atoms: C_15  and  O_16
REMARK    8  A    between atoms: O_16  and  C_17
REMARK    9  A    between atoms: C_22  and  C_23
REMARK   10  A    between atoms: C_23  and  C_24
REMARK   11  A    between atoms: C_24  and  O_26
REMARK   12  A    between atoms: O_26  and  C_27
REMARK                            x       y       z     vdW  Elec       q    Type
REMARK                         _______ _______ _______ _____ _____    ______ ____
ROOT
ATOM      1  C   UNL     1       0.164  12.263  20.049  0.00  0.00    +0.000 C 
ATOM      2  C   UNL     1      -0.381  13.450  20.846  0.00  0.00    +0.000 C 
ATOM      3  N   UNL     1      -1.879  13.363  20.977  0.00  0.00    +0.000 N 
ATOM      4  C   UNL     1      -2.526  12.662  19.860  0.00  0.00    +0.000 A 
ATOM      5  C   UNL     1      -3.901  12.432  19.780  0.00  0.00    +0.000 A 
ATOM      6  C   UNL     1      -4.463  11.697  18.713  0.00  0.00    +0.000 A 
ATOM      7  C   UNL     1      -3.648  11.287  17.652  0.00  0.00    +0.000 A 
ATOM      8  C   UNL     1      -2.296  11.601  17.653  0.00  0.00    +0.000 A 
ATOM      9  C   UNL     1      -1.744  12.261  18.751  0.00  0.00    +0.000 A 
ATOM     10  O   UNL     1      -0.366  12.369  18.718  0.00  0.00    +0.000 OA
ENDROOT
BRANCH   3  11
ATOM     11  S   UNL     1      -2.431  13.167  22.592  0.00  0.00    +0.000 S 
ATOM     12  O   UNL     1      -3.244  11.979  22.752  0.00  0.00    +0.000 OA
ATOM     13  O   UNL     1      -1.312  13.396  23.485  0.00  0.00    +0.000 OA
BRANCH  11  14
ATOM     14  C   UNL     1      -3.548  14.557  22.810  0.00  0.00    +0.000 A 
ATOM     15  C   UNL     1      -3.391  15.684  22.001  0.00  0.00    +0.000 A 
ATOM     16  C   UNL     1      -4.333  16.718  22.059  0.00  0.00    +0.000 A 
ATOM     17  C   UNL     1      -5.449  16.622  22.899  0.00  0.00    +0.000 A 
ATOM     18  C   UNL     1      -5.599  15.493  23.708  0.00  0.00    +0.000 A 
ATOM     19  C   UNL     1      -4.657  14.454  23.659  0.00  0.00    +0.000 A 
BRANCH  17  20
ATOM     20  O   UNL     1      -6.284  17.701  22.877  0.00  0.00    +0.000 OA
ATOM     21  C   UNL     1      -7.653  17.454  23.178  0.00  0.00    +0.000 C 
ENDBRANCH  17  20
ENDBRANCH  11  14
ENDBRANCH   3  11
BRANCH   1  22
ATOM     22  C   UNL     1      -0.101  10.865  20.644  0.00  0.00    +0.000 C 
ATOM     23  O   UNL     1      -0.330  10.651  21.831  0.00  0.00    +0.000 OA
BRANCH  22  24
ATOM     24  O   UNL     1      -0.102   9.890  19.695  0.00  0.00    +0.000 OA
BRANCH  24  26
ATOM     25  C   UNL     1       1.505   9.176  18.008  0.00  0.00    +0.000 C 
ATOM     26  C   UNL     1       1.189   9.285  19.491  0.00  0.00    +0.000 C 
ENDBRANCH  24  26
ENDBRANCH  22  24
ENDBRANCH   1  22
BRANCH   6  27
ATOM     27  C   UNL     1      -5.917  11.279  18.750  0.00  0.00    +0.000 C 
BRANCH  27  28
ATOM     28  C   UNL     1      -6.905  12.374  18.428  0.00  0.00    +0.000 C 
ATOM     29  O   UNL     1      -7.679  12.909  19.216  0.00  0.00    +0.000 OA
BRANCH  28  30
ATOM     30  O   UNL     1      -6.816  12.689  17.103  0.00  0.00    +0.000 OA
ATOM     31  C   UNL     1      -6.828  14.095  16.845  0.00  0.00    +0.000 C 
ENDBRANCH  28  30
ENDBRANCH  27  28
ENDBRANCH   6  27
TORSDOF 9
ENDMDL
