MODEL 1
REMARK VINA RESULT:      -8.1      0.000      0.000
REMARK  Name = 
REMARK  2 active torsions:
REMARK  status: ('A' for Active; 'I' for Inactive)
REMARK    1  A    between atoms: C_1  and  S_2
REMARK    2  A    between atoms: S_2  and  N_5
REMARK                            x       y       z     vdW  Elec       q    Type
REMARK                         _______ _______ _______ _____ _____    ______ ____
ROOT
ATOM      1  N   UNL     1      -0.217  11.931  20.273  0.00  0.00    +0.000 NA
ATOM      2  C   UNL     1      -1.470  12.504  19.587  0.00  0.00    +0.000 C 
ATOM      3  C   UNL     1      -1.535  12.046  18.156  0.00  0.00    +0.000 C 
ATOM      4  C   UNL     1      -1.788  10.549  18.152  0.00  0.00    +0.000 C 
ATOM      5  C   UNL     1      -0.709   9.794  18.945  0.00  0.00    +0.000 C 
ATOM      6  C   UNL     1       0.561   9.676  18.084  0.00  0.00    +0.000 C 
ATOM      7  N   UNL     1       1.779   9.282  18.760  0.00  0.00    +0.000 NA
ATOM      8  C   UNL     1       2.777   8.646  17.874  0.00  0.00    +0.000 C 
ATOM      9  C   UNL     1       2.713   7.109  17.729  0.00  0.00    +0.000 C 
ATOM     10  C   UNL     1       2.362   6.470  19.021  0.00  0.00    +0.000 A 
ATOM     11  C   UNL     1       1.804   7.199  20.073  0.00  0.00    +0.000 A 
ATOM     12  N   UNL     1       1.608   6.289  21.091  0.00  0.00    +0.000 N 
ATOM     13  C   UNL     1       2.080   5.028  20.733  0.00  0.00    +0.000 A 
ATOM     14  C   UNL     1       2.127   3.817  21.451  0.00  0.00    +0.000 A 
ATOM     15  C   UNL     1       2.733   2.701  20.840  0.00  0.00    +0.000 A 
ATOM     16  C   UNL     1       3.265   2.790  19.561  0.00  0.00    +0.000 A 
ATOM     17  C   UNL     1       3.193   3.990  18.848  0.00  0.00    +0.000 A 
ATOM     18  C   UNL     1       2.585   5.127  19.437  0.00  0.00    +0.000 A 
ATOM     19  C   UNL     1       1.697   8.738  20.114  0.00  0.00    +0.000 C 
ATOM     20  C   UNL     1       0.611   9.419  21.015  0.00  0.00    +0.000 C 
ATOM     21  C   UNL     1      -0.431  10.378  20.360  0.00  0.00    +0.000 C 
ATOM     22  H   UNL     1       1.236   6.496  22.006  0.00  0.00    +0.000 HD
ENDROOT
BRANCH   1  24
ATOM     23  C   UNL     1      -1.170  14.311  21.522  0.00  0.00    +0.000 C 
ATOM     24  S   UNL     1      -0.025  12.974  21.643  0.00  0.00    +0.000 S 
ATOM     25  O   UNL     1       1.317  13.509  21.595  0.00  0.00    +0.000 OA
ATOM     26  O   UNL     1      -0.449  12.216  22.817  0.00  0.00    +0.000 OA
ENDBRANCH   1  24
TORSDOF 1
ENDMDL
MODEL 2
REMARK VINA RESULT:      -8.0      5.657      7.915
REMARK  Name = 
REMARK  2 active torsions:
REMARK  status: ('A' for Active; 'I' for Inactive)
REMARK    1  A    between atoms: C_1  and  S_2
REMARK    2  A    between atoms: S_2  and  N_5
REMARK                            x       y       z     vdW  Elec       q    Type
REMARK                         _______ _______ _______ _____ _____    ______ ____
ROOT
ATOM      1  N   UNL     1       2.781   4.332  20.267  0.00  0.00    +0.000 NA
ATOM      2  C   UNL     1       1.709   5.319  20.765  0.00  0.00    +0.000 C 
ATOM      3  C   UNL     1       2.162   6.736  20.541  0.00  0.00    +0.000 C 
ATOM      4  C   UNL     1       2.199   6.986  19.045  0.00  0.00    +0.000 C 
ATOM      5  C   UNL     1       3.108   5.976  18.327  0.00  0.00    +0.000 C 
ATOM      6  C   UNL     1       4.577   6.387  18.526  0.00  0.00    +0.000 C 
ATOM      7  N   UNL     1       5.586   5.402  18.199  0.00  0.00    +0.000 NA
ATOM      8  C   UNL     1       6.903   5.982  17.859  0.00  0.00    +0.000 C 
ATOM      9  C   UNL     1       7.166   6.309  16.372  0.00  0.00    +0.000 C 
ATOM     10  C   UNL     1       6.564   5.279  15.489  0.00  0.00    +0.000 A 
ATOM     11  C   UNL     1       5.593   4.389  15.954  0.00  0.00    +0.000 A 
ATOM     12  N   UNL     1       5.269   3.597  14.873  0.00  0.00    +0.000 N 
ATOM     13  C   UNL     1       6.048   3.919  13.763  0.00  0.00    +0.000 A 
ATOM     14  C   UNL     1       6.096   3.363  12.471  0.00  0.00    +0.000 A 
ATOM     15  C   UNL     1       7.049   3.865  11.563  0.00  0.00    +0.000 A 
ATOM     16  C   UNL     1       7.917   4.885  11.930  0.00  0.00    +0.000 A 
ATOM     17  C   UNL     1       7.845   5.446  13.208  0.00  0.00    +0.000 A 
ATOM     18  C   UNL     1       6.892   4.964  14.141  0.00  0.00    +0.000 A 
ATOM     19  C   UNL     1       5.201   4.215  17.437  0.00  0.00    +0.000 C 
ATOM     20  C   UNL     1       3.790   3.645  17.806  0.00  0.00    +0.000 C 
ATOM     21  C   UNL     1       2.837   4.491  18.706  0.00  0.00    +0.000 C 
ATOM     22  H   UNL     1       4.608   2.834  14.876  0.00  0.00    +0.000 HD
ENDROOT
BRANCH   1  24
ATOM     23  C   UNL     1       1.521   1.791  19.970  0.00  0.00    +0.000 C 
ATOM     24  S   UNL     1       2.359   2.867  21.090  0.00  0.00    +0.000 S 
ATOM     25  O   UNL     1       1.452   3.217  22.160  0.00  0.00    +0.000 OA
ATOM     26  O   UNL     1       3.609   2.183  21.410  0.00  0.00    +0.000 OA
ENDBRANCH   1  24
TORSDOF 1
ENDMDL
MODEL 3
REMARK VINA RESULT:      -7.2      4.124      7.814
REMARK  Name = 
REMARK  2 active torsions:
REMARK  status: ('A' for Active; 'I' for Inactive)
REMARK    1  A    between atoms: C_1  and  S_2
REMARK    2  A    between atoms: S_2  and  N_5
REMARK                            x       y       z     vdW  Elec       q    Type
REMARK                         _______ _______ _______ _____ _____    ______ ____
ROOT
ATOM      1  N   UNL     1       4.541   5.308  17.677  0.00  0.00    +0.000 NA
ATOM      2  C   UNL     1       4.217   3.872  17.226  0.00  0.00    +0.000 C 
ATOM      3  C   UNL     1       3.135   3.287  18.092  0.00  0.00    +0.000 C 
ATOM      4  C   UNL     1       1.849   4.041  17.810  0.00  0.00    +0.000 C 
ATOM      5  C   UNL     1       2.016   5.550  18.048  0.00  0.00    +0.000 C 
ATOM      6  C   UNL     1       1.961   5.832  19.560  0.00  0.00    +0.000 C 
ATOM      7  N   UNL     1       2.409   7.136  20.002  0.00  0.00    +0.000 NA
ATOM      8  C   UNL     1       1.831   7.563  21.294  0.00  0.00    +0.000 C 
ATOM      9  C   UNL     1       0.510   8.364  21.243  0.00  0.00    +0.000 C 
ATOM     10  C   UNL     1       0.500   9.295  20.088  0.00  0.00    +0.000 A 
ATOM     11  C   UNL     1       1.392   9.153  19.022  0.00  0.00    +0.000 A 
ATOM     12  N   UNL     1       1.088  10.175  18.147  0.00  0.00    +0.000 N 
ATOM     13  C   UNL     1       0.077  10.987  18.656  0.00  0.00    +0.000 A 
ATOM     14  C   UNL     1      -0.525  12.152  18.142  0.00  0.00    +0.000 A 
ATOM     15  C   UNL     1      -1.494  12.806  18.927  0.00  0.00    +0.000 A 
ATOM     16  C   UNL     1      -1.852  12.313  20.175  0.00  0.00    +0.000 A 
ATOM     17  C   UNL     1      -1.266  11.144  20.667  0.00  0.00    +0.000 A 
ATOM     18  C   UNL     1      -0.290  10.463  19.896  0.00  0.00    +0.000 A 
ATOM     19  C   UNL     1       2.602   8.195  19.013  0.00  0.00    +0.000 C 
ATOM     20  C   UNL     1       3.192   7.700  17.649  0.00  0.00    +0.000 C 
ATOM     21  C   UNL     1       3.267   6.169  17.361  0.00  0.00    +0.000 C 
ATOM     22  H   UNL     1       1.563  10.370  17.278  0.00  0.00    +0.000 HD
ENDROOT
BRANCH   1  24
ATOM     23  C   UNL     1       7.190   6.216  18.223  0.00  0.00    +0.000 C 
ATOM     24  S   UNL     1       6.106   5.579  16.984  0.00  0.00    +0.000 S 
ATOM     25  O   UNL     1       5.954   6.574  15.947  0.00  0.00    +0.000 OA
ATOM     26  O   UNL     1       6.652   4.269  16.641  0.00  0.00    +0.000 OA
ENDBRANCH   1  24
TORSDOF 1
ENDMDL
MODEL 4
REMARK VINA RESULT:      -7.2      4.052      7.919
REMARK  Name = 
REMARK  2 active torsions:
REMARK  status: ('A' for Active; 'I' for Inactive)
REMARK    1  A    between atoms: C_1  and  S_2
REMARK    2  A    between atoms: S_2  and  N_5
REMARK                            x       y       z     vdW  Elec       q    Type
REMARK                         _______ _______ _______ _____ _____    ______ ____
ROOT
ATOM      1  N   UNL     1       4.429   4.866  17.909  0.00  0.00    +0.000 NA
ATOM      2  C   UNL     1       4.012   3.457  17.449  0.00  0.00    +0.000 C 
ATOM      3  C   UNL     1       2.835   2.975  18.252  0.00  0.00    +0.000 C 
ATOM      4  C   UNL     1       1.636   3.830  17.888  0.00  0.00    +0.000 C 
ATOM      5  C   UNL     1       1.916   5.323  18.126  0.00  0.00    +0.000 C 
ATOM      6  C   UNL     1       1.795   5.627  19.629  0.00  0.00    +0.000 C 
ATOM      7  N   UNL     1       2.324   6.893  20.088  0.00  0.00    +0.000 NA
ATOM      8  C   UNL     1       1.708   7.382  21.341  0.00  0.00    +0.000 C 
ATOM      9  C   UNL     1       0.465   8.290  21.206  0.00  0.00    +0.000 C 
ATOM     10  C   UNL     1       0.602   9.205  20.046  0.00  0.00    +0.000 A 
ATOM     11  C   UNL     1       1.540   8.977  19.037  0.00  0.00    +0.000 A 
ATOM     12  N   UNL     1       1.376  10.010  18.138  0.00  0.00    +0.000 N 
ATOM     13  C   UNL     1       0.409  10.910  18.580  0.00  0.00    +0.000 A 
ATOM     14  C   UNL     1      -0.061  12.115  18.023  0.00  0.00    +0.000 A 
ATOM     15  C   UNL     1      -1.017  12.857  18.744  0.00  0.00    +0.000 A 
ATOM     16  C   UNL     1      -1.488  12.410  19.971  0.00  0.00    +0.000 A 
ATOM     17  C   UNL     1      -1.033  11.202  20.505  0.00  0.00    +0.000 A 
ATOM     18  C   UNL     1      -0.074  10.433  19.799  0.00  0.00    +0.000 A 
ATOM     19  C   UNL     1       2.664   7.921  19.107  0.00  0.00    +0.000 C 
ATOM     20  C   UNL     1       3.290   7.363  17.784  0.00  0.00    +0.000 C 
ATOM     21  C   UNL     1       3.253   5.827  17.511  0.00  0.00    +0.000 C 
ATOM     22  H   UNL     1       1.917  10.154  17.298  0.00  0.00    +0.000 HD
ENDROOT
BRANCH   1  24
ATOM     23  C   UNL     1       6.178   4.118  15.784  0.00  0.00    +0.000 C 
ATOM     24  S   UNL     1       6.049   4.997  17.309  0.00  0.00    +0.000 S 
ATOM     25  O   UNL     1       6.921   4.372  18.278  0.00  0.00    +0.000 OA
ATOM     26  O   UNL     1       6.262   6.398  16.958  0.00  0.00    +0.000 OA
ENDBRANCH   1  24
TORSDOF 1
ENDMDL
MODEL 5
REMARK VINA RESULT:      -7.1      4.049      7.800
REMARK  Name = 
REMARK  2 active torsions:
REMARK  status: ('A' for Active; 'I' for Inactive)
REMARK    1  A    between atoms: C_1  and  S_2
REMARK    2  A    between atoms: S_2  and  N_5
REMARK                            x       y       z     vdW  Elec       q    Type
REMARK                         _______ _______ _______ _____ _____    ______ ____
ROOT
ATOM      1  N   UNL     1       4.096   4.933  18.503  0.00  0.00    +0.000 NA
ATOM      2  C   UNL     1       3.785   3.426  18.542  0.00  0.00    +0.000 C 
ATOM      3  C   UNL     1       2.859   3.115  19.685  0.00  0.00    +0.000 C 
ATOM      4  C   UNL     1       1.512   3.742  19.382  0.00  0.00    +0.000 C 
ATOM      5  C   UNL     1       1.635   5.256  19.143  0.00  0.00    +0.000 C 
ATOM      6  C   UNL     1       1.768   5.973  20.498  0.00  0.00    +0.000 C 
ATOM      7  N   UNL     1       2.207   7.351  20.471  0.00  0.00    +0.000 NA
ATOM      8  C   UNL     1       1.787   8.138  21.651  0.00  0.00    +0.000 C 
ATOM      9  C   UNL     1       0.434   8.878  21.557  0.00  0.00    +0.000 C 
ATOM     10  C   UNL     1       0.223   9.425  20.194  0.00  0.00    +0.000 A 
ATOM     11  C   UNL     1       0.970   8.981  19.101  0.00  0.00    +0.000 A 
ATOM     12  N   UNL     1       0.502   9.696  18.018  0.00  0.00    +0.000 N 
ATOM     13  C   UNL     1      -0.470  10.615  18.406  0.00  0.00    +0.000 A 
ATOM     14  C   UNL     1      -1.192  11.570  17.665  0.00  0.00    +0.000 A 
ATOM     15  C   UNL     1      -2.078  12.420  18.355  0.00  0.00    +0.000 A 
ATOM     16  C   UNL     1      -2.241  12.317  19.730  0.00  0.00    +0.000 A 
ATOM     17  C   UNL     1      -1.538  11.350  20.454  0.00  0.00    +0.000 A 
ATOM     18  C   UNL     1      -0.642  10.478  19.784  0.00  0.00    +0.000 A 
ATOM     19  C   UNL     1       2.214   8.073  19.200  0.00  0.00    +0.000 C 
ATOM     20  C   UNL     1       2.640   7.201  17.970  0.00  0.00    +0.000 C 
ATOM     21  C   UNL     1       2.750   5.653  18.134  0.00  0.00    +0.000 C 
ATOM     22  H   UNL     1       0.847   9.628  17.072  0.00  0.00    +0.000 HD
ENDROOT
BRANCH   1  24
ATOM     23  C   UNL     1       6.034   6.682  17.351  0.00  0.00    +0.000 C 
ATOM     24  S   UNL     1       5.539   4.998  17.545  0.00  0.00    +0.000 S 
ATOM     25  O   UNL     1       5.219   4.458  16.243  0.00  0.00    +0.000 OA
ATOM     26  O   UNL     1       6.601   4.380  18.333  0.00  0.00    +0.000 OA
ENDBRANCH   1  24
TORSDOF 1
ENDMDL
MODEL 6
REMARK VINA RESULT:      -7.0      4.544      7.813
REMARK  Name = 
REMARK  2 active torsions:
REMARK  status: ('A' for Active; 'I' for Inactive)
REMARK    1  A    between atoms: C_1  and  S_2
REMARK    2  A    between atoms: S_2  and  N_5
REMARK                            x       y       z     vdW  Elec       q    Type
REMARK                         _______ _______ _______ _____ _____    ______ ____
ROOT
ATOM      1  N   UNL     1       3.614   3.714  18.494  0.00  0.00    +0.000 NA
ATOM      2  C   UNL     1       5.113   3.370  18.444  0.00  0.00    +0.000 C 
ATOM      3  C   UNL     1       5.905   4.560  17.977  0.00  0.00    +0.000 C 
ATOM      4  C   UNL     1       5.827   5.627  19.052  0.00  0.00    +0.000 C 
ATOM      5  C   UNL     1       4.371   6.001  19.371  0.00  0.00    +0.000 C 
ATOM      6  C   UNL     1       3.836   6.936  18.273  0.00  0.00    +0.000 C 
ATOM      7  N   UNL     1       2.404   7.142  18.225  0.00  0.00    +0.000 NA
ATOM      8  C   UNL     1       2.003   8.414  17.587  0.00  0.00    +0.000 C 
ATOM      9  C   UNL     1       1.850   9.646  18.506  0.00  0.00    +0.000 C 
ATOM     10  C   UNL     1       1.264   9.261  19.814  0.00  0.00    +0.000 A 
ATOM     11  C   UNL     1       1.236   7.933  20.244  0.00  0.00    +0.000 A 
ATOM     12  N   UNL     1       0.634   7.958  21.484  0.00  0.00    +0.000 N 
ATOM     13  C   UNL     1       0.229   9.248  21.819  0.00  0.00    +0.000 A 
ATOM     14  C   UNL     1      -0.450   9.743  22.949  0.00  0.00    +0.000 A 
ATOM     15  C   UNL     1      -0.788  11.110  22.980  0.00  0.00    +0.000 A 
ATOM     16  C   UNL     1      -0.456  11.951  21.925  0.00  0.00    +0.000 A 
ATOM     17  C   UNL     1       0.238  11.455  20.819  0.00  0.00    +0.000 A 
ATOM     18  C   UNL     1       0.594  10.083  20.763  0.00  0.00    +0.000 A 
ATOM     19  C   UNL     1       1.585   6.718  19.359  0.00  0.00    +0.000 C 
ATOM     20  C   UNL     1       2.057   5.380  20.025  0.00  0.00    +0.000 C 
ATOM     21  C   UNL     1       3.442   4.780  19.634  0.00  0.00    +0.000 C 
ATOM     22  H   UNL     1       0.440   7.154  22.064  0.00  0.00    +0.000 HD
ENDROOT
BRANCH   1  24
ATOM     23  C   UNL     1       1.777   2.024  19.874  0.00  0.00    +0.000 C 
ATOM     24  S   UNL     1       2.865   2.151  18.491  0.00  0.00    +0.000 S 
ATOM     25  O   UNL     1       3.915   1.168  18.637  0.00  0.00    +0.000 OA
ATOM     26  O   UNL     1       1.996   2.097  17.319  0.00  0.00    +0.000 OA
ENDBRANCH   1  24
TORSDOF 1
ENDMDL
MODEL 7
REMARK VINA RESULT:      -6.8      2.754      4.935
REMARK  Name = 
REMARK  2 active torsions:
REMARK  status: ('A' for Active; 'I' for Inactive)
REMARK    1  A    between atoms: C_1  and  S_2
REMARK    2  A    between atoms: S_2  and  N_5
REMARK                            x       y       z     vdW  Elec       q    Type
REMARK                         _______ _______ _______ _____ _____    ______ ____
ROOT
ATOM      1  N   UNL     1      -2.832  14.467  23.472  0.00  0.00    +0.000 NA
ATOM      2  C   UNL     1      -4.360  14.624  23.572  0.00  0.00    +0.000 C 
ATOM      3  C   UNL     1      -4.983  14.531  22.206  0.00  0.00    +0.000 C 
ATOM      4  C   UNL     1      -4.809  13.109  21.707  0.00  0.00    +0.000 C 
ATOM      5  C   UNL     1      -3.329  12.694  21.689  0.00  0.00    +0.000 C 
ATOM      6  C   UNL     1      -2.647  13.310  20.455  0.00  0.00    +0.000 C 
ATOM      7  N   UNL     1      -1.200  13.298  20.430  0.00  0.00    +0.000 NA
ATOM      8  C   UNL     1      -0.623  13.352  19.069  0.00  0.00    +0.000 C 
ATOM      9  C   UNL     1      -0.349  12.004  18.366  0.00  0.00    +0.000 C 
ATOM     10  C   UNL     1       0.141  10.992  19.334  0.00  0.00    +0.000 A 
ATOM     11  C   UNL     1      -0.010  11.160  20.712  0.00  0.00    +0.000 A 
ATOM     12  N   UNL     1       0.549  10.038  21.286  0.00  0.00    +0.000 N 
ATOM     13  C   UNL     1       1.099   9.201  20.317  0.00  0.00    +0.000 A 
ATOM     14  C   UNL     1       1.796   7.983  20.431  0.00  0.00    +0.000 A 
ATOM     15  C   UNL     1       2.299   7.388  19.257  0.00  0.00    +0.000 A 
ATOM     16  C   UNL     1       2.108   7.985  18.017  0.00  0.00    +0.000 A 
ATOM     17  C   UNL     1       1.396   9.182  17.912  0.00  0.00    +0.000 A 
ATOM     18  C   UNL     1       0.875   9.800  19.077  0.00  0.00    +0.000 A 
ATOM     19  C   UNL     1      -0.478  12.466  21.390  0.00  0.00    +0.000 C 
ATOM     20  C   UNL     1      -1.132  12.413  22.812  0.00  0.00    +0.000 C 
ATOM     21  C   UNL     1      -2.568  12.989  23.013  0.00  0.00    +0.000 C 
ATOM     22  H   UNL     1       0.623   9.854  22.275  0.00  0.00    +0.000 HD
ENDROOT
BRANCH   1  24
ATOM     23  C   UNL     1      -2.800  16.827  25.075  0.00  0.00    +0.000 C 
ATOM     24  S   UNL     1      -2.283  15.143  24.971  0.00  0.00    +0.000 S 
ATOM     25  O   UNL     1      -0.838  15.103  24.960  0.00  0.00    +0.000 OA
ATOM     26  O   UNL     1      -3.007  14.458  26.037  0.00  0.00    +0.000 OA
ENDBRANCH   1  24
TORSDOF 1
ENDMDL
MODEL 8
REMARK VINA RESULT:      -6.4      6.064      8.527
REMARK  Name = 
REMARK  2 active torsions:
REMARK  status: ('A' for Active; 'I' for Inactive)
REMARK    1  A    between atoms: C_1  and  S_2
REMARK    2  A    between atoms: S_2  and  N_5
REMARK                            x       y       z     vdW  Elec       q    Type
REMARK                         _______ _______ _______ _____ _____    ______ ____
ROOT
ATOM      1  N   UNL     1      -5.358  12.499  22.416  0.00  0.00    +0.000 NA
ATOM      2  C   UNL     1      -5.772  12.570  23.898  0.00  0.00    +0.000 C 
ATOM      3  C   UNL     1      -4.595  12.259  24.781  0.00  0.00    +0.000 C 
ATOM      4  C   UNL     1      -3.593  13.390  24.643  0.00  0.00    +0.000 C 
ATOM      5  C   UNL     1      -3.169  13.593  23.180  0.00  0.00    +0.000 C 
ATOM      6  C   UNL     1      -2.144  12.513  22.796  0.00  0.00    +0.000 C 
ATOM      7  N   UNL     1      -1.865  12.343  21.386  0.00  0.00    +0.000 NA
ATOM      8  C   UNL     1      -0.539  11.754  21.103  0.00  0.00    +0.000 C 
ATOM      9  C   UNL     1       0.641  12.734  20.913  0.00  0.00    +0.000 C 
ATOM     10  C   UNL     1       0.205  13.951  20.185  0.00  0.00    +0.000 A 
ATOM     11  C   UNL     1      -1.145  14.288  20.059  0.00  0.00    +0.000 A 
ATOM     12  N   UNL     1      -1.167  15.465  19.340  0.00  0.00    +0.000 N 
ATOM     13  C   UNL     1       0.119  15.844  18.959  0.00  0.00    +0.000 A 
ATOM     14  C   UNL     1       0.576  16.934  18.194  0.00  0.00    +0.000 A 
ATOM     15  C   UNL     1       1.954  17.022  17.913  0.00  0.00    +0.000 A 
ATOM     16  C   UNL     1       2.840  16.062  18.382  0.00  0.00    +0.000 A 
ATOM     17  C   UNL     1       2.380  14.996  19.160  0.00  0.00    +0.000 A 
ATOM     18  C   UNL     1       0.999  14.885  19.462  0.00  0.00    +0.000 A 
ATOM     19  C   UNL     1      -2.319  13.363  20.442  0.00  0.00    +0.000 C 
ATOM     20  C   UNL     1      -3.716  13.981  20.789  0.00  0.00    +0.000 C 
ATOM     21  C   UNL     1      -4.357  13.685  22.180  0.00  0.00    +0.000 C 
ATOM     22  H   UNL     1      -1.994  15.969  19.056  0.00  0.00    +0.000 HD
ENDROOT
BRANCH   1  24
ATOM     23  C   UNL     1      -6.627  11.504  20.063  0.00  0.00    +0.000 C 
ATOM     24  S   UNL     1      -6.880  12.322  21.606  0.00  0.00    +0.000 S 
ATOM     25  O   UNL     1      -7.390  13.650  21.348  0.00  0.00    +0.000 OA
ATOM     26  O   UNL     1      -7.680  11.393  22.400  0.00  0.00    +0.000 OA
ENDBRANCH   1  24
TORSDOF 1
ENDMDL
MODEL 9
REMARK VINA RESULT:      -6.3      4.694      6.668
REMARK  Name = 
REMARK  2 active torsions:
REMARK  status: ('A' for Active; 'I' for Inactive)
REMARK    1  A    between atoms: C_1  and  S_2
REMARK    2  A    between atoms: S_2  and  N_5
REMARK                            x       y       z     vdW  Elec       q    Type
REMARK                         _______ _______ _______ _____ _____    ______ ____
ROOT
ATOM      1  N   UNL     1      -0.355  15.209  23.433  0.00  0.00    +0.000 NA
ATOM      2  C   UNL     1       0.629  16.393  23.444  0.00  0.00    +0.000 C 
ATOM      3  C   UNL     1       1.848  16.063  22.628  0.00  0.00    +0.000 C 
ATOM      4  C   UNL     1       1.429  15.969  21.173  0.00  0.00    +0.000 C 
ATOM      5  C   UNL     1       0.312  14.932  20.974  0.00  0.00    +0.000 C 
ATOM      6  C   UNL     1       0.924  13.521  20.986  0.00  0.00    +0.000 C 
ATOM      7  N   UNL     1       0.009  12.409  21.128  0.00  0.00    +0.000 NA
ATOM      8  C   UNL     1       0.523  11.135  20.580  0.00  0.00    +0.000 C 
ATOM      9  C   UNL     1       0.201  10.824  19.101  0.00  0.00    +0.000 C 
ATOM     10  C   UNL     1      -1.167  11.279  18.750  0.00  0.00    +0.000 A 
ATOM     11  C   UNL     1      -1.867  12.186  19.548  0.00  0.00    +0.000 A 
ATOM     12  N   UNL     1      -3.079  12.376  18.918  0.00  0.00    +0.000 N 
ATOM     13  C   UNL     1      -3.186  11.572  17.785  0.00  0.00    +0.000 A 
ATOM     14  C   UNL     1      -4.238  11.403  16.864  0.00  0.00    +0.000 A 
ATOM     15  C   UNL     1      -4.079  10.453  15.836  0.00  0.00    +0.000 A 
ATOM     16  C   UNL     1      -2.913   9.706  15.729  0.00  0.00    +0.000 A 
ATOM     17  C   UNL     1      -1.866   9.898  16.634  0.00  0.00    +0.000 A 
ATOM     18  C   UNL     1      -1.997  10.851  17.676  0.00  0.00    +0.000 A 
ATOM     19  C   UNL     1      -1.424  12.639  20.956  0.00  0.00    +0.000 C 
ATOM     20  C   UNL     1      -1.926  14.009  21.526  0.00  0.00    +0.000 C 
ATOM     21  C   UNL     1      -0.882  15.084  21.959  0.00  0.00    +0.000 C 
ATOM     22  H   UNL     1      -3.832  12.962  19.248  0.00  0.00    +0.000 HD
ENDROOT
BRANCH   1  24
ATOM     23  C   UNL     1      -2.149  17.099  24.594  0.00  0.00    +0.000 C 
ATOM     24  S   UNL     1      -1.356  15.536  24.809  0.00  0.00    +0.000 S 
ATOM     25  O   UNL     1      -0.492  15.612  25.966  0.00  0.00    +0.000 OA
ATOM     26  O   UNL     1      -2.439  14.557  24.790  0.00  0.00    +0.000 OA
ENDBRANCH   1  24
TORSDOF 1
ENDMDL
