MODEL 1
REMARK VINA RESULT:      -7.7      0.000      0.000
REMARK  Name = 
REMARK  4 active torsions:
REMARK  status: ('A' for Active; 'I' for Inactive)
REMARK    1  A    between atoms: C_1  and  C_2
REMARK    2  A    between atoms: C_5  and  S_6
REMARK    3  A    between atoms: S_6  and  N_9
REMARK    4  A    between atoms: C_15  and  C_16
REMARK                            x       y       z     vdW  Elec       q    Type
REMARK                         _______ _______ _______ _____ _____    ______ ____
ROOT
ATOM      1  N   UNL     1       2.234   5.774  20.677  0.00  0.00    +0.000 N 
ATOM      2  C   UNL     1       2.032   6.940  19.971  0.00  0.00    +0.000 C 
ATOM      3  N   UNL     1       2.258   7.114  18.722  0.00  0.00    +0.000 NA
ATOM      4  C   UNL     1       1.961   8.398  18.329  0.00  0.00    +0.000 C 
ATOM      5  O   UNL     1       2.129   8.843  17.204  0.00  0.00    +0.000 OA
ATOM      6  C   UNL     1       1.412   9.215  19.456  0.00  0.00    +0.000 C 
ATOM      7  C   UNL     1       0.970  10.461  19.249  0.00  0.00    +0.000 C 
ATOM      8  S   UNL     1       1.430   8.271  20.895  0.00  0.00    +0.000 S 
ATOM      9  H   UNL     1       2.155   5.756  21.689  0.00  0.00    +0.000 HD
ENDROOT
BRANCH   7  10
ATOM     10  C   UNL     1       0.433  11.298  20.264  0.00  0.00    +0.000 A 
ATOM     11  C   UNL     1       0.953  12.485  20.772  0.00  0.00    +0.000 A 
ATOM     12  C   UNL     1       0.074  12.948  21.784  0.00  0.00    +0.000 A 
ATOM     13  C   UNL     1      -0.933  12.020  21.856  0.00  0.00    +0.000 A 
ATOM     14 BR   UNL     1      -2.383  12.086  23.026  0.00  0.00    +0.000 Br
ATOM     15  O   UNL     1      -0.726  11.032  20.955  0.00  0.00    +0.000 OA
ENDBRANCH   7  10
BRANCH   1  16
ATOM     16  S   UNL     1       2.368   4.272  19.983  0.00  0.00    +0.000 S 
ATOM     17  O   UNL     1       1.199   4.050  19.159  0.00  0.00    +0.000 OA
ATOM     18  O   UNL     1       2.707   3.367  21.060  0.00  0.00    +0.000 OA
BRANCH  16  23
ATOM     19  C   UNL     1       7.241   4.806  16.426  0.00  0.00    +0.000 C 
ATOM     20  C   UNL     1       6.033   4.671  17.306  0.00  0.00    +0.000 A 
ATOM     21  C   UNL     1       4.822   4.196  16.788  0.00  0.00    +0.000 A 
ATOM     22  C   UNL     1       3.702   4.084  17.608  0.00  0.00    +0.000 A 
ATOM     23  C   UNL     1       3.798   4.437  18.957  0.00  0.00    +0.000 A 
ATOM     24  C   UNL     1       4.996   4.915  19.490  0.00  0.00    +0.000 A 
ATOM     25  C   UNL     1       6.115   5.031  18.662  0.00  0.00    +0.000 A 
ENDBRANCH  16  23
ENDBRANCH   1  16
TORSDOF 3
ENDMDL
MODEL 2
REMARK VINA RESULT:      -7.3      0.986      1.115
REMARK  Name = 
REMARK  4 active torsions:
REMARK  status: ('A' for Active; 'I' for Inactive)
REMARK    1  A    between atoms: C_1  and  C_2
REMARK    2  A    between atoms: C_5  and  S_6
REMARK    3  A    between atoms: S_6  and  N_9
REMARK    4  A    between atoms: C_15  and  C_16
REMARK                            x       y       z     vdW  Elec       q    Type
REMARK                         _______ _______ _______ _____ _____    ______ ____
ROOT
ATOM      1  N   UNL     1       2.235   5.772  20.636  0.00  0.00    +0.000 N 
ATOM      2  C   UNL     1       2.048   6.936  19.924  0.00  0.00    +0.000 C 
ATOM      3  N   UNL     1       2.290   7.104  18.677  0.00  0.00    +0.000 NA
ATOM      4  C   UNL     1       2.006   8.388  18.276  0.00  0.00    +0.000 C 
ATOM      5  O   UNL     1       2.189   8.827  17.150  0.00  0.00    +0.000 OA
ATOM      6  C   UNL     1       1.448   9.212  19.393  0.00  0.00    +0.000 C 
ATOM      7  C   UNL     1       1.015  10.461  19.175  0.00  0.00    +0.000 C 
ATOM      8  S   UNL     1       1.444   8.274  20.835  0.00  0.00    +0.000 S 
ATOM      9  H   UNL     1       2.145   5.759  21.647  0.00  0.00    +0.000 HD
ENDROOT
BRANCH   7  10
ATOM     10  C   UNL     1       0.472  11.305  20.180  0.00  0.00    +0.000 A 
ATOM     11  C   UNL     1      -0.612  11.064  21.020  0.00  0.00    +0.000 A 
ATOM     12  C   UNL     1      -0.788  12.205  21.843  0.00  0.00    +0.000 A 
ATOM     13  C   UNL     1       0.184  13.094  21.460  0.00  0.00    +0.000 A 
ATOM     14 BR   UNL     1       0.442  14.793  22.184  0.00  0.00    +0.000 Br
ATOM     15  O   UNL     1       0.938  12.566  20.469  0.00  0.00    +0.000 OA
ENDBRANCH   7  10
BRANCH   1  16
ATOM     16  S   UNL     1       2.369   4.266  19.950  0.00  0.00    +0.000 S 
ATOM     17  O   UNL     1       1.199   4.040  19.129  0.00  0.00    +0.000 OA
ATOM     18  O   UNL     1       2.710   3.367  21.031  0.00  0.00    +0.000 OA
BRANCH  16  23
ATOM     19  C   UNL     1       7.235   4.786  16.382  0.00  0.00    +0.000 C 
ATOM     20  C   UNL     1       6.029   4.654  17.264  0.00  0.00    +0.000 A 
ATOM     21  C   UNL     1       4.806   4.215  16.742  0.00  0.00    +0.000 A 
ATOM     22  C   UNL     1       3.688   4.106  17.565  0.00  0.00    +0.000 A 
ATOM     23  C   UNL     1       3.797   4.427  18.921  0.00  0.00    +0.000 A 
ATOM     24  C   UNL     1       5.007   4.869  19.458  0.00  0.00    +0.000 A 
ATOM     25  C   UNL     1       6.124   4.982  18.627  0.00  0.00    +0.000 A 
ENDBRANCH  16  23
ENDBRANCH   1  16
TORSDOF 3
ENDMDL
MODEL 3
REMARK VINA RESULT:      -7.2      2.481      2.987
REMARK  Name = 
REMARK  4 active torsions:
REMARK  status: ('A' for Active; 'I' for Inactive)
REMARK    1  A    between atoms: C_1  and  C_2
REMARK    2  A    between atoms: C_5  and  S_6
REMARK    3  A    between atoms: S_6  and  N_9
REMARK    4  A    between atoms: C_15  and  C_16
REMARK                            x       y       z     vdW  Elec       q    Type
REMARK                         _______ _______ _______ _____ _____    ______ ____
ROOT
ATOM      1  N   UNL     1       2.495   6.862  18.226  0.00  0.00    +0.000 N 
ATOM      2  C   UNL     1       1.962   7.732  19.152  0.00  0.00    +0.000 C 
ATOM      3  N   UNL     1       1.699   7.461  20.376  0.00  0.00    +0.000 NA
ATOM      4  C   UNL     1       1.164   8.548  21.030  0.00  0.00    +0.000 C 
ATOM      5  O   UNL     1       0.781   8.548  22.190  0.00  0.00    +0.000 OA
ATOM      6  C   UNL     1       1.089   9.751  20.144  0.00  0.00    +0.000 C 
ATOM      7  C   UNL     1       0.690  10.935  20.627  0.00  0.00    +0.000 C 
ATOM      8  S   UNL     1       1.621   9.321  18.565  0.00  0.00    +0.000 S 
ATOM      9  H   UNL     1       2.551   7.114  17.245  0.00  0.00    +0.000 HD
ENDROOT
BRANCH   7  10
ATOM     10  C   UNL     1       0.594  12.122  19.853  0.00  0.00    +0.000 A 
ATOM     11  C   UNL     1      -0.430  12.518  18.997  0.00  0.00    +0.000 A 
ATOM     12  C   UNL     1      -0.071  13.768  18.435  0.00  0.00    +0.000 A 
ATOM     13  C   UNL     1       1.159  14.073  18.961  0.00  0.00    +0.000 A 
ATOM     14 BR   UNL     1       2.151  15.604  18.575  0.00  0.00    +0.000 Br
ATOM     15  O   UNL     1       1.563  13.096  19.806  0.00  0.00    +0.000 OA
ENDBRANCH   7  10
BRANCH   1  16
ATOM     16  S   UNL     1       3.308   5.467  18.613  0.00  0.00    +0.000 S 
ATOM     17  O   UNL     1       2.342   4.396  18.721  0.00  0.00    +0.000 OA
ATOM     18  O   UNL     1       4.174   5.808  19.721  0.00  0.00    +0.000 OA
BRANCH  16  23
ATOM     19  C   UNL     1       6.835   4.509  13.783  0.00  0.00    +0.000 C 
ATOM     20  C   UNL     1       5.963   4.744  14.981  0.00  0.00    +0.000 A 
ATOM     21  C   UNL     1       5.526   3.671  15.768  0.00  0.00    +0.000 A 
ATOM     22  C   UNL     1       4.707   3.897  16.872  0.00  0.00    +0.000 A 
ATOM     23  C   UNL     1       4.335   5.204  17.198  0.00  0.00    +0.000 A 
ATOM     24  C   UNL     1       4.759   6.285  16.424  0.00  0.00    +0.000 A 
ATOM     25  C   UNL     1       5.575   6.053  15.314  0.00  0.00    +0.000 A 
ENDBRANCH  16  23
ENDBRANCH   1  16
TORSDOF 3
ENDMDL
MODEL 4
REMARK VINA RESULT:      -7.2      2.530      3.062
REMARK  Name = 
REMARK  4 active torsions:
REMARK  status: ('A' for Active; 'I' for Inactive)
REMARK    1  A    between atoms: C_1  and  C_2
REMARK    2  A    between atoms: C_5  and  S_6
REMARK    3  A    between atoms: S_6  and  N_9
REMARK    4  A    between atoms: C_15  and  C_16
REMARK                            x       y       z     vdW  Elec       q    Type
REMARK                         _______ _______ _______ _____ _____    ______ ____
ROOT
ATOM      1  N   UNL     1       2.360   6.973  18.305  0.00  0.00    +0.000 N 
ATOM      2  C   UNL     1       1.875   7.870  19.232  0.00  0.00    +0.000 C 
ATOM      3  N   UNL     1       1.582   7.609  20.452  0.00  0.00    +0.000 NA
ATOM      4  C   UNL     1       1.112   8.723  21.108  0.00  0.00    +0.000 C 
ATOM      5  O   UNL     1       0.718   8.740  22.264  0.00  0.00    +0.000 OA
ATOM      6  C   UNL     1       1.123   9.934  20.230  0.00  0.00    +0.000 C 
ATOM      7  C   UNL     1       0.797  11.138  20.717  0.00  0.00    +0.000 C 
ATOM      8  S   UNL     1       1.642   9.481  18.653  0.00  0.00    +0.000 S 
ATOM      9  H   UNL     1       2.442   7.228  17.327  0.00  0.00    +0.000 HD
ENDROOT
BRANCH   7  10
ATOM     10  C   UNL     1       0.785  12.334  19.951  0.00  0.00    +0.000 A 
ATOM     11  C   UNL     1      -0.298  12.965  19.347  0.00  0.00    +0.000 A 
ATOM     12  C   UNL     1       0.186  14.118  18.678  0.00  0.00    +0.000 A 
ATOM     13  C   UNL     1       1.540  14.132  18.893  0.00  0.00    +0.000 A 
ATOM     14 BR   UNL     1       2.726  15.414  18.240  0.00  0.00    +0.000 Br
ATOM     15  O   UNL     1       1.906  13.071  19.650  0.00  0.00    +0.000 OA
ENDBRANCH   7  10
BRANCH   1  16
ATOM     16  S   UNL     1       3.078   5.527  18.690  0.00  0.00    +0.000 S 
ATOM     17  O   UNL     1       2.053   4.506  18.709  0.00  0.00    +0.000 OA
ATOM     18  O   UNL     1       3.896   5.788  19.854  0.00  0.00    +0.000 OA
BRANCH  16  23
ATOM     19  C   UNL     1       6.806   4.642  13.999  0.00  0.00    +0.000 C 
ATOM     20  C   UNL     1       5.881   4.863  15.159  0.00  0.00    +0.000 A 
ATOM     21  C   UNL     1       5.482   6.157  15.519  0.00  0.00    +0.000 A 
ATOM     22  C   UNL     1       4.632   6.355  16.604  0.00  0.00    +0.000 A 
ATOM     23  C   UNL     1       4.168   5.252  17.326  0.00  0.00    +0.000 A 
ATOM     24  C   UNL     1       4.557   3.956  16.984  0.00  0.00    +0.000 A 
ATOM     25  C   UNL     1       5.414   3.763  15.899  0.00  0.00    +0.000 A 
ENDBRANCH  16  23
ENDBRANCH   1  16
TORSDOF 3
ENDMDL
MODEL 5
REMARK VINA RESULT:      -7.1      3.990      8.697
REMARK  Name = 
REMARK  4 active torsions:
REMARK  status: ('A' for Active; 'I' for Inactive)
REMARK    1  A    between atoms: C_1  and  C_2
REMARK    2  A    between atoms: C_5  and  S_6
REMARK    3  A    between atoms: S_6  and  N_9
REMARK    4  A    between atoms: C_15  and  C_16
REMARK                            x       y       z     vdW  Elec       q    Type
REMARK                         _______ _______ _______ _____ _____    ______ ____
ROOT
ATOM      1  N   UNL     1       2.249   9.291  18.222  0.00  0.00    +0.000 N 
ATOM      2  C   UNL     1       2.618   7.979  18.424  0.00  0.00    +0.000 C 
ATOM      3  N   UNL     1       2.147   7.194  19.320  0.00  0.00    +0.000 NA
ATOM      4  C   UNL     1       2.735   5.951  19.262  0.00  0.00    +0.000 C 
ATOM      5  O   UNL     1       2.504   5.031  20.031  0.00  0.00    +0.000 OA
ATOM      6  C   UNL     1       3.718   5.850  18.138  0.00  0.00    +0.000 C 
ATOM      7  C   UNL     1       4.320   4.688  17.856  0.00  0.00    +0.000 C 
ATOM      8  S   UNL     1       3.838   7.379  17.358  0.00  0.00    +0.000 S 
ATOM      9  H   UNL     1       2.762   9.883  17.577  0.00  0.00    +0.000 HD
ENDROOT
BRANCH   7  10
ATOM     10  C   UNL     1       5.261   4.510  16.806  0.00  0.00    +0.000 A 
ATOM     11  C   UNL     1       6.642   4.676  16.845  0.00  0.00    +0.000 A 
ATOM     12  C   UNL     1       7.151   4.402  15.550  0.00  0.00    +0.000 A 
ATOM     13  C   UNL     1       6.059   4.095  14.778  0.00  0.00    +0.000 A 
ATOM     14 BR   UNL     1       6.104   3.657  12.967  0.00  0.00    +0.000 Br
ATOM     15  O   UNL     1       4.928   4.158  15.519  0.00  0.00    +0.000 OA
ENDBRANCH   7  10
BRANCH   1  16
ATOM     16  S   UNL     1       0.837   9.962  18.779  0.00  0.00    +0.000 S 
ATOM     17  O   UNL     1       0.645   9.536  20.148  0.00  0.00    +0.000 OA
ATOM     18  O   UNL     1      -0.158   9.691  17.764  0.00  0.00    +0.000 OA
BRANCH  16  23
ATOM     19  C   UNL     1       1.957  15.913  18.647  0.00  0.00    +0.000 C 
ATOM     20  C   UNL     1       1.677  14.440  18.679  0.00  0.00    +0.000 A 
ATOM     21  C   UNL     1       0.484  13.951  19.226  0.00  0.00    +0.000 A 
ATOM     22  C   UNL     1       0.235  12.581  19.262  0.00  0.00    +0.000 A 
ATOM     23  C   UNL     1       1.180  11.696  18.736  0.00  0.00    +0.000 A 
ATOM     24  C   UNL     1       2.376  12.165  18.190  0.00  0.00    +0.000 A 
ATOM     25  C   UNL     1       2.622  13.539  18.161  0.00  0.00    +0.000 A 
ENDBRANCH  16  23
ENDBRANCH   1  16
TORSDOF 3
ENDMDL
MODEL 6
REMARK VINA RESULT:      -7.1      3.857      8.640
REMARK  Name = 
REMARK  4 active torsions:
REMARK  status: ('A' for Active; 'I' for Inactive)
REMARK    1  A    between atoms: C_1  and  C_2
REMARK    2  A    between atoms: C_5  and  S_6
REMARK    3  A    between atoms: S_6  and  N_9
REMARK    4  A    between atoms: C_15  and  C_16
REMARK                            x       y       z     vdW  Elec       q    Type
REMARK                         _______ _______ _______ _____ _____    ______ ____
ROOT
ATOM      1  N   UNL     1       1.799   9.467  18.322  0.00  0.00    +0.000 N 
ATOM      2  C   UNL     1       2.229   8.208  18.676  0.00  0.00    +0.000 C 
ATOM      3  N   UNL     1       1.777   7.501  19.645  0.00  0.00    +0.000 NA
ATOM      4  C   UNL     1       2.429   6.293  19.737  0.00  0.00    +0.000 C 
ATOM      5  O   UNL     1       2.225   5.452  20.599  0.00  0.00    +0.000 OA
ATOM      6  C   UNL     1       3.445   6.123  18.652  0.00  0.00    +0.000 C 
ATOM      7  C   UNL     1       4.113   4.971  18.512  0.00  0.00    +0.000 C 
ATOM      8  S   UNL     1       3.507   7.561  17.709  0.00  0.00    +0.000 S 
ATOM      9  H   UNL     1       2.298  10.012  17.626  0.00  0.00    +0.000 HD
ENDROOT
BRANCH   7  10
ATOM     10  C   UNL     1       5.090   4.730  17.509  0.00  0.00    +0.000 A 
ATOM     11  C   UNL     1       6.476   4.754  17.626  0.00  0.00    +0.000 A 
ATOM     12  C   UNL     1       7.027   4.470  16.352  0.00  0.00    +0.000 A 
ATOM     13  C   UNL     1       5.956   4.297  15.513  0.00  0.00    +0.000 A 
ATOM     14 BR   UNL     1       6.059   3.911  13.692  0.00  0.00    +0.000 Br
ATOM     15  O   UNL     1       4.797   4.452  16.194  0.00  0.00    +0.000 OA
ENDBRANCH   7  10
BRANCH   1  16
ATOM     16  S   UNL     1       0.340  10.119  18.772  0.00  0.00    +0.000 S 
ATOM     17  O   UNL     1       0.056   9.694  20.126  0.00  0.00    +0.000 OA
ATOM     18  O   UNL     1      -0.574   9.828  17.689  0.00  0.00    +0.000 OA
BRANCH  16  23
ATOM     19  C   UNL     1       1.488  16.065  18.698  0.00  0.00    +0.000 C 
ATOM     20  C   UNL     1       1.206  14.592  18.718  0.00  0.00    +0.000 A 
ATOM     21  C   UNL     1       2.254  13.664  18.781  0.00  0.00    +0.000 A 
ATOM     22  C   UNL     1       1.984  12.298  18.788  0.00  0.00    +0.000 A 
ATOM     23  C   UNL     1       0.659  11.857  18.746  0.00  0.00    +0.000 A 
ATOM     24  C   UNL     1      -0.398  12.766  18.680  0.00  0.00    +0.000 A 
ATOM     25  C   UNL     1      -0.122  14.136  18.667  0.00  0.00    +0.000 A 
ENDBRANCH  16  23
ENDBRANCH   1  16
TORSDOF 3
ENDMDL
MODEL 7
REMARK VINA RESULT:      -7.1      0.907      1.448
REMARK  Name = 
REMARK  4 active torsions:
REMARK  status: ('A' for Active; 'I' for Inactive)
REMARK    1  A    between atoms: C_1  and  C_2
REMARK    2  A    between atoms: C_5  and  S_6
REMARK    3  A    between atoms: S_6  and  N_9
REMARK    4  A    between atoms: C_15  and  C_16
REMARK                            x       y       z     vdW  Elec       q    Type
REMARK                         _______ _______ _______ _____ _____    ______ ____
ROOT
ATOM      1  N   UNL     1       2.397   5.349  20.556  0.00  0.00    +0.000 N 
ATOM      2  C   UNL     1       2.165   6.564  19.950  0.00  0.00    +0.000 C 
ATOM      3  N   UNL     1       2.406   6.853  18.725  0.00  0.00    +0.000 NA
ATOM      4  C   UNL     1       2.069   8.155  18.438  0.00  0.00    +0.000 C 
ATOM      5  O   UNL     1       2.240   8.701  17.358  0.00  0.00    +0.000 OA
ATOM      6  C   UNL     1       1.470   8.851  19.619  0.00  0.00    +0.000 C 
ATOM      7  C   UNL     1       0.986  10.095  19.511  0.00  0.00    +0.000 C 
ATOM      8  S   UNL     1       1.498   7.787  20.972  0.00  0.00    +0.000 S 
ATOM      9  H   UNL     1       2.301   5.241  21.561  0.00  0.00    +0.000 HD
ENDROOT
BRANCH   7  10
ATOM     10  C   UNL     1       0.401  10.821  20.583  0.00  0.00    +0.000 A 
ATOM     11  C   UNL     1      -0.363  10.338  21.641  0.00  0.00    +0.000 A 
ATOM     12  C   UNL     1      -0.740  11.442  22.447  0.00  0.00    +0.000 A 
ATOM     13  C   UNL     1      -0.202  12.547  21.838  0.00  0.00    +0.000 A 
ATOM     14 BR   UNL     1      -0.377  14.304  22.438  0.00  0.00    +0.000 Br
ATOM     15  O   UNL     1       0.478  12.187  20.726  0.00  0.00    +0.000 OA
ENDBRANCH   7  10
BRANCH   1  16
ATOM     16  S   UNL     1       2.599   3.918  19.739  0.00  0.00    +0.000 S 
ATOM     17  O   UNL     1       1.405   3.672  18.961  0.00  0.00    +0.000 OA
ATOM     18  O   UNL     1       3.063   2.962  20.721  0.00  0.00    +0.000 OA
BRANCH  16  23
ATOM     19  C   UNL     1       7.263   5.154  16.077  0.00  0.00    +0.000 C 
ATOM     20  C   UNL     1       6.108   4.851  16.985  0.00  0.00    +0.000 A 
ATOM     21  C   UNL     1       6.149   5.212  18.338  0.00  0.00    +0.000 A 
ATOM     22  C   UNL     1       5.077   4.917  19.178  0.00  0.00    +0.000 A 
ATOM     23  C   UNL     1       3.953   4.269  18.658  0.00  0.00    +0.000 A 
ATOM     24  C   UNL     1       3.897   3.898  17.314  0.00  0.00    +0.000 A 
ATOM     25  C   UNL     1       4.976   4.191  16.477  0.00  0.00    +0.000 A 
ENDBRANCH  16  23
ENDBRANCH   1  16
TORSDOF 3
ENDMDL
MODEL 8
REMARK VINA RESULT:      -7.1      4.067      8.724
REMARK  Name = 
REMARK  4 active torsions:
REMARK  status: ('A' for Active; 'I' for Inactive)
REMARK    1  A    between atoms: C_1  and  C_2
REMARK    2  A    between atoms: C_5  and  S_6
REMARK    3  A    between atoms: S_6  and  N_9
REMARK    4  A    between atoms: C_15  and  C_16
REMARK                            x       y       z     vdW  Elec       q    Type
REMARK                         _______ _______ _______ _____ _____    ______ ____
ROOT
ATOM      1  N   UNL     1       2.400   9.156  18.131  0.00  0.00    +0.000 N 
ATOM      2  C   UNL     1       2.766   7.834  18.260  0.00  0.00    +0.000 C 
ATOM      3  N   UNL     1       2.313   7.008  19.128  0.00  0.00    +0.000 NA
ATOM      4  C   UNL     1       2.893   5.767  18.995  0.00  0.00    +0.000 C 
ATOM      5  O   UNL     1       2.675   4.811  19.724  0.00  0.00    +0.000 OA
ATOM      6  C   UNL     1       3.849   5.718  17.846  0.00  0.00    +0.000 C 
ATOM      7  C   UNL     1       4.439   4.569  17.493  0.00  0.00    +0.000 C 
ATOM      8  S   UNL     1       3.959   7.283  17.139  0.00  0.00    +0.000 S 
ATOM      9  H   UNL     1       2.901   9.777  17.504  0.00  0.00    +0.000 HD
ENDROOT
BRANCH   7  10
ATOM     10  C   UNL     1       5.355   4.438  16.415  0.00  0.00    +0.000 A 
ATOM     11  C   UNL     1       6.713   4.739  16.392  0.00  0.00    +0.000 A 
ATOM     12  C   UNL     1       7.200   4.462  15.089  0.00  0.00    +0.000 A 
ATOM     13  C   UNL     1       6.117   4.018  14.374  0.00  0.00    +0.000 A 
ATOM     14 BR   UNL     1       6.140   3.510  12.581  0.00  0.00    +0.000 Br
ATOM     15  O   UNL     1       5.013   4.002  15.156  0.00  0.00    +0.000 OA
ENDBRANCH   7  10
BRANCH   1  16
ATOM     16  S   UNL     1       1.004   9.805  18.753  0.00  0.00    +0.000 S 
ATOM     17  O   UNL     1       0.856   9.336  20.113  0.00  0.00    +0.000 OA
ATOM     18  O   UNL     1      -0.022   9.561  17.762  0.00  0.00    +0.000 OA
BRANCH  16  23
ATOM     19  C   UNL     1       2.212  15.740  18.728  0.00  0.00    +0.000 C 
ATOM     20  C   UNL     1       1.916  14.269  18.735  0.00  0.00    +0.000 A 
ATOM     21  C   UNL     1       2.739  13.372  18.042  0.00  0.00    +0.000 A 
ATOM     22  C   UNL     1       2.451  12.009  18.044  0.00  0.00    +0.000 A 
ATOM     23  C   UNL     1       1.341  11.540  18.752  0.00  0.00    +0.000 A 
ATOM     24  C   UNL     1       0.509  12.420  19.445  0.00  0.00    +0.000 A 
ATOM     25  C   UNL     1       0.798  13.786  19.436  0.00  0.00    +0.000 A 
ENDBRANCH  16  23
ENDBRANCH   1  16
TORSDOF 3
ENDMDL
MODEL 9
REMARK VINA RESULT:      -6.9      0.712      1.217
REMARK  Name = 
REMARK  4 active torsions:
REMARK  status: ('A' for Active; 'I' for Inactive)
REMARK    1  A    between atoms: C_1  and  C_2
REMARK    2  A    between atoms: C_5  and  S_6
REMARK    3  A    between atoms: S_6  and  N_9
REMARK    4  A    between atoms: C_15  and  C_16
REMARK                            x       y       z     vdW  Elec       q    Type
REMARK                         _______ _______ _______ _____ _____    ______ ____
ROOT
ATOM      1  N   UNL     1       2.166   6.039  20.578  0.00  0.00    +0.000 N 
ATOM      2  C   UNL     1       1.934   7.211  19.893  0.00  0.00    +0.000 C 
ATOM      3  N   UNL     1       2.234   7.440  18.668  0.00  0.00    +0.000 NA
ATOM      4  C   UNL     1       1.878   8.714  18.290  0.00  0.00    +0.000 C 
ATOM      5  O   UNL     1       2.093   9.204  17.192  0.00  0.00    +0.000 OA
ATOM      6  C   UNL     1       1.196   9.454  19.397  0.00  0.00    +0.000 C 
ATOM      7  C   UNL     1       0.684  10.675  19.192  0.00  0.00    +0.000 C 
ATOM      8  S   UNL     1       1.179   8.468  20.807  0.00  0.00    +0.000 S 
ATOM      9  H   UNL     1       2.018   5.984  21.581  0.00  0.00    +0.000 HD
ENDROOT
BRANCH   7  10
ATOM     10  C   UNL     1       0.021  11.441  20.188  0.00  0.00    +0.000 A 
ATOM     11  C   UNL     1       0.548  11.984  21.356  0.00  0.00    +0.000 A 
ATOM     12  C   UNL     1      -0.501  12.649  22.040  0.00  0.00    +0.000 A 
ATOM     13  C   UNL     1      -1.620  12.471  21.268  0.00  0.00    +0.000 A 
ATOM     14 BR   UNL     1      -3.323  13.115  21.668  0.00  0.00    +0.000 Br
ATOM     15  O   UNL     1      -1.318  11.751  20.163  0.00  0.00    +0.000 OA
ENDBRANCH   7  10
BRANCH   1  16
ATOM     16  S   UNL     1       2.452   4.573  19.855  0.00  0.00    +0.000 S 
ATOM     17  O   UNL     1       1.322   4.261  19.007  0.00  0.00    +0.000 OA
ATOM     18  O   UNL     1       2.859   3.679  20.918  0.00  0.00    +0.000 OA
BRANCH  16  23
ATOM     19  C   UNL     1       7.356   5.702  16.485  0.00  0.00    +0.000 C 
ATOM     20  C   UNL     1       6.142   5.425  17.321  0.00  0.00    +0.000 A 
ATOM     21  C   UNL     1       6.179   5.591  18.712  0.00  0.00    +0.000 A 
ATOM     22  C   UNL     1       5.051   5.321  19.483  0.00  0.00    +0.000 A 
ATOM     23  C   UNL     1       3.875   4.895  18.858  0.00  0.00    +0.000 A 
ATOM     24  C   UNL     1       3.821   4.720  17.475  0.00  0.00    +0.000 A 
ATOM     25  C   UNL     1       4.957   4.987  16.706  0.00  0.00    +0.000 A 
ENDBRANCH  16  23
ENDBRANCH   1  16
TORSDOF 3
ENDMDL
