MODEL 1
REMARK VINA RESULT:      -7.4      0.000      0.000
REMARK  Name = 
REMARK  3 active torsions:
REMARK  status: ('A' for Active; 'I' for Inactive)
REMARK    1  A    between atoms: C_2  and  C_3
REMARK    2  A    between atoms: C_15  and  C_16
REMARK    3  A    between atoms: C_16  and  N_17
REMARK                            x       y       z     vdW  Elec       q    Type
REMARK                         _______ _______ _______ _____ _____    ______ ____
ROOT
ATOM      1  O   UNL     1       5.008   3.824  15.733  0.00  0.00    +0.000 OA
ATOM      2  C   UNL     1       5.176   4.149  16.911  0.00  0.00    +0.000 C 
ATOM      3  N   UNL     1       4.634   3.353  17.936  0.00  0.00    +0.000 N 
ATOM      4  C   UNL     1       3.895   2.131  17.583  0.00  0.00    +0.000 C 
ATOM      5  C   UNL     1       2.390   2.180  17.901  0.00  0.00    +0.000 C 
ATOM      6  O   UNL     1       2.103   2.276  19.313  0.00  0.00    +0.000 OA
ATOM      7  C   UNL     1       2.087   3.588  19.710  0.00  0.00    +0.000 A 
ATOM      8  C   UNL     1       0.891   4.126  20.179  0.00  0.00    +0.000 A 
ATOM      9  C   UNL     1       0.834   5.476  20.544  0.00  0.00    +0.000 A 
ATOM     10  C   UNL     1       1.970   6.291  20.448  0.00  0.00    +0.000 A 
ATOM     11  C   UNL     1       3.181   5.712  20.039  0.00  0.00    +0.000 A 
ATOM     12  C   UNL     1       3.254   4.355  19.695  0.00  0.00    +0.000 A 
ATOM     13  C   UNL     1       4.567   3.715  19.347  0.00  0.00    +0.000 C 
ENDROOT
BRANCH   2  14
ATOM     14  C   UNL     1       5.918   5.366  17.227  0.00  0.00    +0.000 A 
ATOM     15  C   UNL     1       5.621   6.687  16.925  0.00  0.00    +0.000 A 
ATOM     16  C   UNL     1       6.670   7.484  17.443  0.00  0.00    +0.000 A 
ATOM     17  C   UNL     1       7.575   6.608  17.985  0.00  0.00    +0.000 A 
ATOM     18  O   UNL     1       7.142   5.331  17.841  0.00  0.00    +0.000 OA
ENDBRANCH   2  14
BRANCH  10  19
ATOM     19  C   UNL     1       1.928   7.756  20.855  0.00  0.00    +0.000 C 
BRANCH  19  20
ATOM     20  N   UNL     1       0.653   8.469  20.773  0.00  0.00    +0.000 NA
ATOM     21  C   UNL     1       0.670   9.767  20.090  0.00  0.00    +0.000 C 
ATOM     22  C   UNL     1       0.895  10.971  21.018  0.00  0.00    +0.000 C 
ATOM     23  O   UNL     1      -0.048  10.981  22.097  0.00  0.00    +0.000 OA
ATOM     24  C   UNL     1       0.050   9.775  22.864  0.00  0.00    +0.000 C 
ATOM     25  C   UNL     1      -0.161   8.527  21.991  0.00  0.00    +0.000 C 
ENDBRANCH  19  20
ENDBRANCH  10  19
TORSDOF 3
ENDMDL
MODEL 2
REMARK VINA RESULT:      -7.1      1.176      1.518
REMARK  Name = 
REMARK  3 active torsions:
REMARK  status: ('A' for Active; 'I' for Inactive)
REMARK    1  A    between atoms: C_2  and  C_3
REMARK    2  A    between atoms: C_15  and  C_16
REMARK    3  A    between atoms: C_16  and  N_17
REMARK                            x       y       z     vdW  Elec       q    Type
REMARK                         _______ _______ _______ _____ _____    ______ ____
ROOT
ATOM      1  O   UNL     1       4.986   3.575  15.763  0.00  0.00    +0.000 OA
ATOM      2  C   UNL     1       5.168   4.031  16.895  0.00  0.00    +0.000 C 
ATOM      3  N   UNL     1       4.662   3.341  18.012  0.00  0.00    +0.000 N 
ATOM      4  C   UNL     1       3.947   2.073  17.810  0.00  0.00    +0.000 C 
ATOM      5  C   UNL     1       2.447   2.124  18.152  0.00  0.00    +0.000 C 
ATOM      6  O   UNL     1       2.182   2.369  19.550  0.00  0.00    +0.000 OA
ATOM      7  C   UNL     1       2.143   3.716  19.801  0.00  0.00    +0.000 A 
ATOM      8  C   UNL     1       0.942   4.276  20.232  0.00  0.00    +0.000 A 
ATOM      9  C   UNL     1       0.860   5.656  20.448  0.00  0.00    +0.000 A 
ATOM     10  C   UNL     1       1.975   6.481  20.240  0.00  0.00    +0.000 A 
ATOM     11  C   UNL     1       3.192   5.886  19.873  0.00  0.00    +0.000 A 
ATOM     12  C   UNL     1       3.290   4.501  19.678  0.00  0.00    +0.000 A 
ATOM     13  C   UNL     1       4.613   3.855  19.376  0.00  0.00    +0.000 C 
ENDROOT
BRANCH   2  14
ATOM     14  C   UNL     1       5.886   5.292  17.061  0.00  0.00    +0.000 A 
ATOM     15  C   UNL     1       7.222   5.516  17.361  0.00  0.00    +0.000 A 
ATOM     16  C   UNL     1       7.411   6.917  17.424  0.00  0.00    +0.000 A 
ATOM     17  C   UNL     1       6.174   7.473  17.212  0.00  0.00    +0.000 A 
ATOM     18  O   UNL     1       5.247   6.502  17.015  0.00  0.00    +0.000 OA
ENDBRANCH   2  14
BRANCH  10  19
ATOM     19  C   UNL     1       1.905   7.979  20.485  0.00  0.00    +0.000 C 
BRANCH  19  20
ATOM     20  N   UNL     1       0.954   8.773  19.706  0.00  0.00    +0.000 NA
ATOM     21  C   UNL     1       1.355   9.123  18.339  0.00  0.00    +0.000 C 
ATOM     22  C   UNL     1       2.067  10.479  18.213  0.00  0.00    +0.000 C 
ATOM     23  O   UNL     1       1.291  11.533  18.797  0.00  0.00    +0.000 OA
ATOM     24  C   UNL     1       1.036  11.264  20.181  0.00  0.00    +0.000 C 
ATOM     25  C   UNL     1       0.326   9.915  20.378  0.00  0.00    +0.000 C 
ENDBRANCH  19  20
ENDBRANCH  10  19
TORSDOF 3
ENDMDL
MODEL 3
REMARK VINA RESULT:      -6.6      6.899     10.161
REMARK  Name = 
REMARK  3 active torsions:
REMARK  status: ('A' for Active; 'I' for Inactive)
REMARK    1  A    between atoms: C_2  and  C_3
REMARK    2  A    between atoms: C_15  and  C_16
REMARK    3  A    between atoms: C_16  and  N_17
REMARK                            x       y       z     vdW  Elec       q    Type
REMARK                         _______ _______ _______ _____ _____    ______ ____
ROOT
ATOM      1  O   UNL     1      -3.324   9.357  17.398  0.00  0.00    +0.000 OA
ATOM      2  C   UNL     1      -3.366  10.519  17.812  0.00  0.00    +0.000 C 
ATOM      3  N   UNL     1      -2.187  11.140  18.261  0.00  0.00    +0.000 N 
ATOM      4  C   UNL     1      -0.917  10.399  18.205  0.00  0.00    +0.000 C 
ATOM      5  C   UNL     1      -0.320  10.049  19.580  0.00  0.00    +0.000 C 
ATOM      6  O   UNL     1       0.071  11.207  20.349  0.00  0.00    +0.000 OA
ATOM      7  C   UNL     1      -0.988  11.674  21.084  0.00  0.00    +0.000 A 
ATOM      8  C   UNL     1      -0.902  11.634  22.473  0.00  0.00    +0.000 A 
ATOM      9  C   UNL     1      -1.987  12.058  23.247  0.00  0.00    +0.000 A 
ATOM     10  C   UNL     1      -3.160  12.527  22.639  0.00  0.00    +0.000 A 
ATOM     11  C   UNL     1      -3.199  12.624  21.240  0.00  0.00    +0.000 A 
ATOM     12  C   UNL     1      -2.107  12.225  20.456  0.00  0.00    +0.000 A 
ATOM     13  C   UNL     1      -2.114  12.414  18.966  0.00  0.00    +0.000 C 
ENDROOT
BRANCH   2  14
ATOM     14  C   UNL     1      -4.642  11.227  17.851  0.00  0.00    +0.000 A 
ATOM     15  C   UNL     1      -5.696  11.102  18.743  0.00  0.00    +0.000 A 
ATOM     16  C   UNL     1      -6.707  12.005  18.332  0.00  0.00    +0.000 A 
ATOM     17  C   UNL     1      -6.240  12.593  17.184  0.00  0.00    +0.000 A 
ATOM     18  O   UNL     1      -5.009  12.115  16.875  0.00  0.00    +0.000 OA
ENDBRANCH   2  14
BRANCH  10  19
ATOM     19  C   UNL     1      -4.342  13.006  23.466  0.00  0.00    +0.000 C 
BRANCH  19  20
ATOM     20  N   UNL     1      -5.547  13.457  22.770  0.00  0.00    +0.000 NA
ATOM     21  C   UNL     1      -5.748  14.907  22.677  0.00  0.00    +0.000 C 
ATOM     22  C   UNL     1      -6.591  15.506  23.813  0.00  0.00    +0.000 C 
ATOM     23  O   UNL     1      -7.849  14.831  23.942  0.00  0.00    +0.000 OA
ATOM     24  C   UNL     1      -7.647  13.435  24.195  0.00  0.00    +0.000 C 
ATOM     25  C   UNL     1      -6.804  12.773  23.094  0.00  0.00    +0.000 C 
ENDBRANCH  19  20
ENDBRANCH  10  19
TORSDOF 3
ENDMDL
MODEL 4
REMARK VINA RESULT:      -6.6      1.772      4.238
REMARK  Name = 
REMARK  3 active torsions:
REMARK  status: ('A' for Active; 'I' for Inactive)
REMARK    1  A    between atoms: C_2  and  C_3
REMARK    2  A    between atoms: C_15  and  C_16
REMARK    3  A    between atoms: C_16  and  N_17
REMARK                            x       y       z     vdW  Elec       q    Type
REMARK                         _______ _______ _______ _____ _____    ______ ____
ROOT
ATOM      1  O   UNL     1       5.360   3.170  19.688  0.00  0.00    +0.000 OA
ATOM      2  C   UNL     1       4.237   3.500  19.296  0.00  0.00    +0.000 C 
ATOM      3  N   UNL     1       4.097   4.146  18.055  0.00  0.00    +0.000 N 
ATOM      4  C   UNL     1       5.291   4.395  17.234  0.00  0.00    +0.000 C 
ATOM      5  C   UNL     1       5.660   5.881  17.077  0.00  0.00    +0.000 C 
ATOM      6  O   UNL     1       4.669   6.648  16.359  0.00  0.00    +0.000 OA
ATOM      7  C   UNL     1       3.713   7.121  17.221  0.00  0.00    +0.000 A 
ATOM      8  C   UNL     1       3.592   8.498  17.387  0.00  0.00    +0.000 A 
ATOM      9  C   UNL     1       2.658   9.006  18.297  0.00  0.00    +0.000 A 
ATOM     10  C   UNL     1       1.840   8.144  19.040  0.00  0.00    +0.000 A 
ATOM     11  C   UNL     1       1.931   6.763  18.806  0.00  0.00    +0.000 A 
ATOM     12  C   UNL     1       2.846   6.246  17.878  0.00  0.00    +0.000 A 
ATOM     13  C   UNL     1       2.879   4.778  17.561  0.00  0.00    +0.000 C 
ENDROOT
BRANCH   2  14
ATOM     14  C   UNL     1       3.072   3.234  20.135  0.00  0.00    +0.000 A 
ATOM     15  C   UNL     1       2.684   3.832  21.325  0.00  0.00    +0.000 A 
ATOM     16  C   UNL     1       1.486   3.202  21.742  0.00  0.00    +0.000 A 
ATOM     17  C   UNL     1       1.236   2.220  20.816  0.00  0.00    +0.000 A 
ATOM     18  O   UNL     1       2.196   2.218  19.858  0.00  0.00    +0.000 OA
ENDBRANCH   2  14
BRANCH  10  19
ATOM     19  C   UNL     1       0.811   8.681  20.022  0.00  0.00    +0.000 C 
BRANCH  19  20
ATOM     20  N   UNL     1       1.235   9.679  21.004  0.00  0.00    +0.000 NA
ATOM     21  C   UNL     1       1.296   9.239  22.402  0.00  0.00    +0.000 C 
ATOM     22  C   UNL     1       0.010   9.491  23.205  0.00  0.00    +0.000 C 
ATOM     23  O   UNL     1      -0.394  10.864  23.126  0.00  0.00    +0.000 OA
ATOM     24  C   UNL     1      -0.610  11.247  21.763  0.00  0.00    +0.000 C 
ATOM     25  C   UNL     1       0.641  11.016  20.900  0.00  0.00    +0.000 C 
ENDBRANCH  19  20
ENDBRANCH  10  19
TORSDOF 3
ENDMDL
MODEL 5
REMARK VINA RESULT:      -6.6      1.818      2.177
REMARK  Name = 
REMARK  3 active torsions:
REMARK  status: ('A' for Active; 'I' for Inactive)
REMARK    1  A    between atoms: C_2  and  C_3
REMARK    2  A    between atoms: C_15  and  C_16
REMARK    3  A    between atoms: C_16  and  N_17
REMARK                            x       y       z     vdW  Elec       q    Type
REMARK                         _______ _______ _______ _____ _____    ______ ____
ROOT
ATOM      1  O   UNL     1       7.458   5.352  15.478  0.00  0.00    +0.000 OA
ATOM      2  C   UNL     1       7.088   5.580  16.633  0.00  0.00    +0.000 C 
ATOM      3  N   UNL     1       6.247   4.662  17.286  0.00  0.00    +0.000 N 
ATOM      4  C   UNL     1       5.843   3.432  16.588  0.00  0.00    +0.000 C 
ATOM      5  C   UNL     1       4.345   3.357  16.242  0.00  0.00    +0.000 C 
ATOM      6  O   UNL     1       3.487   3.308  17.403  0.00  0.00    +0.000 OA
ATOM      7  C   UNL     1       3.183   4.575  17.827  0.00  0.00    +0.000 A 
ATOM      8  C   UNL     1       1.854   4.991  17.775  0.00  0.00    +0.000 A 
ATOM      9  C   UNL     1       1.522   6.296  18.155  0.00  0.00    +0.000 A 
ATOM     10  C   UNL     1       2.511   7.188  18.593  0.00  0.00    +0.000 A 
ATOM     11  C   UNL     1       3.832   6.725  18.704  0.00  0.00    +0.000 A 
ATOM     12  C   UNL     1       4.170   5.412  18.349  0.00  0.00    +0.000 A 
ATOM     13  C   UNL     1       5.564   4.890  18.554  0.00  0.00    +0.000 C 
ENDROOT
BRANCH   2  14
ATOM     14  C   UNL     1       7.511   6.808  17.299  0.00  0.00    +0.000 A 
ATOM     15  C   UNL     1       8.191   6.976  18.496  0.00  0.00    +0.000 A 
ATOM     16  C   UNL     1       8.344   8.368  18.703  0.00  0.00    +0.000 A 
ATOM     17  C   UNL     1       7.706   8.976  17.651  0.00  0.00    +0.000 A 
ATOM     18  O   UNL     1       7.184   8.046  16.814  0.00  0.00    +0.000 OA
ENDBRANCH   2  14
BRANCH  10  19
ATOM     19  C   UNL     1       2.164   8.604  19.024  0.00  0.00    +0.000 C 
BRANCH  19  20
ATOM     20  N   UNL     1       0.954   8.817  19.818  0.00  0.00    +0.000 NA
ATOM     21  C   UNL     1       0.390  10.171  19.805  0.00  0.00    +0.000 C 
ATOM     22  C   UNL     1       0.886  11.078  20.942  0.00  0.00    +0.000 C 
ATOM     23  O   UNL     1       0.692  10.463  22.222  0.00  0.00    +0.000 OA
ATOM     24  C   UNL     1       1.381   9.209  22.289  0.00  0.00    +0.000 C 
ATOM     25  C   UNL     1       0.933   8.253  21.172  0.00  0.00    +0.000 C 
ENDBRANCH  19  20
ENDBRANCH  10  19
TORSDOF 3
ENDMDL
MODEL 6
REMARK VINA RESULT:      -6.5      1.922      4.308
REMARK  Name = 
REMARK  3 active torsions:
REMARK  status: ('A' for Active; 'I' for Inactive)
REMARK    1  A    between atoms: C_2  and  C_3
REMARK    2  A    between atoms: C_15  and  C_16
REMARK    3  A    between atoms: C_16  and  N_17
REMARK                            x       y       z     vdW  Elec       q    Type
REMARK                         _______ _______ _______ _____ _____    ______ ____
ROOT
ATOM      1  O   UNL     1       5.247   2.430  19.869  0.00  0.00    +0.000 OA
ATOM      2  C   UNL     1       4.184   2.851  19.405  0.00  0.00    +0.000 C 
ATOM      3  N   UNL     1       4.158   3.396  18.109  0.00  0.00    +0.000 N 
ATOM      4  C   UNL     1       5.397   3.432  17.318  0.00  0.00    +0.000 C 
ATOM      5  C   UNL     1       5.944   4.846  17.050  0.00  0.00    +0.000 C 
ATOM      6  O   UNL     1       5.072   5.654  16.231  0.00  0.00    +0.000 OA
ATOM      7  C   UNL     1       4.153   6.308  17.010  0.00  0.00    +0.000 A 
ATOM      8  C   UNL     1       4.190   7.700  17.053  0.00  0.00    +0.000 A 
ATOM      9  C   UNL     1       3.296   8.391  17.878  0.00  0.00    +0.000 A 
ATOM     10  C   UNL     1       2.360   7.698  18.658  0.00  0.00    +0.000 A 
ATOM     11  C   UNL     1       2.294   6.300  18.546  0.00  0.00    +0.000 A 
ATOM     12  C   UNL     1       3.169   5.601  17.703  0.00  0.00    +0.000 A 
ATOM     13  C   UNL     1       3.038   4.116  17.513  0.00  0.00    +0.000 C 
ENDROOT
BRANCH   2  14
ATOM     14  C   UNL     1       2.970   2.797  20.215  0.00  0.00    +0.000 A 
ATOM     15  C   UNL     1       1.642   2.879  19.825  0.00  0.00    +0.000 A 
ATOM     16  C   UNL     1       0.851   2.788  20.996  0.00  0.00    +0.000 A 
ATOM     17  C   UNL     1       1.737   2.708  22.041  0.00  0.00    +0.000 A 
ATOM     18  O   UNL     1       3.013   2.735  21.583  0.00  0.00    +0.000 OA
ENDBRANCH   2  14
BRANCH  10  19
ATOM     19  C   UNL     1       1.372   8.435  19.548  0.00  0.00    +0.000 C 
BRANCH  19  20
ATOM     20  N   UNL     1       1.075   9.837  19.253  0.00  0.00    +0.000 NA
ATOM     21  C   UNL     1       0.929  10.734  20.404  0.00  0.00    +0.000 C 
ATOM     22  C   UNL     1      -0.513  10.889  20.911  0.00  0.00    +0.000 C 
ATOM     23  O   UNL     1      -1.399  11.278  19.854  0.00  0.00    +0.000 OA
ATOM     24  C   UNL     1      -1.376  10.312  18.796  0.00  0.00    +0.000 C 
ATOM     25  C   UNL     1       0.044  10.105  18.244  0.00  0.00    +0.000 C 
ENDBRANCH  19  20
ENDBRANCH  10  19
TORSDOF 3
ENDMDL
MODEL 7
REMARK VINA RESULT:      -6.3      7.907     11.170
REMARK  Name = 
REMARK  3 active torsions:
REMARK  status: ('A' for Active; 'I' for Inactive)
REMARK    1  A    between atoms: C_2  and  C_3
REMARK    2  A    between atoms: C_15  and  C_16
REMARK    3  A    between atoms: C_16  and  N_17
REMARK                            x       y       z     vdW  Elec       q    Type
REMARK                         _______ _______ _______ _____ _____    ______ ____
ROOT
ATOM      1  O   UNL     1      -7.175  11.587  22.419  0.00  0.00    +0.000 OA
ATOM      2  C   UNL     1      -6.403  12.358  21.842  0.00  0.00    +0.000 C 
ATOM      3  N   UNL     1      -6.410  12.427  20.438  0.00  0.00    +0.000 N 
ATOM      4  C   UNL     1      -7.359  11.596  19.681  0.00  0.00    +0.000 C 
ATOM      5  C   UNL     1      -6.705  10.487  18.837  0.00  0.00    +0.000 C 
ATOM      6  O   UNL     1      -5.871  10.991  17.772  0.00  0.00    +0.000 OA
ATOM      7  C   UNL     1      -4.595  11.207  18.223  0.00  0.00    +0.000 A 
ATOM      8  C   UNL     1      -3.561  10.447  17.681  0.00  0.00    +0.000 A 
ATOM      9  C   UNL     1      -2.256  10.611  18.158  0.00  0.00    +0.000 A 
ATOM     10  C   UNL     1      -1.978  11.537  19.174  0.00  0.00    +0.000 A 
ATOM     11  C   UNL     1      -3.022  12.340  19.657  0.00  0.00    +0.000 A 
ATOM     12  C   UNL     1      -4.328  12.200  19.167  0.00  0.00    +0.000 A 
ATOM     13  C   UNL     1      -5.426  13.122  19.617  0.00  0.00    +0.000 C 
ENDROOT
BRANCH   2  14
ATOM     14  C   UNL     1      -5.476  13.173  22.624  0.00  0.00    +0.000 A 
ATOM     15  C   UNL     1      -4.258  12.829  23.191  0.00  0.00    +0.000 A 
ATOM     16  C   UNL     1      -3.765  13.976  23.858  0.00  0.00    +0.000 A 
ATOM     17  C   UNL     1      -4.729  14.941  23.708  0.00  0.00    +0.000 A 
ATOM     18  O   UNL     1      -5.771  14.460  22.986  0.00  0.00    +0.000 OA
ENDBRANCH   2  14
BRANCH  10  19
ATOM     19  C   UNL     1      -0.563  11.738  19.693  0.00  0.00    +0.000 C 
BRANCH  19  20
ATOM     20  N   UNL     1      -0.013  13.093  19.720  0.00  0.00    +0.000 NA
ATOM     21  C   UNL     1       0.562  13.594  18.467  0.00  0.00    +0.000 C 
ATOM     22  C   UNL     1       2.072  13.351  18.318  0.00  0.00    +0.000 C 
ATOM     23  O   UNL     1       2.796  13.861  19.444  0.00  0.00    +0.000 OA
ATOM     24  C   UNL     1       2.341  13.248  20.656  0.00  0.00    +0.000 C 
ATOM     25  C   UNL     1       0.831  13.451  20.865  0.00  0.00    +0.000 C 
ENDBRANCH  19  20
ENDBRANCH  10  19
TORSDOF 3
ENDMDL
MODEL 8
REMARK VINA RESULT:      -6.3      6.443     11.256
REMARK  Name = 
REMARK  3 active torsions:
REMARK  status: ('A' for Active; 'I' for Inactive)
REMARK    1  A    between atoms: C_2  and  C_3
REMARK    2  A    between atoms: C_15  and  C_16
REMARK    3  A    between atoms: C_16  and  N_17
REMARK                            x       y       z     vdW  Elec       q    Type
REMARK                         _______ _______ _______ _____ _____    ______ ____
ROOT
ATOM      1  O   UNL     1      -5.558  12.047  24.494  0.00  0.00    +0.000 OA
ATOM      2  C   UNL     1      -5.110  12.759  23.591  0.00  0.00    +0.000 C 
ATOM      3  N   UNL     1      -5.933  13.106  22.505  0.00  0.00    +0.000 N 
ATOM      4  C   UNL     1      -7.326  12.633  22.478  0.00  0.00    +0.000 C 
ATOM      5  C   UNL     1      -7.632  11.612  21.368  0.00  0.00    +0.000 C 
ATOM      6  O   UNL     1      -7.500  12.153  20.036  0.00  0.00    +0.000 OA
ATOM      7  C   UNL     1      -6.207  12.033  19.596  0.00  0.00    +0.000 A 
ATOM      8  C   UNL     1      -5.953  11.217  18.496  0.00  0.00    +0.000 A 
ATOM      9  C   UNL     1      -4.637  11.037  18.057  0.00  0.00    +0.000 A 
ATOM     10  C   UNL     1      -3.571  11.674  18.709  0.00  0.00    +0.000 A 
ATOM     11  C   UNL     1      -3.858  12.546  19.771  0.00  0.00    +0.000 A 
ATOM     12  C   UNL     1      -5.175  12.752  20.202  0.00  0.00    +0.000 A 
ATOM     13  C   UNL     1      -5.490  13.754  21.277  0.00  0.00    +0.000 C 
ENDROOT
BRANCH   2  14
ATOM     14  C   UNL     1      -3.724  13.215  23.651  0.00  0.00    +0.000 A 
ATOM     15  C   UNL     1      -3.202  14.394  24.161  0.00  0.00    +0.000 A 
ATOM     16  C   UNL     1      -1.801  14.356  23.962  0.00  0.00    +0.000 A 
ATOM     17  C   UNL     1      -1.548  13.184  23.296  0.00  0.00    +0.000 A 
ATOM     18  O   UNL     1      -2.700  12.501  23.085  0.00  0.00    +0.000 OA
ENDBRANCH   2  14
BRANCH  10  19
ATOM     19  C   UNL     1      -2.138  11.501  18.234  0.00  0.00    +0.000 C 
BRANCH  19  20
ATOM     20  N   UNL     1      -1.072  11.433  19.235  0.00  0.00    +0.000 NA
ATOM     21  C   UNL     1      -0.241  12.632  19.390  0.00  0.00    +0.000 C 
ATOM     22  C   UNL     1       1.033  12.638  18.530  0.00  0.00    +0.000 C 
ATOM     23  O   UNL     1       1.811  11.453  18.741  0.00  0.00    +0.000 OA
ATOM     24  C   UNL     1       1.043  10.284  18.432  0.00  0.00    +0.000 C 
ATOM     25  C   UNL     1      -0.251  10.218  19.258  0.00  0.00    +0.000 C 
ENDBRANCH  19  20
ENDBRANCH  10  19
TORSDOF 3
ENDMDL
MODEL 9
REMARK VINA RESULT:      -6.3      5.425      8.925
REMARK  Name = 
REMARK  3 active torsions:
REMARK  status: ('A' for Active; 'I' for Inactive)
REMARK    1  A    between atoms: C_2  and  C_3
REMARK    2  A    between atoms: C_15  and  C_16
REMARK    3  A    between atoms: C_16  and  N_17
REMARK                            x       y       z     vdW  Elec       q    Type
REMARK                         _______ _______ _______ _____ _____    ______ ____
ROOT
ATOM      1  O   UNL     1      -0.027   9.954  23.607  0.00  0.00    +0.000 OA
ATOM      2  C   UNL     1      -0.559  10.619  22.713  0.00  0.00    +0.000 C 
ATOM      3  N   UNL     1      -0.540  10.145  21.390  0.00  0.00    +0.000 N 
ATOM      4  C   UNL     1       0.092   8.850  21.098  0.00  0.00    +0.000 C 
ATOM      5  C   UNL     1       1.373   8.941  20.249  0.00  0.00    +0.000 C 
ATOM      6  O   UNL     1       1.145   9.442  18.914  0.00  0.00    +0.000 OA
ATOM      7  C   UNL     1       1.205  10.811  18.900  0.00  0.00    +0.000 A 
ATOM      8  C   UNL     1       2.218  11.424  18.165  0.00  0.00    +0.000 A 
ATOM      9  C   UNL     1       2.332  12.818  18.173  0.00  0.00    +0.000 A 
ATOM     10  C   UNL     1       1.436  13.606  18.909  0.00  0.00    +0.000 A 
ATOM     11  C   UNL     1       0.383  12.972  19.585  0.00  0.00    +0.000 A 
ATOM     12  C   UNL     1       0.245  11.577  19.563  0.00  0.00    +0.000 A 
ATOM     13  C   UNL     1      -0.934  10.906  20.210  0.00  0.00    +0.000 C 
ENDROOT
BRANCH   2  14
ATOM     14  C   UNL     1      -1.182  11.899  23.038  0.00  0.00    +0.000 A 
ATOM     15  C   UNL     1      -2.524  12.217  23.187  0.00  0.00    +0.000 A 
ATOM     16  C   UNL     1      -2.599  13.599  23.487  0.00  0.00    +0.000 A 
ATOM     17  C   UNL     1      -1.308  14.061  23.453  0.00  0.00    +0.000 A 
ATOM     18  O   UNL     1      -0.451  13.051  23.162  0.00  0.00    +0.000 OA
ENDBRANCH   2  14
BRANCH  10  19
ATOM     19  C   UNL     1       1.539  15.123  18.915  0.00  0.00    +0.000 C 
BRANCH  19  20
ATOM     20  N   UNL     1       2.424  15.760  19.890  0.00  0.00    +0.000 NA
ATOM     21  C   UNL     1       3.732  16.205  19.397  0.00  0.00    +0.000 C 
ATOM     22  C   UNL     1       4.858  15.172  19.560  0.00  0.00    +0.000 C 
ATOM     23  O   UNL     1       4.957  14.717  20.916  0.00  0.00    +0.000 OA
ATOM     24  C   UNL     1       3.721  14.134  21.344  0.00  0.00    +0.000 C 
ATOM     25  C   UNL     1       2.548  15.117  21.203  0.00  0.00    +0.000 C 
ENDBRANCH  19  20
ENDBRANCH  10  19
TORSDOF 3
ENDMDL
